@<TRIPOS>MOLECULE
JCB
   32    34     1     0     0
SMALL
bcc


@<TRIPOS>ATOM
      1 C1         -1.2240   -1.3520   -1.9080 ca        1 JCB     -0.144000
      2 C3         -2.2740   -1.3660   -2.8210 ca        1 JCB     -0.111000
      3 C5         -2.4960   -0.3020   -3.7060 ca        1 JCB     -0.148000
      4 C7         -1.6650    0.8150   -3.7120 ca        1 JCB     -0.088000
      5 C9         -0.6050    0.8640   -2.8130 ca        1 JCB     -0.084800
      6 C10        -0.3890   -0.2280   -1.8960 ca        1 JCB     -0.016200
      7 N11         0.7400    0.0630   -1.0930 na        1 JCB     -0.258900
      8 C13         1.2240    1.3240   -1.5310 cc        1 JCB     -0.087100
      9 C15         0.4470    1.8330   -2.5510 cd        1 JCB     -0.153200
     10 O21         1.0960   -2.1770   -0.0270 o         1 JCB     -0.639300
     11 O24         2.7280   -0.4440    0.3150 o         1 JCB     -0.639300
     12 C28        -0.9280    0.6440    3.7350 ca        1 JCB     -0.000300
     13 S6          1.3770   -0.8120    0.1630 sy        1 JCB      1.512300
     14 C29        -1.4450   -0.3750    2.9250 ca        1 JCB     -0.160500
     15 C31        -0.7330   -0.8140    1.8140 ca        1 JCB     -0.003000
     16 C33         0.5070   -0.2530    1.4810 ca        1 JCB     -0.406500
     17 C35         1.0170    0.7640    2.3000 ca        1 JCB     -0.003000
     18 C37         0.3130    1.2100    3.4120 ca        1 JCB     -0.160500
     19 HB         -1.0420   -2.2050   -1.2360 ha        1 JCB      0.157000
     20 HC         -2.9430   -2.2390   -2.8520 ha        1 JCB      0.134000
     21 H5         -3.3390   -0.3560   -4.4100 ha        1 JCB      0.132000
     22 H4         -1.8370    1.6420   -4.4150 ha        1 JCB      0.137000
     23 HA          2.1240    1.7380   -1.0630 h4        1 JCB      0.182000
     24 H1          0.5830    2.7740   -3.0770 ha        1 JCB      0.161000
     25 H2         -1.3850    0.4900    5.8150 hc        1 JCB      0.055033
     26 H10        -1.4480    2.1770    5.1530 hc        1 JCB      0.055033
     27 H11        -2.7780    1.0010    4.7740 hc        1 JCB      0.055033
     28 H29        -2.4170   -0.8290    3.1690 ha        1 JCB      0.143500
     29 H13        -1.1420   -1.6270    1.1860 ha        1 JCB      0.153000
     30 H3          2.0020    1.2050    2.0610 ha        1 JCB      0.153000
     31 H37         0.7310    2.0090    4.0440 ha        1 JCB      0.143500
     32 C25        -1.6750    1.1060    4.9260 c3        1 JCB     -0.070800
@<TRIPOS>BOND
     1    1    2 ar  
     2    1    6 ar  
     3    1   19 1   
     4    2    3 ar  
     5    2   20 1   
     6    3    4 ar  
     7    3   21 1   
     8    4    5 ar  
     9    4   22 1   
    10    5    6 ar  
    11    5    9 1   
    12    6    7 1   
    13    7    8 1   
    14    7   13 1   
    15    8    9 2   
    16    8   23 1   
    17    9   24 1   
    18   10   13 2   
    19   11   13 2   
    20   12   14 ar  
    21   12   18 ar  
    22   12   32 1   
    23   13   16 1   
    24   14   15 ar  
    25   14   28 1   
    26   15   16 ar  
    27   15   29 1   
    28   16   17 ar  
    29   17   18 ar  
    30   17   30 1   
    31   18   31 1   
    32   25   32 1   
    33   26   32 1   
    34   27   32 1   
@<TRIPOS>SUBSTRUCTURE
     1 JCB         1 TEMP              0 ****  ****    0 ROOT
