@<TRIPOS>MOLECULE
JCF
   26    27     1     0     0
SMALL
bcc


@<TRIPOS>ATOM
      1 O1         -0.1170   -0.0850    0.0830 o         1 JCF     -0.429100
      2 C10         1.0990   -0.0330   -0.0370 c         1 JCF      0.576700
      3 N1          1.8340    0.0110    1.2950 n4        1 JCF     -0.759400
      4 C6          1.9170   -0.0070   -1.2390 ca        1 JCF     -0.179600
      5 C5          1.2470   -0.0460   -2.4560 ca        1 JCF     -0.006000
      6 C7          3.3330    0.0560   -1.1980 ca        1 JCF     -0.200000
      7 C8          4.0610    0.0780   -2.3750 ca        1 JCF      0.132800
      8 O           5.4170    0.1390   -2.2320 oh        1 JCF     -0.479100
      9 C9          3.3970    0.0380   -3.6620 ca        1 JCF      0.402600
     10 C4          1.9720   -0.0250   -3.6680 ca        1 JCF     -0.159300
     11 C3          1.3160   -0.0640   -4.9350 ca        1 JCF     -0.060000
     12 C2          2.0670   -0.0410   -6.0810 ca        1 JCF     -0.226300
     13 N           4.1410    0.0610   -4.8150 nb        1 JCF     -0.689000
     14 C1          3.5020    0.0230   -5.9860 ca        1 JCF      0.493600
     15 C           4.2710    0.0460   -7.2670 c3        1 JCF     -0.171400
     16 H11N        2.4620   -0.7950    1.3680 hn        1 JCF      0.468467
     17 H12N        1.1570   -0.0130    2.0670 hn        1 JCF      0.468467
     18 H5          0.1440   -0.0950   -2.4890 ha        1 JCF      0.172000
     19 H7          3.9000    0.0890   -0.2580 ha        1 JCF      0.140000
     20 H           5.8450    0.1500   -3.1050 ho        1 JCF      0.471000
     21 H3          0.2160   -0.1130   -4.9700 ha        1 JCF      0.162000
     22 H2          1.6030   -0.0700   -7.0790 ha        1 JCF      0.172000
     23 HC1         4.0340   -0.8790   -7.8510 hc        1 JCF      0.076700
     24 HC2         5.3760    0.0940   -7.1060 hc        1 JCF      0.076700
     25 HC3         3.9570    0.9390   -7.8640 hc        1 JCF      0.076700
     26 H13         2.3890    0.8700    1.3550 hn        1 JCF      0.468467
@<TRIPOS>BOND
     1    1    2 2   
     2    2    3 1   
     3    2    4 1   
     4    3   16 1   
     5    3   17 1   
     6    3   26 1   
     7    4    5 ar  
     8    4    6 ar  
     9    5   10 ar  
    10    5   18 1   
    11    6    7 ar  
    12    6   19 1   
    13    7    8 1   
    14    7    9 ar  
    15    8   20 1   
    16    9   10 ar  
    17    9   13 ar  
    18   10   11 ar  
    19   11   12 ar  
    20   11   21 1   
    21   12   14 ar  
    22   12   22 1   
    23   13   14 ar  
    24   14   15 1   
    25   15   23 1   
    26   15   24 1   
    27   15   25 1   
@<TRIPOS>SUBSTRUCTURE
     1 JCF         1 TEMP              0 ****  ****    0 ROOT
