@<TRIPOS>MOLECULE
JCF
   26    27     1     0     0
SMALL
bcc


@<TRIPOS>ATOM
      1 O1         -0.1180   -0.0490    0.0820 o         1 JCF     -0.429100
      2 C10         1.0990   -0.0140   -0.0370 c         1 JCF      0.576700
      3 N1          1.8340    0.0120    1.2960 nz        1 JCF     -0.759400
      4 C6          1.9180    0.0050   -1.2390 ca        1 JCF     -0.179600
      5 C5          1.2480   -0.0180   -2.4560 ca        1 JCF     -0.006000
      6 C7          3.3350    0.0460   -1.1970 ca        1 JCF     -0.200000
      7 C8          4.0630    0.0630   -2.3740 ca        1 JCF      0.132800
      8 O           5.4200    0.1020   -2.2290 oh        1 JCF     -0.479100
      9 C9          3.4000    0.0390   -3.6610 ca        1 JCF      0.402600
     10 C4          1.9730   -0.0020   -3.6680 ca        1 JCF     -0.159300
     11 C3          1.3180   -0.0250   -4.9360 ca        1 JCF     -0.060000
     12 C2          2.0690   -0.0070   -6.0810 ca        1 JCF     -0.226300
     13 N           4.1440    0.0570   -4.8140 nb        1 JCF     -0.689000
     14 C1          3.5060    0.0340   -5.9850 ca        1 JCF      0.493600
     15 C           4.2750    0.0520   -7.2650 c3        1 JCF     -0.171400
     16 H11N        2.4020    0.8610    1.3590 hn        1 JCF      0.468467
     17 H12N        1.1560   -0.0050    2.0670 hn        1 JCF      0.468467
     18 H5          0.1440   -0.0500   -2.4900 ha        1 JCF      0.172000
     19 H7          3.9010    0.0650   -0.2560 ha        1 JCF      0.140000
     20 H           5.8490    0.1120   -3.1030 ho        1 JCF      0.471000
     21 H3          0.2170   -0.0560   -4.9710 ha        1 JCF      0.162000
     22 H2          1.6050   -0.0240   -7.0790 ha        1 JCF      0.172000
     23 HC1         5.3800    0.0810   -7.1040 hc        1 JCF      0.076700
     24 HC2         3.9750    0.9530   -7.8580 hc        1 JCF      0.076700
     25 HC3         4.0230   -0.8660   -7.8550 hc        1 JCF      0.076700
     26 H13         2.4490   -0.8040    1.3650 hn        1 JCF      0.468467
@<TRIPOS>BOND
     1    1    2 2   
     2    2    3 1   
     3    2    4 1   
     4    3   16 1   
     5    3   17 1   
     6    3   26 1   
     7    4    5 ar  
     8    4    6 ar  
     9    5   10 ar  
    10    5   18 1   
    11    6    7 ar  
    12    6   19 1   
    13    7    8 1   
    14    7    9 ar  
    15    8   20 1   
    16    9   10 ar  
    17    9   13 ar  
    18   10   11 ar  
    19   11   12 ar  
    20   11   21 1   
    21   12   14 ar  
    22   12   22 1   
    23   13   14 ar  
    24   14   15 1   
    25   15   23 1   
    26   15   24 1   
    27   15   25 1   
@<TRIPOS>SUBSTRUCTURE
     1 JCF         1 TEMP              0 ****  ****    0 ROOT
