@<TRIPOS>MOLECULE
JCL
   28    25     1     0     0
SMALL
bcc


@<TRIPOS>ATOM
      1 N3          0.8810   -1.1430   -3.8860 n2        1 JCL     -0.372000
      2 N1          2.9370   -1.2180   -2.7400 n2        1 JCL     -0.318000
      3 C6          2.2770   -1.2500   -1.5640 c1        1 JCL      0.051000
      4 CL          3.1710   -1.3790   -0.0540 cl        1 JCL      0.085000
      5 C5          0.9050   -1.2290   -1.5500 c1        1 JCL     -0.165000
      6 C7          0.1640   -1.3140   -0.2550 c2        1 JCL     -0.120000
      7 C2          2.2420   -1.1640   -3.9040 c1        1 JCL      0.399000
      8 C4          0.2200   -1.1750   -2.7120 c2        1 JCL      0.354000
      9 O1          2.8150   -1.1350   -4.9290 o         1 JCL     -0.408000
     10 O2         -1.0090   -1.1570   -2.6990 o         1 JCL     -0.335000
     11 C8         -0.2130    0.0810    0.2090 c3        1 JCL     -0.143000
     12 C9         -0.9620   -0.0150    1.5950 c3        1 JCL     -0.217000
     13 C10        -1.2190    1.3890    2.1340 c3        1 JCL      0.099000
     14 O27        -1.7340    1.3020    3.4610 os        1 JCL     -0.723000
     15 P          -2.3570    2.5740    4.0980 p5        1 JCL      1.546500
     16 O1P        -2.9290    2.2260    5.4710 o         1 JCL     -0.933833
     17 O2P        -3.4560    3.0910    3.2110 o         1 JCL     -0.933833
     18 O3P        -1.2870    3.6430    4.2510 o         1 JCL     -0.933833
     19 H3          0.3950   -1.1040   -4.7040 hn        1 JCL      0.254000
     20 H1          3.8320   -1.2320   -2.7540 hn        1 JCL      0.265000
     21 H7C1        0.7460   -1.7510    0.4380 ha        1 JCL      0.103500
     22 H7C2       -0.6810   -1.8640   -0.3880 ha        1 JCL      0.103500
     23 H8C1       -0.7750    0.4760   -0.4200 hc        1 JCL      0.068000
     24 H8C2        0.5910    0.6200    0.3100 hc        1 JCL      0.068000
     25 H9C1       -0.4080   -0.5110    2.2310 hc        1 JCL      0.089000
     26 H9C2       -1.8450   -0.4980    1.4690 hc        1 JCL      0.089000
     27 H101       -1.8930    1.8630    1.5380 h1        1 JCL      0.015500
     28 H102       -0.4090    1.8750    2.1420 h1        1 JCL      0.015500
@<TRIPOS>BOND
     1    1    8 1   
     2    1   19 1   
     3    2    7 1   
     4    2   20 1   
     5    3    4 1   
     6    3    5 1   
     7    5    8 1   
     8    6   11 1   
     9    6   21 1   
    10    6   22 1   
    11    7    9 1   
    12    8   10 1   
    13   11   12 1   
    14   11   23 1   
    15   11   24 1   
    16   12   13 1   
    17   12   25 1   
    18   12   26 1   
    19   13   14 1   
    20   13   27 1   
    21   13   28 1   
    22   14   15 1   
    23   15   16 1   
    24   15   17 1   
    25   15   18 1   
@<TRIPOS>SUBSTRUCTURE
     1 JCL         1 TEMP              0 ****  ****    0 ROOT
