@<TRIPOS>MOLECULE
JCL
   28    29     1     0     0
SMALL
bcc


@<TRIPOS>ATOM
      1 N3         -4.3270   -0.5150    0.1530 n         1 JCL     -0.374000
      2 N1         -2.7510    0.9600    1.1930 n         1 JCL     -0.286000
      3 C6         -1.7390    0.5620    0.3230 c2        1 JCL     -0.056000
      4 CL         -0.1640    1.2770    0.5650 cl        1 JCL      0.266000
      5 C5         -2.0220   -0.3810   -0.6540 c2        1 JCL     -0.329000
      6 C7         -1.0030   -0.8160   -1.6460 c3        1 JCL     -0.068000
      7 C2         -4.0440    0.4340    1.1400 c2        1 JCL      0.372000
      8 C4         -3.3500   -0.9570   -0.7720 c2        1 JCL      0.360000
      9 O1         -4.9430    0.8030    1.9460 o         1 JCL     -0.463000
     10 O2         -3.7410   -1.8040   -1.6100 o         1 JCL     -0.437000
     11 C8          0.2310   -1.4600   -1.0250 c3        1 JCL     -0.145000
     12 C9          1.5140   -0.7330   -1.3830 c3        1 JCL     -0.189000
     13 C10         2.5210   -0.7000   -0.2250 c3        1 JCL      0.060000
     14 O27         3.2650    0.4650   -0.2520 os        1 JCL     -0.741000
     15 P           3.0370    1.5080    1.0640 p5        1 JCL      1.931000
     16 O1P         4.0330    2.5940    0.8660 o         1 JCL     -0.888000
     17 O2P         3.1110    0.6070    2.2490 o         1 JCL     -0.888000
     18 O3P         1.5600    2.0040    0.7980 os        1 JCL     -1.112000
     19 H3         -5.2470   -0.8870    0.1200 hn        1 JCL      0.230000
     20 H1         -2.5470    1.6130    1.9160 hn        1 JCL      0.258000
     21 H7C1       -0.7010    0.0810   -2.2530 hc        1 JCL      0.072500
     22 H7C2       -1.4780   -1.5450   -2.3570 hc        1 JCL      0.072500
     23 H8C1        0.2980   -2.5260   -1.3680 hc        1 JCL      0.065000
     24 H8C2        0.1110   -1.4900    0.0900 hc        1 JCL      0.065000
     25 H9C1        1.2920    0.3290   -1.6720 hc        1 JCL      0.070500
     26 H9C2        1.9860   -1.2210   -2.2740 hc        1 JCL      0.070500
     27 H101        3.2180   -1.5820   -0.3410 h1        1 JCL      0.041000
     28 H102        1.9930   -0.8000    0.7660 h1        1 JCL      0.041000
@<TRIPOS>BOND
     1    1    7 1   
     2    1    8 1   
     3    1   19 1   
     4    2    3 1   
     5    2    7 1   
     6    2   20 1   
     7    3    4 1   
     8    3    5 1   
     9    4   18 1   
    10    5    6 1   
    11    5    8 1   
    12    6   11 1   
    13    6   21 1   
    14    6   22 1   
    15    7    9 1   
    16    8   10 1   
    17   11   12 1   
    18   11   23 1   
    19   11   24 1   
    20   12   13 1   
    21   12   25 1   
    22   12   26 1   
    23   13   14 1   
    24   13   27 1   
    25   13   28 1   
    26   14   15 1   
    27   15   16 1   
    28   15   17 1   
    29   15   18 1   
@<TRIPOS>SUBSTRUCTURE
     1 JCL         1 TEMP              0 ****  ****    0 ROOT
