@<TRIPOS>MOLECULE
JCL
   28    29     1     0     0
SMALL
bcc


@<TRIPOS>ATOM
      1 N3          0.9320   -0.3720    0.6550 n         1 JCL     -0.374000
      2 N1          1.7590    0.9890    2.4450 n         1 JCL     -0.286000
      3 C6          0.5480    0.9060    3.1270 c2        1 JCL     -0.056000
      4 CL          0.4250    1.7830    4.6310 cl        1 JCL      0.266000
      5 C5         -0.4880    0.1660    2.5740 c2        1 JCL     -0.329000
      6 C7         -1.7910   -0.0050    3.2680 c3        1 JCL     -0.068000
      7 C2          1.9770    0.3740    1.2100 c2        1 JCL      0.372000
      8 C4         -0.3220   -0.5100    1.2970 c2        1 JCL      0.360000
      9 O1          3.0810    0.4720    0.6060 o         1 JCL     -0.463000
     10 O2         -1.1660   -1.2140    0.6940 o         1 JCL     -0.437000
     11 C8         -2.5290    1.3020    3.5320 c3        1 JCL     -0.145000
     12 C9         -2.8060    1.5310    5.0050 c3        1 JCL     -0.189000
     13 C10        -2.6790    3.0060    5.4120 c3        1 JCL      0.060000
     14 O27        -2.2150    3.1220    6.7100 os        1 JCL     -0.741000
     15 P          -0.6920    3.8430    6.8790 p5        1 JCL      1.931000
     16 O1P        -0.4930    3.9710    8.3470 o         1 JCL     -0.888000
     17 O2P        -0.7710    5.0510    6.0090 o         1 JCL     -0.888000
     18 O3P         0.2370    2.7300    6.2510 os        1 JCL     -1.112000
     19 H3          1.0910   -0.8060   -0.2230 hn        1 JCL      0.230000
     20 H1          2.4950    1.5430    2.8210 hn        1 JCL      0.258000
     21 H7C1       -2.4450   -0.6780    2.6490 hc        1 JCL      0.072500
     22 H7C2       -1.6020   -0.5390    4.2390 hc        1 JCL      0.072500
     23 H8C1       -1.9270    2.1560    3.1220 hc        1 JCL      0.065000
     24 H8C2       -3.4980    1.2940    2.9660 hc        1 JCL      0.065000
     25 H9C1       -3.8340    1.1620    5.2560 hc        1 JCL      0.070500
     26 H9C2       -2.0860    0.9420    5.6330 hc        1 JCL      0.070500
     27 H101       -1.9940    3.5570    4.7050 h1        1 JCL      0.041000
     28 H102       -3.7030    3.4780    5.3460 h1        1 JCL      0.041000
@<TRIPOS>BOND
     1    1    7 1   
     2    1    8 1   
     3    1   19 1   
     4    2    3 1   
     5    2    7 1   
     6    2   20 1   
     7    3    4 1   
     8    3    5 1   
     9    4   18 1   
    10    5    6 1   
    11    5    8 1   
    12    6   11 1   
    13    6   21 1   
    14    6   22 1   
    15    7    9 1   
    16    8   10 1   
    17   11   12 1   
    18   11   23 1   
    19   11   24 1   
    20   12   13 1   
    21   12   25 1   
    22   12   26 1   
    23   13   14 1   
    24   13   27 1   
    25   13   28 1   
    26   14   15 1   
    27   15   16 1   
    28   15   17 1   
    29   15   18 1   
@<TRIPOS>SUBSTRUCTURE
     1 JCL         1 TEMP              0 ****  ****    0 ROOT
