@<TRIPOS>MOLECULE
JCL
   28    29     1     0     0
SMALL
bcc


@<TRIPOS>ATOM
      1 N3          0.8680   -0.2190    0.5370 ns        1 JCL     -0.374000
      2 N1          1.7150    1.1320    2.3250 ns        1 JCL     -0.286000
      3 C6          0.5380    0.9810    3.0550 c2        1 JCL     -0.056000
      4 Cl          0.4450    1.8160    4.5850 cl        1 JCL      0.266000
      5 C5         -0.4890    0.2120    2.5270 c2        1 JCL     -0.329000
      6 C7         -1.7530   -0.0300    3.2710 c3        1 JCL     -0.068000
      7 C2          1.9040    0.5570    1.0660 c2        1 JCL      0.372000
      8 C4         -0.3510   -0.4250    1.2280 c2        1 JCL      0.360000
      9 O1          2.9760    0.7150    0.4190 o         1 JCL     -0.463000
     10 O2         -1.1900   -1.1500    0.6430 o         1 JCL     -0.437000
     11 C8         -2.5320    1.2380    3.5990 c3        1 JCL     -0.145000
     12 C9         -2.7540    1.4200    5.0880 c3        1 JCL     -0.189000
     13 C10        -2.6700    2.8880    5.5270 c3        1 JCL      0.061000
     14 O27        -2.1560    2.9920    6.8070 os        1 JCL     -0.741000
     15 P          -0.6570    3.7730    6.9310 p5        1 JCL      1.931000
     16 O1P        -0.4010    3.8740    8.3920 o         1 JCL     -0.888000
     17 O2P        -0.8240    4.9970    6.0960 o         1 JCL     -0.888000
     18 O3P         0.2880    2.7150    6.2360 os        1 JCL     -1.112000
     19 H3          1.0060   -0.6250   -0.3580 hn        1 JCL      0.230000
     20 H1          2.4430    1.7070    2.6840 hn        1 JCL      0.258000
     21 H7C1       -2.4050   -0.7150    2.6630 hc        1 JCL      0.072000
     22 H7C2       -1.5000   -0.5790    4.2190 hc        1 JCL      0.072000
     23 H8C1       -1.9840    2.1260    3.1870 hc        1 JCL      0.065000
     24 H8C2       -3.5230    1.2020    3.0750 hc        1 JCL      0.065000
     25 H9C1       -3.7540    1.0020    5.3730 hc        1 JCL      0.070500
     26 H9C2       -1.9840    0.8460    5.6700 hc        1 JCL      0.070500
     27 H101       -2.0390    3.4840    4.8060 h1        1 JCL      0.041000
     28 H102       -3.7150    3.3190    5.5160 h1        1 JCL      0.041000
@<TRIPOS>BOND
     1    1    7 1   
     2    1    8 1   
     3    1   19 1   
     4    2    3 1   
     5    2    7 1   
     6    2   20 1   
     7    3    4 1   
     8    3    5 1   
     9    4   18 1   
    10    5    6 1   
    11    5    8 1   
    12    6   11 1   
    13    6   21 1   
    14    6   22 1   
    15    7    9 1   
    16    8   10 1   
    17   11   12 1   
    18   11   23 1   
    19   11   24 1   
    20   12   13 1   
    21   12   25 1   
    22   12   26 1   
    23   13   14 1   
    24   13   27 1   
    25   13   28 1   
    26   14   15 1   
    27   15   16 1   
    28   15   17 1   
    29   15   18 1   
@<TRIPOS>SUBSTRUCTURE
     1 JCL         1 TEMP              0 ****  ****    0 ROOT
