@<TRIPOS>MOLECULE
JD1
   42    43     1     0     0
SMALL
bcc


@<TRIPOS>ATOM
      1 OAJ         0.0000    0.0000    0.0000 o         1 JD1     -0.689500
      2 PAI         1.6100    0.0000    0.0000 p5        1 JD1      0.439700
      3 OAK         2.1470    0.0000    1.5170 o         1 JD1     -0.689500
      4 OAL         2.1030   -1.2080   -0.6980 o         1 JD1     -0.689500
      5 CAH         2.2160    1.4890   -0.8590 c3        1 JD1      0.338100
      6 PAM         1.6090    1.4890   -2.5780 p5        1 JD1      0.439700
      7 OAN         2.1450    0.1750   -3.3370 o         1 JD1     -0.689500
      8 OAP         0.1280    1.4890   -2.5770 o         1 JD1     -0.689500
      9 OAO         2.1450    2.8040   -3.3370 o         1 JD1     -0.689500
     10 NAG         1.7290    2.6840   -0.1680 nu        1 JD1     -0.092600
     11 CAD         2.3040    3.0730    1.0450 ca        1 JD1     -0.137700
     12 CAE         1.8470    4.2070    1.7090 ca        1 JD1     -0.125000
     13 CAC         3.3350    2.3300    1.6060 ca        1 JD1      0.251200
     14 NAB         3.8830    2.6880    2.7510 nb        1 JD1     -0.550000
     15 CAA         3.4850    3.7580    3.4090 ca        1 JD1      0.081200
     16 CAF         2.4540    4.5550    2.9180 cp        1 JD1     -0.104300
     17 CAQ         2.0100    5.7580    3.6640 cp        1 JD1     -0.136000
     18 CAV         2.6260    6.0990    4.8680 ca        1 JD1     -0.127000
     19 CAU         2.2120    7.2180    5.5580 ca        1 JD1     -0.162500
     20 CAR         0.9810    6.5510    3.1610 ca        1 JD1     -0.127000
     21 CAS         0.5720    7.6700    3.8570 ca        1 JD1     -0.162500
     22 CAT         1.1830    8.0040    5.0580 ca        1 JD1     -0.170900
     23 OAW         0.7770    9.1070    5.7420 os        1 JD1     -0.307900
     24 CAX         1.5270    9.4600    6.9070 c3        1 JD1      0.158100
     25 CAZ         1.3700   10.9580    7.1780 c3        1 JD1     -0.018600
     26 CAY         1.0080    8.6660    8.1070 c3        1 JD1     -0.018600
     27 H3          3.3000    1.4890   -0.8600 h1        1 JD1      0.030700
     28 H6          0.9960    3.2320   -0.5730 hn        1 JD1      0.274800
     29 H7          1.0420    4.8050    1.2980 ha        1 JD1      0.086000
     30 H8          3.6920    1.4430    1.0970 h4        1 JD1      0.037100
     31 H9          3.9630    4.0180    4.3460 h4        1 JD1     -0.057900
     32 H10         3.4650    5.5180    5.2310 ha        1 JD1      0.095500
     33 H11         2.6940    7.4870    6.4910 ha        1 JD1      0.059000
     34 H12         0.4690    6.2610    2.2520 ha        1 JD1      0.095500
     35 H13        -0.2270    8.2880    3.4660 ha        1 JD1      0.059000
     36 H14         2.5730    9.2290    6.7460 h1        1 JD1      0.026700
     37 H15         0.3190   11.1970    7.2850 hc        1 JD1     -0.005967
     38 H16         1.7860   11.5200    6.3520 hc        1 JD1     -0.005967
     39 H17         1.8940   11.2160    8.0910 hc        1 JD1     -0.005967
     40 H18         0.4430    9.3220    8.7580 hc        1 JD1     -0.005967
     41 H19         1.8460    8.2490    8.6530 hc        1 JD1     -0.005967
     42 H20         0.3680    7.8630    7.7600 hc        1 JD1     -0.005967
@<TRIPOS>BOND
     1    1    2 1   
     2    2    3 1   
     3    2    4 1   
     4    2    5 1   
     5    5    6 1   
     6    5   10 1   
     7    5   27 1   
     8    6    7 1   
     9    6    8 1   
    10    6    9 1   
    11   10   11 1   
    12   10   28 1   
    13   11   12 ar  
    14   11   13 ar  
    15   12   16 ar  
    16   12   29 1   
    17   13   14 ar  
    18   13   30 1   
    19   14   15 ar  
    20   15   16 ar  
    21   15   31 1   
    22   16   17 1   
    23   17   18 ar  
    24   17   20 ar  
    25   18   19 ar  
    26   18   32 1   
    27   19   22 ar  
    28   19   33 1   
    29   20   21 ar  
    30   20   34 1   
    31   21   22 ar  
    32   21   35 1   
    33   22   23 1   
    34   23   24 1   
    35   24   25 1   
    36   24   26 1   
    37   24   36 1   
    38   25   37 1   
    39   25   38 1   
    40   25   39 1   
    41   26   40 1   
    42   26   41 1   
    43   26   42 1   
@<TRIPOS>SUBSTRUCTURE
     1 JD1         1 TEMP              0 ****  ****    0 ROOT
