@<TRIPOS>MOLECULE
JD5
   40    42     1     0     0
SMALL
bcc


@<TRIPOS>ATOM
      1 OAJ         0.0000    0.0000    0.0000 o         1 JD5     -0.677167
      2 PAI         1.4810    0.0000    0.0000 p5        1 JD5      0.434200
      3 OAK         2.0170    0.0000    1.5180 o         1 JD5     -0.677167
      4 OAL         2.0160   -1.3160   -0.7590 o         1 JD5     -0.677167
      5 CAH         2.0890    1.4870   -0.8600 c3        1 JD5      0.377100
      6 PAM         3.9120    1.4860   -0.8610 p5        1 JD5      0.434200
      7 OAO         4.4040    0.2770   -1.5580 o         1 JD5     -0.677167
      8 OAP         4.4490    2.8000   -1.6210 o         1 JD5     -0.677167
      9 OAN         4.4480    1.4860    0.6570 o         1 JD5     -0.677167
     10 NAG         1.6000    1.4870   -2.2420 nu        1 JD5     -0.102600
     11 CAD         0.2660    1.8000   -2.5110 ca        1 JD5     -0.133700
     12 CAE        -0.2070    1.8020   -3.8180 ca        1 JD5     -0.121000
     13 CAC        -0.6090    2.1090   -1.4750 ca        1 JD5      0.221200
     14 NAB        -1.8700    2.4070   -1.7170 nb        1 JD5     -0.543000
     15 CAA        -2.3570    2.4260   -2.9410 ca        1 JD5      0.087200
     16 CAF        -1.5500    2.1230   -4.0350 cp        1 JD5     -0.101300
     17 CAQ        -2.1050    2.1470   -5.4100 cp        1 JD5     -0.158000
     18 CAV        -3.4450    2.4730   -5.6170 ca        1 JD5     -0.127500
     19 CAU        -3.9580    2.4950   -6.8970 ca        1 JD5     -0.155500
     20 CAR        -1.2880    1.8480   -6.4990 ca        1 JD5     -0.127500
     21 CAS        -1.8070    1.8720   -7.7760 ca        1 JD5     -0.155500
     22 CAT        -3.1440    2.1920   -7.9780 ca        1 JD5     -0.200900
     23 OAW        -3.6520    2.2140   -9.2380 os        1 JD5     -0.256900
     24 CAX        -5.0620    2.4120   -9.3650 cx        1 JD5      0.163100
     25 CAY        -5.5400    3.4300  -10.4020 cx        1 JD5     -0.160900
     26 CAZ        -5.7300    1.9330  -10.6560 cx        1 JD5     -0.160900
     27 H3          1.7280    2.3720   -0.3500 h1        1 JD5      0.031700
     28 H6          2.2250    1.2720   -2.9940 hn        1 JD5      0.279800
     29 H7          0.4910    1.8040   -4.6470 ha        1 JD5      0.086000
     30 H8         -0.2480    2.1040   -0.4530 h4        1 JD5      0.032100
     31 H9         -3.4000    2.6760   -3.0980 h4        1 JD5     -0.054900
     32 H10        -4.0670    2.7650   -4.7790 ha        1 JD5      0.091000
     33 H11        -5.0000    2.7460   -7.0570 ha        1 JD5      0.055500
     34 H12        -0.2460    1.5980   -6.3420 ha        1 JD5      0.091000
     35 H13        -1.1730    1.6370   -8.6220 ha        1 JD5      0.055500
     36 H14        -5.6820    2.3410   -8.4800 h1        1 JD5      0.063700
     37 H15        -6.4380    3.9770  -10.1400 hc        1 JD5      0.030200
     38 H16        -4.7600    3.9080  -10.9830 hc        1 JD5      0.030200
     39 H17        -5.0660    1.4960  -11.3920 hc        1 JD5      0.030200
     40 H18        -6.7430    1.5650  -10.5490 hc        1 JD5      0.030200
@<TRIPOS>BOND
     1    1    2 1   
     2    2    3 1   
     3    2    4 1   
     4    2    5 1   
     5    5    6 1   
     6    5   10 1   
     7    5   27 1   
     8    6    7 1   
     9    6    8 1   
    10    6    9 1   
    11   10   11 1   
    12   10   28 1   
    13   11   12 ar  
    14   11   13 ar  
    15   12   16 ar  
    16   12   29 1   
    17   13   14 ar  
    18   13   30 1   
    19   14   15 ar  
    20   15   16 ar  
    21   15   31 1   
    22   16   17 1   
    23   17   18 ar  
    24   17   20 ar  
    25   18   19 ar  
    26   18   32 1   
    27   19   22 ar  
    28   19   33 1   
    29   20   21 ar  
    30   20   34 1   
    31   21   22 ar  
    32   21   35 1   
    33   22   23 1   
    34   23   24 1   
    35   24   25 1   
    36   24   26 1   
    37   24   36 1   
    38   25   26 1   
    39   25   37 1   
    40   25   38 1   
    41   26   39 1   
    42   26   40 1   
@<TRIPOS>SUBSTRUCTURE
     1 JD5         1 TEMP              0 ****  ****    0 ROOT
