@<TRIPOS>MOLECULE
JDB
   40    42     1     0     0
SMALL
bcc


@<TRIPOS>ATOM
      1 OAJ         0.1250    0.0990    0.2100 o         1 JDB     -0.793800
      2 CAI         1.3150   -0.3060    0.1800 c         1 JDB      0.921800
      3 OAK         1.9560   -0.8130    1.1310 o         1 JDB     -0.793800
      4 C4          2.0410   -0.1820   -1.1940 cc        1 JDB      0.044400
      5 N3          1.2370   -0.3880   -2.3050 n         1 JDB     -0.436100
      6 C2          1.7220   -0.2480   -3.6110 c         1 JDB      0.791500
      7 O2          0.9730   -0.4040   -4.6080 o         1 JDB     -0.695500
      8 N1          3.0810    0.0510   -3.7790 n         1 JDB     -0.592500
      9 C6          3.9500    0.2600   -2.6880 c         1 JDB      0.716700
     10 O6          5.1350    0.5480   -2.9540 o         1 JDB     -0.667500
     11 C5          3.3720    0.1240   -1.3460 cd        1 JDB     -0.293400
     12 CAL         4.2850    0.3380   -0.1960 c3        1 JDB      0.009800
     13 CAM         4.9490   -0.9620    0.2360 c3        1 JDB     -0.044100
     14 CAN         5.6250   -0.8160    1.5530 ca        1 JDB     -0.036300
     15 CAS         6.9960   -0.8100    1.6730 ca        1 JDB     -0.150000
     16 CAR         7.6150   -0.6860    2.9490 ca        1 JDB     -0.007000
     17 CAT         9.0260   -0.6760    3.0860 ca        1 JDB     -0.150000
     18 CAW         9.5920   -0.5560    4.3440 ca        1 JDB      0.098100
     19 OAX        10.9810   -0.5770    4.3750 os        1 JDB     -0.335900
     20 CAY        11.5800   -0.2930    5.6300 c3        1 JDB      0.119700
     21 CAV         8.7860   -0.4380    5.5040 ca        1 JDB     -0.200000
     22 CAU         7.4170   -0.4450    5.3760 ca        1 JDB     -0.086000
     23 CAQ         6.8000   -0.5680    4.1050 ca        1 JDB     -0.068000
     24 CAP         5.3840   -0.5760    3.9560 ca        1 JDB     -0.134000
     25 CAO         4.8100   -0.6970    2.7170 ca        1 JDB     -0.112000
     26 H2          3.4210    0.1380   -4.7090 hn        1 JDB      0.331500
     27 H4          5.0730    1.0860   -0.4780 hc        1 JDB      0.058700
     28 H5          3.6950    0.7480    0.6700 hc        1 JDB      0.058700
     29 H6          4.1480   -1.7480    0.3310 hc        1 JDB      0.062200
     30 H7          5.6780   -1.2910   -0.5500 hc        1 JDB      0.062200
     31 H8          7.6380   -0.8980    0.7840 ha        1 JDB      0.132000
     32 H9          9.6620   -0.7660    2.1950 ha        1 JDB      0.143000
     33 H10        11.2470    0.6990    6.0190 h1        1 JDB      0.035700
     34 H11        12.6760   -0.2790    5.4020 h1        1 JDB      0.035700
     35 H12        11.3460   -1.0980    6.3690 h1        1 JDB      0.035700
     36 H13         9.2490   -0.3440    6.4950 ha        1 JDB      0.124000
     37 H14         6.7760   -0.3530    6.2660 ha        1 JDB      0.126000
     38 H15         4.7600   -0.4830    4.8570 ha        1 JDB      0.125000
     39 H16         3.7100   -0.7060    2.5800 ha        1 JDB      0.196000
     40 H17         0.2520   -0.4880   -2.1670 hn        1 JDB      0.366500
@<TRIPOS>BOND
     1    1    2 1   
     2    2    3 1   
     3    2    4 1   
     4    4    5 1   
     5    4   11 2   
     6    5    6 1   
     7    5   40 1   
     8    6    7 2   
     9    6    8 1   
    10    8    9 1   
    11    8   26 1   
    12    9   10 2   
    13    9   11 1   
    14   11   12 1   
    15   12   13 1   
    16   12   27 1   
    17   12   28 1   
    18   13   14 1   
    19   13   29 1   
    20   13   30 1   
    21   14   15 ar  
    22   14   25 ar  
    23   15   16 ar  
    24   15   31 1   
    25   16   17 ar  
    26   16   23 ar  
    27   17   18 ar  
    28   17   32 1   
    29   18   19 1   
    30   18   21 ar  
    31   19   20 1   
    32   20   33 1   
    33   20   34 1   
    34   20   35 1   
    35   21   22 ar  
    36   21   36 1   
    37   22   23 ar  
    38   22   37 1   
    39   23   24 ar  
    40   24   25 ar  
    41   24   38 1   
    42   25   39 1   
@<TRIPOS>SUBSTRUCTURE
     1 JDB         1 TEMP              0 ****  ****    0 ROOT
