@<TRIPOS>MOLECULE
JDB
   40    42     1     0     0
SMALL
bcc


@<TRIPOS>ATOM
      1 OAJ         0.1260    0.1020    0.2150 o         1 JDB     -0.793800
      2 CAI         1.3150   -0.3060    0.1830 c         1 JDB      0.921800
      3 OAK         1.9560   -0.8150    1.1330 o         1 JDB     -0.793800
      4 C4          2.0410   -0.1810   -1.1920 cc        1 JDB      0.044400
      5 N3          1.2350   -0.3850   -2.3020 n         1 JDB     -0.436100
      6 C2          1.7190   -0.2450   -3.6080 c         1 JDB      0.791500
      7 O2          0.9690   -0.3980   -4.6050 o         1 JDB     -0.695500
      8 N1          3.0790    0.0530   -3.7770 n         1 JDB     -0.592500
      9 C6          3.9490    0.2590   -2.6860 c         1 JDB      0.716700
     10 O6          5.1340    0.5450   -2.9530 o         1 JDB     -0.667500
     11 C5          3.3720    0.1220   -1.3440 cd        1 JDB     -0.293400
     12 CAL         4.2850    0.3340   -0.1940 c3        1 JDB      0.009800
     13 CAM         4.9480   -0.9680    0.2360 c3        1 JDB     -0.044100
     14 CAN         5.6250   -0.8240    1.5530 ca        1 JDB     -0.036300
     15 CAS         6.9960   -0.8190    1.6730 ca        1 JDB     -0.150000
     16 CAR         7.6160   -0.6960    2.9470 ca        1 JDB     -0.007000
     17 CAT         9.0270   -0.6880    3.0840 ca        1 JDB     -0.150000
     18 CAW         9.5950   -0.5690    4.3410 ca        1 JDB      0.098100
     19 OAX        10.9830   -0.5910    4.3720 os        1 JDB     -0.335900
     20 CAY        11.5830   -0.3010    5.6250 c3        1 JDB      0.119700
     21 CAV         8.7890   -0.4510    5.5030 ca        1 JDB     -0.200000
     22 CAU         7.4200   -0.4570    5.3750 ca        1 JDB     -0.086000
     23 CAQ         6.8020   -0.5780    4.1040 ca        1 JDB     -0.068000
     24 CAP         5.3860   -0.5850    3.9560 ca        1 JDB     -0.134000
     25 CAO         4.8110   -0.7050    2.7180 ca        1 JDB     -0.112000
     26 H2          3.4190    0.1390   -4.7070 hn        1 JDB      0.331500
     27 H4          3.6970    0.7440    0.6730 hc        1 JDB      0.058700
     28 H5          5.0740    1.0810   -0.4760 hc        1 JDB      0.058700
     29 H6          4.1460   -1.7530    0.3320 hc        1 JDB      0.062200
     30 H7          5.6760   -1.2960   -0.5500 hc        1 JDB      0.062200
     31 H8          7.6380   -0.9060    0.7830 ha        1 JDB      0.132000
     32 H9          9.6630   -0.7770    2.1920 ha        1 JDB      0.143000
     33 H10        12.6780   -0.2840    5.3960 h1        1 JDB      0.035367
     34 H11        11.2480    0.6930    6.0110 h1        1 JDB      0.035367
     35 H12        11.3520   -1.1030    6.3680 h1        1 JDB      0.035367
     36 H13         9.2530   -0.3590    6.4930 ha        1 JDB      0.124000
     37 H14         6.7800   -0.3660    6.2650 ha        1 JDB      0.126000
     38 H15         4.7620   -0.4930    4.8570 ha        1 JDB      0.125000
     39 H16         3.7110   -0.7130    2.5820 ha        1 JDB      0.196000
     40 H17         0.2500   -0.4840   -2.1640 hn        1 JDB      0.366500
@<TRIPOS>BOND
     1    1    2 1   
     2    2    3 1   
     3    2    4 1   
     4    4    5 1   
     5    4   11 2   
     6    5    6 1   
     7    5   40 1   
     8    6    7 2   
     9    6    8 1   
    10    8    9 1   
    11    8   26 1   
    12    9   10 2   
    13    9   11 1   
    14   11   12 1   
    15   12   13 1   
    16   12   27 1   
    17   12   28 1   
    18   13   14 1   
    19   13   29 1   
    20   13   30 1   
    21   14   15 ar  
    22   14   25 ar  
    23   15   16 ar  
    24   15   31 1   
    25   16   17 ar  
    26   16   23 ar  
    27   17   18 ar  
    28   17   32 1   
    29   18   19 1   
    30   18   21 ar  
    31   19   20 1   
    32   20   33 1   
    33   20   34 1   
    34   20   35 1   
    35   21   22 ar  
    36   21   36 1   
    37   22   23 ar  
    38   22   37 1   
    39   23   24 ar  
    40   24   25 ar  
    41   24   38 1   
    42   25   39 1   
@<TRIPOS>SUBSTRUCTURE
     1 JDB         1 TEMP              0 ****  ****    0 ROOT
