@<TRIPOS>MOLECULE
JDB
   40    42     1     0     0
SMALL
bcc


@<TRIPOS>ATOM
      1 OAJ         0.1250    0.0920    0.2080 o         1 JDB     -0.793800
      2 CAI         1.3150   -0.3110    0.1780 c         1 JDB      0.921800
      3 OAK         1.9570   -0.8180    1.1290 o         1 JDB     -0.793800
      4 C4          2.0420   -0.1850   -1.1960 cc        1 JDB      0.044400
      5 N3          1.2380   -0.3920   -2.3070 ns        1 JDB     -0.436100
      6 C2          1.7230   -0.2510   -3.6130 c         1 JDB      0.791500
      7 O2          0.9750   -0.4070   -4.6100 o         1 JDB     -0.695500
      8 N1          3.0830    0.0500   -3.7800 ns        1 JDB     -0.592500
      9 C6          3.9500    0.2590   -2.6880 c         1 JDB      0.716700
     10 O6          5.1350    0.5480   -2.9540 o         1 JDB     -0.667500
     11 C5          3.3720    0.1220   -1.3470 cd        1 JDB     -0.293400
     12 CAL         4.2840    0.3370   -0.1960 c3        1 JDB      0.009800
     13 CAM         4.9500   -0.9630    0.2350 c3        1 JDB     -0.044100
     14 CAN         5.6260   -0.8170    1.5530 ca        1 JDB     -0.036300
     15 CAS         6.9970   -0.8080    1.6740 ca        1 JDB     -0.150000
     16 CAR         7.6150   -0.6840    2.9490 ca        1 JDB     -0.007000
     17 CAT         9.0250   -0.6730    3.0870 ca        1 JDB     -0.150000
     18 CAW         9.5920   -0.5520    4.3450 ca        1 JDB      0.098100
     19 OAX        10.9800   -0.5710    4.3770 os        1 JDB     -0.335900
     20 CAY        11.5780   -0.2860    5.6320 c3        1 JDB      0.119700
     21 CAV         8.7840   -0.4360    5.5050 ca        1 JDB     -0.200000
     22 CAU         7.4160   -0.4440    5.3760 ca        1 JDB     -0.086000
     23 CAQ         6.7990   -0.5680    4.1050 ca        1 JDB     -0.068000
     24 CAP         5.3830   -0.5780    3.9560 ca        1 JDB     -0.134000
     25 CAO         4.8100   -0.6990    2.7170 ca        1 JDB     -0.112000
     26 H2          3.4230    0.1370   -4.7100 hn        1 JDB      0.331500
     27 H4          5.0720    1.0860   -0.4780 hc        1 JDB      0.058700
     28 H5          3.6940    0.7450    0.6700 hc        1 JDB      0.058700
     29 H6          4.1500   -1.7500    0.3300 hc        1 JDB      0.062200
     30 H7          5.6790   -1.2900   -0.5500 hc        1 JDB      0.062200
     31 H8          7.6390   -0.8950    0.7840 ha        1 JDB      0.132000
     32 H9          9.6620   -0.7610    2.1960 ha        1 JDB      0.143000
     33 H10        11.2430    0.7060    6.0210 h1        1 JDB      0.035367
     34 H11        12.6740   -0.2690    5.4040 h1        1 JDB      0.035367
     35 H12        11.3460   -1.0910    6.3720 h1        1 JDB      0.035367
     36 H13         9.2470   -0.3420    6.4960 ha        1 JDB      0.124000
     37 H14         6.7740   -0.3540    6.2660 ha        1 JDB      0.126000
     38 H15         4.7590   -0.4870    4.8560 ha        1 JDB      0.125000
     39 H16         3.7100   -0.7100    2.5800 ha        1 JDB      0.196000
     40 H17         0.2530   -0.4940   -2.1700 hn        1 JDB      0.366500
@<TRIPOS>BOND
     1    1    2 1   
     2    2    3 1   
     3    2    4 1   
     4    4    5 1   
     5    4   11 2   
     6    5    6 1   
     7    5   40 1   
     8    6    7 2   
     9    6    8 1   
    10    8    9 1   
    11    8   26 1   
    12    9   10 2   
    13    9   11 1   
    14   11   12 1   
    15   12   13 1   
    16   12   27 1   
    17   12   28 1   
    18   13   14 1   
    19   13   29 1   
    20   13   30 1   
    21   14   15 ar  
    22   14   25 ar  
    23   15   16 ar  
    24   15   31 1   
    25   16   17 ar  
    26   16   23 ar  
    27   17   18 ar  
    28   17   32 1   
    29   18   19 1   
    30   18   21 ar  
    31   19   20 1   
    32   20   33 1   
    33   20   34 1   
    34   20   35 1   
    35   21   22 ar  
    36   21   36 1   
    37   22   23 ar  
    38   22   37 1   
    39   23   24 ar  
    40   24   25 ar  
    41   24   38 1   
    42   25   39 1   
@<TRIPOS>SUBSTRUCTURE
     1 JDB         1 TEMP              0 ****  ****    0 ROOT
