@<TRIPOS>MOLECULE
JDC
   73    76     1     0     0
SMALL
bcc


@<TRIPOS>ATOM
      1 C1         -3.2070    0.9610   -1.6810 c3        1 JDC      0.198100
      2 N2         -2.2850   -0.0860   -1.2840 n3        1 JDC     -0.801200
      3 C3         -2.7360   -0.7830   -0.0850 c3        1 JDC      0.095500
      4 C4         -2.9590    0.1330    1.1280 c3        1 JDC     -0.057100
      5 C4A        -3.6760    1.3830    0.7620 ca        1 JDC     -0.106300
      6 C5         -4.2430    2.1700    1.7740 ca        1 JDC     -0.092000
      7 C6         -4.9010    3.3560    1.4740 ca        1 JDC     -0.152000
      8 C7         -4.9930    3.7620    0.1320 ca        1 JDC      0.123100
      9 O7         -5.6550    4.9450   -0.1070 oh        1 JDC     -0.497100
     10 C8         -4.4340    2.9900   -0.8920 ca        1 JDC     -0.207000
     11 C8A        -3.7750    1.8000   -0.5730 ca        1 JDC     -0.079300
     12 C1A        -1.7680   -1.9150    0.3250 c         1 JDC      0.663100
     13 O1         -1.4250   -2.0490    1.5180 o         1 JDC     -0.624100
     14 N2A        -1.4000   -2.8140   -0.6540 n         1 JDC     -0.525900
     15 C2A        -0.3860   -3.8180   -0.4190 c3        1 JDC      0.093700
     16 C3A        -0.8220   -5.2050   -0.9590 c3        1 JDC     -0.071700
     17 C3D         0.2410   -6.2470   -0.6740 c3        1 JDC     -0.090600
     18 C3B        -2.1350   -5.6350   -0.3380 c3        1 JDC     -0.090600
     19 C4D         0.9850   -3.4570   -1.0610 c3        1 JDC      0.144800
     20 N11         1.4160   -2.0880   -0.8140 n3        1 JDC     -0.729600
     21 C21         1.7980   -1.8690    0.5740 c3        1 JDC      0.154800
     22 C31         2.2780   -0.4420    0.8760 c3        1 JDC     -0.046700
     23 C34         1.1100    0.5190    0.8640 c3        1 JDC     -0.091100
     24 C41         3.4090   -0.0120   -0.0780 c3        1 JDC     -0.001700
     25 C51         2.9610   -0.2590   -1.5190 c3        1 JDC     -0.069400
     26 C61         2.4530   -1.6790   -1.7520 c3        1 JDC      0.171800
     27 C4E         4.6660   -0.8360    0.2070 c3        1 JDC     -0.089100
     28 C1C         3.7690    1.4380    0.1530 ca        1 JDC     -0.027300
     29 C2C         4.0860    1.8520    1.4530 ca        1 JDC     -0.159000
     30 C3C         4.4530    3.1840    1.6910 ca        1 JDC      0.124100
     31 O3C         4.7490    3.5120    2.9960 oh        1 JDC     -0.499100
     32 C4C         4.5110    4.1170    0.6470 ca        1 JDC     -0.216000
     33 C5C         4.1990    3.6930   -0.6420 ca        1 JDC     -0.092000
     34 C6C         3.8350    2.3710   -0.8900 ca        1 JDC     -0.167000
     35 H1         -2.6850    1.6260   -2.4260 h1        1 JDC      0.063200
     36 H2         -4.0700    0.4620   -2.2130 h1        1 JDC      0.063200
     37 H3         -1.3690    0.2980   -1.1230 hn        1 JDC      0.367800
     38 H5         -3.7230   -1.2750   -0.3420 h1        1 JDC      0.082700
     39 H6         -3.5330   -0.4380    1.9050 hc        1 JDC      0.074200
     40 H7         -1.9650    0.3950    1.5860 hc        1 JDC      0.074200
     41 H8         -4.1640    1.8400    2.8210 ha        1 JDC      0.139000
     42 H9         -5.3480    3.9780    2.2620 ha        1 JDC      0.151000
     43 H10        -5.6460    5.1040   -1.0620 ho        1 JDC      0.418000
     44 H11        -4.5100    3.3150   -1.9400 ha        1 JDC      0.133000
     45 H12        -1.5340   -2.5520   -1.6040 hn        1 JDC      0.318500
     46 H13        -0.2430   -3.9120    0.7010 h1        1 JDC      0.087700
     47 H14        -0.9580   -5.1300   -2.0740 hc        1 JDC      0.045700
     48 H15         0.5790   -6.1890    0.3890 hc        1 JDC      0.037367
     49 H16        -0.1680   -7.2710   -0.8570 hc        1 JDC      0.037367
     50 H17         1.1260   -6.1080   -1.3400 hc        1 JDC      0.037367
     51 H18        -2.0710   -5.6010    0.7760 hc        1 JDC      0.037367
     52 H19        -2.9710   -4.9710   -0.6650 hc        1 JDC      0.037367
     53 H20        -2.3820   -6.6800   -0.6480 hc        1 JDC      0.037367
     54 H21         1.7410   -4.2000   -0.6710 h1        1 JDC      0.037200
     55 H22         0.9010   -3.6040   -2.1750 h1        1 JDC      0.037200
     56 H24         0.8870   -2.0740    1.2090 h1        1 JDC      0.045700
     57 H25         2.6080   -2.5900    0.8950 h1        1 JDC      0.045700
     58 H26         2.6980   -0.4690    1.9230 hc        1 JDC      0.051700
     59 H27         0.2980    0.1390    1.5340 hc        1 JDC      0.040033
     60 H28         1.4320    1.5260    1.2260 hc        1 JDC      0.040033
     61 H29         0.6910    0.6280   -0.1650 hc        1 JDC      0.040033
     62 H30         2.1480    0.4680   -1.7810 hc        1 JDC      0.049700
     63 H31         3.8230   -0.0880   -2.2160 hc        1 JDC      0.049700
     64 H32         3.3330   -2.3890   -1.7340 h1        1 JDC      0.028200
     65 H33         2.0080   -1.7240   -2.7880 h1        1 JDC      0.028200
     66 H34         4.4710   -1.9230    0.0460 hc        1 JDC      0.038700
     67 H35         5.4940   -0.5180   -0.4710 hc        1 JDC      0.038700
     68 H36         4.9960   -0.6880    1.2640 hc        1 JDC      0.038700
     69 H37         4.0530    1.1500    2.2990 ha        1 JDC      0.151000
     70 H38         4.9750    4.4530    3.0210 ho        1 JDC      0.418000
     71 H39         4.7980    5.1590    0.8430 ha        1 JDC      0.133000
     72 H40         4.2430    4.4110   -1.4740 ha        1 JDC      0.131000
     73 H41         3.6020    2.0790   -1.9240 ha        1 JDC      0.134000
@<TRIPOS>BOND
     1    1    2 1   
     2    1   11 1   
     3    1   35 1   
     4    1   36 1   
     5    2    3 1   
     6    2   37 1   
     7    3    4 1   
     8    3   12 1   
     9    3   38 1   
    10    4    5 1   
    11    4   39 1   
    12    4   40 1   
    13    5    6 ar  
    14    5   11 ar  
    15    6    7 ar  
    16    6   41 1   
    17    7    8 ar  
    18    7   42 1   
    19    8    9 1   
    20    8   10 ar  
    21    9   43 1   
    22   10   11 ar  
    23   10   44 1   
    24   12   13 2   
    25   12   14 1   
    26   14   15 1   
    27   14   45 1   
    28   15   16 1   
    29   15   19 1   
    30   15   46 1   
    31   16   17 1   
    32   16   18 1   
    33   16   47 1   
    34   17   48 1   
    35   17   49 1   
    36   17   50 1   
    37   18   51 1   
    38   18   52 1   
    39   18   53 1   
    40   19   20 1   
    41   19   54 1   
    42   19   55 1   
    43   20   21 1   
    44   20   26 1   
    45   21   22 1   
    46   21   56 1   
    47   21   57 1   
    48   22   23 1   
    49   22   24 1   
    50   22   58 1   
    51   23   59 1   
    52   23   60 1   
    53   23   61 1   
    54   24   25 1   
    55   24   27 1   
    56   24   28 1   
    57   25   26 1   
    58   25   62 1   
    59   25   63 1   
    60   26   64 1   
    61   26   65 1   
    62   27   66 1   
    63   27   67 1   
    64   27   68 1   
    65   28   29 ar  
    66   28   34 ar  
    67   29   30 ar  
    68   29   69 1   
    69   30   31 1   
    70   30   32 ar  
    71   31   70 1   
    72   32   33 ar  
    73   32   71 1   
    74   33   34 ar  
    75   33   72 1   
    76   34   73 1   
@<TRIPOS>SUBSTRUCTURE
     1 JDC         1 TEMP              0 ****  ****    0 ROOT
