@<TRIPOS>MOLECULE
JDC
   74    77     1     0     0
SMALL
bcc


@<TRIPOS>ATOM
      1 C1          0.7460   -0.2670    3.0780 c3        1 JDC      0.205100
      2 N2          1.8270    0.7000    3.1720 n3        1 JDC     -0.854200
      3 C3          2.5350    0.9760    1.9390 c3        1 JDC      0.121500
      4 C4          2.0200    0.2660    0.6660 c3        1 JDC     -0.037100
      5 C4A         0.5390    0.1900    0.6540 ca        1 JDC     -0.144300
      6 C5         -0.2030    0.3640   -0.5140 ca        1 JDC     -0.062000
      7 C6         -1.5900    0.2280   -0.4870 ca        1 JDC     -0.200000
      8 C7         -2.2320   -0.0780    0.7220 ca        1 JDC      0.151100
      9 O7         -3.5890   -0.2310    0.8300 oh        1 JDC     -0.482100
     10 C8         -1.4960   -0.2430    1.9130 ca        1 JDC     -0.136000
     11 C8A        -0.1160   -0.1080    1.8630 ca        1 JDC     -0.093300
     12 C1A         4.0330    0.6150    2.0400 c         1 JDC      0.531100
     13 O1          4.8980    1.0630    1.3030 o         1 JDC     -0.430100
     14 N2A         4.4260   -0.3830    3.0920 n4        1 JDC     -0.656800
     15 C2A         5.8830   -0.7580    3.1310 c3        1 JDC      0.114500
     16 C3A         6.6700    0.0850    4.1550 c3        1 JDC     -0.079700
     17 C3D         8.1410   -0.2830    4.0890 c3        1 JDC     -0.108100
     18 C3B         6.5030    1.5690    3.9010 c3        1 JDC     -0.108100
     19 C4D         6.0630   -2.2700    3.4610 c3        1 JDC      0.147800
     20 N11         5.0870   -3.1070    2.7880 n3        1 JDC     -0.782600
     21 C21         5.4810   -3.4590    1.4300 c3        1 JDC      0.164800
     22 C31         4.4230   -4.2770    0.6760 c3        1 JDC     -0.054700
     23 C34         3.2400   -3.4050    0.3170 c3        1 JDC     -0.091100
     24 C41         4.0180   -5.5350    1.4700 c3        1 JDC      0.004300
     25 C51         3.6270   -5.1230    2.8890 c3        1 JDC     -0.073400
     26 C61         4.6850   -4.2650    3.5790 c3        1 JDC      0.171800
     27 C4E         5.1970   -6.5070    1.5310 c3        1 JDC     -0.093100
     28 C1C         2.8880   -6.2540    0.7690 ca        1 JDC     -0.045300
     29 C2C         3.0360   -6.5750   -0.5860 ca        1 JDC     -0.165000
     30 C3C         2.0190   -7.2730   -1.2530 ca        1 JDC      0.133100
     31 O3C         2.2380   -7.5370   -2.5840 oh        1 JDC     -0.495100
     32 C4C         0.8510   -7.6640   -0.5820 ca        1 JDC     -0.206000
     33 C5C         0.7190   -7.3460    0.7660 ca        1 JDC     -0.084000
     34 C6C         1.7230   -6.6490    1.4380 ca        1 JDC     -0.169000
     35 H1          0.1270   -0.1910    4.0180 h1        1 JDC      0.072200
     36 H2          1.2120   -1.2960    3.0500 h1        1 JDC      0.072200
     37 H3          1.4940    1.5600    3.5720 hn        1 JDC      0.400800
     38 H5          2.5420    2.0930    1.7330 h1        1 JDC      0.110700
     39 H6          2.4320   -0.7810    0.6230 hc        1 JDC      0.074200
     40 H7          2.4060    0.8230   -0.2280 hc        1 JDC      0.074200
     41 H8          0.3030    0.6040   -1.4620 ha        1 JDC      0.146000
     42 H9         -2.1770    0.3610   -1.4080 ha        1 JDC      0.152000
     43 H10        -3.9850   -0.0900   -0.0450 ho        1 JDC      0.434000
     44 H11        -2.0240   -0.4750    2.8490 ha        1 JDC      0.163000
     45 H12         4.1540   -0.0040    4.0080 hn        1 JDC      0.475800
     46 H13         6.3010   -0.5600    2.0970 hx        1 JDC      0.118700
     47 H14         6.2900   -0.1530    5.1900 hc        1 JDC      0.063700
     48 H15         8.7330    0.4240    4.7210 hc        1 JDC      0.055533
     49 H16         8.5210   -0.2200    3.0410 hc        1 JDC      0.055533
     50 H17         8.3130   -1.3160    4.4770 hc        1 JDC      0.055533
     51 H18         6.7230    1.8150    2.8330 hc        1 JDC      0.055533
     52 H19         7.2100    2.1470    4.5470 hc        1 JDC      0.055533
     53 H20         5.4680    1.9130    4.1420 hc        1 JDC      0.055533
     54 H21         5.9770   -2.4020    4.5770 h1        1 JDC      0.073200
     55 H22         7.1240   -2.5230    3.1660 h1        1 JDC      0.073200
     56 H24         5.6580   -2.4970    0.8690 h1        1 JDC      0.039700
     57 H25         6.4520   -4.0360    1.4240 h1        1 JDC      0.039700
     58 H26         4.9130   -4.6130   -0.2830 hc        1 JDC      0.070700
     59 H27         2.4950   -3.9910   -0.2760 hc        1 JDC      0.037700
     60 H28         3.5770   -2.5380   -0.3020 hc        1 JDC      0.037700
     61 H29         2.7310   -3.0140    1.2320 hc        1 JDC      0.037700
     62 H30         3.4770   -6.0400    3.5190 hc        1 JDC      0.059700
     63 H31         2.6580   -4.5590    2.8560 hc        1 JDC      0.059700
     64 H32         4.2540   -3.8850    4.5490 h1        1 JDC      0.042200
     65 H33         5.5750   -4.9120    3.8340 h1        1 JDC      0.042200
     66 H34         6.0670   -6.0500    2.0580 hc        1 JDC      0.045367
     67 H35         4.8980   -7.4330    2.0790 hc        1 JDC      0.045367
     68 H36         5.5160   -6.7950    0.5000 hc        1 JDC      0.045367
     69 H37         3.9420   -6.3000   -1.1450 ha        1 JDC      0.149000
     70 H38         1.4950   -8.0660   -2.9120 ho        1 JDC      0.427000
     71 H39         0.0610   -8.2150   -1.1110 ha        1 JDC      0.144000
     72 H40        -0.1890   -7.6520    1.3100 ha        1 JDC      0.140000
     73 H41         1.5780   -6.4310    2.5060 ha        1 JDC      0.131000
     74 H2A2        3.8640   -1.2360    2.9200 hn        1 JDC      0.475800
@<TRIPOS>BOND
     1    1    2 1   
     2    1   11 1   
     3    1   35 1   
     4    1   36 1   
     5    2    3 1   
     6    2   37 1   
     7    3    4 1   
     8    3   12 1   
     9    3   38 1   
    10    4    5 1   
    11    4   39 1   
    12    4   40 1   
    13    5    6 ar  
    14    5   11 ar  
    15    6    7 ar  
    16    6   41 1   
    17    7    8 ar  
    18    7   42 1   
    19    8    9 1   
    20    8   10 ar  
    21    9   43 1   
    22   10   11 ar  
    23   10   44 1   
    24   12   13 2   
    25   12   14 1   
    26   14   15 1   
    27   14   45 1   
    28   14   74 1   
    29   15   16 1   
    30   15   19 1   
    31   15   46 1   
    32   16   17 1   
    33   16   18 1   
    34   16   47 1   
    35   17   48 1   
    36   17   49 1   
    37   17   50 1   
    38   18   51 1   
    39   18   52 1   
    40   18   53 1   
    41   19   20 1   
    42   19   54 1   
    43   19   55 1   
    44   20   21 1   
    45   20   26 1   
    46   21   22 1   
    47   21   56 1   
    48   21   57 1   
    49   22   23 1   
    50   22   24 1   
    51   22   58 1   
    52   23   59 1   
    53   23   60 1   
    54   23   61 1   
    55   24   25 1   
    56   24   27 1   
    57   24   28 1   
    58   25   26 1   
    59   25   62 1   
    60   25   63 1   
    61   26   64 1   
    62   26   65 1   
    63   27   66 1   
    64   27   67 1   
    65   27   68 1   
    66   28   29 ar  
    67   28   34 ar  
    68   29   30 ar  
    69   29   69 1   
    70   30   31 1   
    71   30   32 ar  
    72   31   70 1   
    73   32   33 ar  
    74   32   71 1   
    75   33   34 ar  
    76   33   72 1   
    77   34   73 1   
@<TRIPOS>SUBSTRUCTURE
     1 JDC         1 TEMP              0 ****  ****    0 ROOT
