@<TRIPOS>MOLECULE
JDC
   74    77     1     0     0
SMALL
bcc


@<TRIPOS>ATOM
      1 C1          0.7360   -0.2380    3.0110 c3        1 JDC      0.205100
      2 N2          1.8210    0.7220    3.1330 n7        1 JDC     -0.854200
      3 C3          2.5590    0.9950    1.9170 c3        1 JDC      0.121500
      4 C4          2.0700    0.2920    0.6300 c3        1 JDC     -0.037100
      5 C4A         0.5890    0.2250    0.5840 ca        1 JDC     -0.144300
      6 C5         -0.1240    0.4050   -0.6010 ca        1 JDC     -0.062000
      7 C6         -1.5120    0.2780   -0.6070 ca        1 JDC     -0.200000
      8 C7         -2.1840   -0.0270    0.5860 ca        1 JDC      0.151100
      9 O7         -3.5450   -0.1710    0.6610 oh        1 JDC     -0.482100
     10 C8         -1.4780   -0.1980    1.7930 ca        1 JDC     -0.136000
     11 C8A        -0.0960   -0.0720    1.7760 ca        1 JDC     -0.093300
     12 C1A         4.0520    0.6250    2.0530 c         1 JDC      0.531100
     13 O1          4.9380    1.0690    1.3380 o         1 JDC     -0.430100
     14 N2A         4.4140   -0.3790    3.1100 ny        1 JDC     -0.656800
     15 C2A         5.8670   -0.7630    3.1830 c3        1 JDC      0.114500
     16 C3A         6.6340    0.0710    4.2290 c3        1 JDC     -0.079700
     17 C3D         8.1030   -0.3060    4.1970 c3        1 JDC     -0.108100
     18 C3B         6.4820    1.5570    3.9760 c3        1 JDC     -0.108100
     19 C4D         6.0300   -2.2770    3.5120 c3        1 JDC      0.147800
     20 N11         5.0660   -3.1070    2.8120 n3        1 JDC     -0.782600
     21 C21         5.4910   -3.4550    1.4620 c3        1 JDC      0.164800
     22 C31         4.4470   -4.2640    0.6800 c3        1 JDC     -0.054700
     23 C34         3.2770   -3.3840    0.2950 c3        1 JDC     -0.091100
     24 C41         4.0160   -5.5230    1.4580 c3        1 JDC      0.004300
     25 C51         3.5920   -5.1140    2.8690 c3        1 JDC     -0.073400
     26 C61         4.6380   -4.2650    3.5880 c3        1 JDC      0.171800
     27 C4E         5.1880   -6.5030    1.5440 c3        1 JDC     -0.093100
     28 C1C         2.8990   -6.2330    0.7280 ca        1 JDC     -0.045300
     29 C2C         3.0790   -6.5500   -0.6240 ca        1 JDC     -0.165000
     30 C3C         2.0740   -7.2390   -1.3190 ca        1 JDC      0.133100
     31 O3C         2.3240   -7.5000   -2.6460 oh        1 JDC     -0.495100
     32 C4C         0.8870   -7.6260   -0.6790 ca        1 JDC     -0.206000
     33 C5C         0.7240   -7.3120    0.6670 ca        1 JDC     -0.084000
     34 C6C         1.7160   -6.6240    1.3660 ca        1 JDC     -0.169000
     35 H1          0.0960   -0.1600    3.9360 h1        1 JDC      0.072200
     36 H2          1.1960   -1.2700    2.9920 h1        1 JDC      0.072200
     37 H3          1.4840    1.5830    3.5260 hn        1 JDC      0.400800
     38 H5          2.5780    2.1130    1.7140 h1        1 JDC      0.110700
     39 H6          2.4810    0.8480   -0.2530 hc        1 JDC      0.074200
     40 H7          2.4770   -0.7580    0.5950 hc        1 JDC      0.074200
     41 H8          0.4060    0.6440   -1.5370 ha        1 JDC      0.146000
     42 H9         -2.0760    0.4160   -1.5420 ha        1 JDC      0.152000
     43 H10        -3.9180   -0.0260   -0.2220 ho        1 JDC      0.434000
     44 H11        -2.0290   -0.4280    2.7160 ha        1 JDC      0.163000
     45 H12         4.1220   -0.0020    4.0200 hn        1 JDC      0.475800
     46 H13         6.3110   -0.5650    2.1600 hx        1 JDC      0.118700
     47 H14         6.2280   -0.1680    5.2530 hc        1 JDC      0.063700
     48 H15         8.2600   -1.3410    4.5860 hc        1 JDC      0.055533
     49 H16         8.6840    0.3960    4.8460 hc        1 JDC      0.055533
     50 H17         8.5090   -0.2410    3.1590 hc        1 JDC      0.055533
     51 H18         6.7290    1.8060    2.9140 hc        1 JDC      0.055533
     52 H19         5.4440    1.9070    4.1930 hc        1 JDC      0.055533
     53 H20         7.1760    2.1280    4.6410 hc        1 JDC      0.055533
     54 H21         5.9150   -2.4130    4.6250 h1        1 JDC      0.073200
     55 H22         7.0960   -2.5360    3.2410 h1        1 JDC      0.073200
     56 H24         6.4590   -4.0380    1.4780 h1        1 JDC      0.039700
     57 H25         5.6870   -2.4930    0.9090 h1        1 JDC      0.039700
     58 H26         4.9580   -4.6000   -0.2680 hc        1 JDC      0.070700
     59 H27         2.7490   -2.9950    1.1980 hc        1 JDC      0.037700
     60 H28         3.6350   -2.5170   -0.3120 hc        1 JDC      0.037700
     61 H29         2.5450   -3.9640   -0.3190 hc        1 JDC      0.037700
     62 H30         2.6270   -4.5450    2.8140 hc        1 JDC      0.059700
     63 H31         3.4220   -6.0320    3.4920 hc        1 JDC      0.059700
     64 H32         5.5170   -4.9180    3.8620 h1        1 JDC      0.042200
     65 H33         4.1850   -3.8860    4.5490 h1        1 JDC      0.042200
     66 H34         5.5300   -6.7880    0.5200 hc        1 JDC      0.045367
     67 H35         4.8690   -7.4290    2.0810 hc        1 JDC      0.045367
     68 H36         6.0470   -6.0520    2.0950 hc        1 JDC      0.045367
     69 H37         3.9990   -6.2780   -1.1600 ha        1 JDC      0.149000
     70 H38         1.5870   -8.0240   -2.9940 ho        1 JDC      0.427000
     71 H39         0.1080   -8.1710   -1.2290 ha        1 JDC      0.144000
     72 H40        -0.1980   -7.6150    1.1870 ha        1 JDC      0.140000
     73 H41         1.5460   -6.4090    2.4310 ha        1 JDC      0.131000
     74 H2A2        3.8500   -1.2280    2.9220 hn        1 JDC      0.475800
@<TRIPOS>BOND
     1    1    2 1   
     2    1   11 1   
     3    1   35 1   
     4    1   36 1   
     5    2    3 1   
     6    2   37 1   
     7    3    4 1   
     8    3   12 1   
     9    3   38 1   
    10    4    5 1   
    11    4   39 1   
    12    4   40 1   
    13    5    6 ar  
    14    5   11 ar  
    15    6    7 ar  
    16    6   41 1   
    17    7    8 ar  
    18    7   42 1   
    19    8    9 1   
    20    8   10 ar  
    21    9   43 1   
    22   10   11 ar  
    23   10   44 1   
    24   12   13 2   
    25   12   14 1   
    26   14   15 1   
    27   14   45 1   
    28   14   74 1   
    29   15   16 1   
    30   15   19 1   
    31   15   46 1   
    32   16   17 1   
    33   16   18 1   
    34   16   47 1   
    35   17   48 1   
    36   17   49 1   
    37   17   50 1   
    38   18   51 1   
    39   18   52 1   
    40   18   53 1   
    41   19   20 1   
    42   19   54 1   
    43   19   55 1   
    44   20   21 1   
    45   20   26 1   
    46   21   22 1   
    47   21   56 1   
    48   21   57 1   
    49   22   23 1   
    50   22   24 1   
    51   22   58 1   
    52   23   59 1   
    53   23   60 1   
    54   23   61 1   
    55   24   25 1   
    56   24   27 1   
    57   24   28 1   
    58   25   26 1   
    59   25   62 1   
    60   25   63 1   
    61   26   64 1   
    62   26   65 1   
    63   27   66 1   
    64   27   67 1   
    65   27   68 1   
    66   28   29 ar  
    67   28   34 ar  
    68   29   30 ar  
    69   29   69 1   
    70   30   31 1   
    71   30   32 ar  
    72   31   70 1   
    73   32   33 ar  
    74   32   71 1   
    75   33   34 ar  
    76   33   72 1   
    77   34   73 1   
@<TRIPOS>SUBSTRUCTURE
     1 JDC         1 TEMP              0 ****  ****    0 ROOT
