@<TRIPOS>MOLECULE
JDC
   74    77     1     0     0
SMALL
bcc


@<TRIPOS>ATOM
      1 C1          0.7470   -0.2690    3.0930 c3        1 JDC      0.205100
      2 N2          1.8300    0.6940    3.2110 n3        1 JDC     -0.854200
      3 C3          2.5470    0.9890    1.9870 c3        1 JDC      0.121500
      4 C4          2.0390    0.3030    0.6980 c3        1 JDC     -0.037100
      5 C4A         0.5570    0.2310    0.6760 ca        1 JDC     -0.144300
      6 C5         -0.1760    0.4260   -0.4950 ca        1 JDC     -0.062000
      7 C6         -1.5630    0.2940   -0.4790 ca        1 JDC     -0.200000
      8 C7         -2.2140   -0.0320    0.7200 ca        1 JDC      0.151100
      9 O7         -3.5730   -0.1830    0.8160 oh        1 JDC     -0.482100
     10 C8         -1.4870   -0.2190    1.9130 ca        1 JDC     -0.136000
     11 C8A        -0.1060   -0.0860    1.8740 ca        1 JDC     -0.093300
     12 C1A         4.0430    0.6240    2.0920 c         1 JDC      0.531100
     13 O1          4.9150    1.0850    1.3710 o         1 JDC     -0.430100
     14 N2A         4.4260   -0.3960    3.1270 n4        1 JDC     -0.656800
     15 C2A         5.8820   -0.7740    3.1690 c3        1 JDC      0.114500
     16 C3A         6.6620    0.0460    4.2170 c3        1 JDC     -0.079700
     17 C3D         8.1330   -0.3230    4.1560 c3        1 JDC     -0.108100
     18 C3B         6.4990    1.5350    3.9920 c3        1 JDC     -0.108100
     19 C4D         6.0580   -2.2930    3.4700 c3        1 JDC      0.147800
     20 N11         5.0870   -3.1150    2.7700 n3        1 JDC     -0.782600
     21 C21         5.4930   -3.4380    1.4080 c3        1 JDC      0.164800
     22 C31         4.4420   -4.2390    0.6280 c3        1 JDC     -0.054700
     23 C34         3.2610   -3.3590    0.2770 c3        1 JDC     -0.091100
     24 C41         4.0290   -5.5130    1.3900 c3        1 JDC      0.004300
     25 C51         3.6260   -5.1320    2.8150 c3        1 JDC     -0.073400
     26 C61         4.6780   -4.2890    3.5320 c3        1 JDC      0.171800
     27 C4E         5.2080   -6.4870    1.4410 c3        1 JDC     -0.093100
     28 C1C         2.9050   -6.2170    0.6650 ca        1 JDC     -0.045300
     29 C2C         3.0660   -6.5090   -0.6950 ca        1 JDC     -0.165000
     30 C3C         2.0540   -7.1920   -1.3870 ca        1 JDC      0.133100
     31 O3C         2.2850   -7.4280   -2.7210 oh        1 JDC     -0.495100
     32 C4C         0.8800   -7.5970   -0.7350 ca        1 JDC     -0.206000
     33 C5C         0.7360   -7.3080    0.6180 ca        1 JDC     -0.084000
     34 C6C         1.7350   -6.6260    1.3150 ca        1 JDC     -0.169000
     35 H1          1.2110   -1.2980    3.0500 h1        1 JDC      0.072200
     36 H2          0.1220   -0.2070    4.0290 h1        1 JDC      0.072200
     37 H3          1.4970    1.5470    3.6240 hn        1 JDC      0.400800
     38 H5          2.5570    2.1100    1.8010 h1        1 JDC      0.110700
     39 H6          2.4490   -0.7440    0.6400 hc        1 JDC      0.074200
     40 H7          2.4320    0.8750   -0.1830 hc        1 JDC      0.074200
     41 H8          0.3370    0.6810   -1.4350 ha        1 JDC      0.146000
     42 H9         -2.1440    0.4440   -1.4020 ha        1 JDC      0.152000
     43 H10        -3.9620   -0.0260   -0.0590 ho        1 JDC      0.434000
     44 H11        -2.0220   -0.4650    2.8410 ha        1 JDC      0.163000
     45 H12         3.8640   -1.2450    2.9320 hn        1 JDC      0.475800
     46 H13         6.3090   -0.5560    2.1430 hx        1 JDC      0.118700
     47 H14         6.2730   -0.2130    5.2440 hc        1 JDC      0.063700
     48 H15         8.7210    0.3710    4.8070 hc        1 JDC      0.055533
     49 H16         8.3000   -1.3640    4.5240 hc        1 JDC      0.055533
     50 H17         8.5210   -0.2380    3.1130 hc        1 JDC      0.055533
     51 H18         5.4630    1.8760    4.2320 hc        1 JDC      0.055533
     52 H19         7.2010    2.0990    4.6560 hc        1 JDC      0.055533
     53 H20         6.7280    1.8030    2.9310 hc        1 JDC      0.055533
     54 H21         7.1210   -2.5410    3.1780 h1        1 JDC      0.073200
     55 H22         5.9610   -2.4490    4.5810 h1        1 JDC      0.073200
     56 H24         5.6750   -2.4640    0.8690 h1        1 JDC      0.039700
     57 H25         6.4640   -4.0150    1.3980 h1        1 JDC      0.039700
     58 H26         4.9400   -4.5550   -0.3340 hc        1 JDC      0.070700
     59 H27         2.5220   -3.9320   -0.3360 hc        1 JDC      0.037700
     60 H28         3.6040   -2.4780   -0.3200 hc        1 JDC      0.037700
     61 H29         2.7440   -2.9890    1.1950 hc        1 JDC      0.037700
     62 H30         2.6570   -4.5670    2.7850 hc        1 JDC      0.059700
     63 H31         3.4700   -6.0620    3.4230 hc        1 JDC      0.059700
     64 H32         5.5650   -4.9420    3.7810 h1        1 JDC      0.042200
     65 H33         4.2380   -3.9290    4.5060 h1        1 JDC      0.042200
     66 H34         6.0730   -6.0410    1.9860 hc        1 JDC      0.045367
     67 H35         5.5360   -6.7530    0.4070 hc        1 JDC      0.045367
     68 H36         4.9040   -7.4250    1.9660 hc        1 JDC      0.045367
     69 H37         3.9770   -6.2230   -1.2400 ha        1 JDC      0.149000
     70 H38         1.5460   -7.9500   -3.0670 ho        1 JDC      0.427000
     71 H39         0.0950   -8.1370   -1.2820 ha        1 JDC      0.144000
     72 H40        -0.1760   -7.6260    1.1470 ha        1 JDC      0.140000
     73 H41         1.5800   -6.4310    2.3850 ha        1 JDC      0.131000
     74 H2A2        4.1470   -0.0360    4.0470 hn        1 JDC      0.475800
@<TRIPOS>BOND
     1    1    2 1   
     2    1   11 1   
     3    1   35 1   
     4    1   36 1   
     5    2    3 1   
     6    2   37 1   
     7    3    4 1   
     8    3   12 1   
     9    3   38 1   
    10    4    5 1   
    11    4   39 1   
    12    4   40 1   
    13    5    6 ar  
    14    5   11 ar  
    15    6    7 ar  
    16    6   41 1   
    17    7    8 ar  
    18    7   42 1   
    19    8    9 1   
    20    8   10 ar  
    21    9   43 1   
    22   10   11 ar  
    23   10   44 1   
    24   12   13 2   
    25   12   14 1   
    26   14   15 1   
    27   14   45 1   
    28   14   74 1   
    29   15   16 1   
    30   15   19 1   
    31   15   46 1   
    32   16   17 1   
    33   16   18 1   
    34   16   47 1   
    35   17   48 1   
    36   17   49 1   
    37   17   50 1   
    38   18   51 1   
    39   18   52 1   
    40   18   53 1   
    41   19   20 1   
    42   19   54 1   
    43   19   55 1   
    44   20   21 1   
    45   20   26 1   
    46   21   22 1   
    47   21   56 1   
    48   21   57 1   
    49   22   23 1   
    50   22   24 1   
    51   22   58 1   
    52   23   59 1   
    53   23   60 1   
    54   23   61 1   
    55   24   25 1   
    56   24   27 1   
    57   24   28 1   
    58   25   26 1   
    59   25   62 1   
    60   25   63 1   
    61   26   64 1   
    62   26   65 1   
    63   27   66 1   
    64   27   67 1   
    65   27   68 1   
    66   28   29 ar  
    67   28   34 ar  
    68   29   30 ar  
    69   29   69 1   
    70   30   31 1   
    71   30   32 ar  
    72   31   70 1   
    73   32   33 ar  
    74   32   71 1   
    75   33   34 ar  
    76   33   72 1   
    77   34   73 1   
@<TRIPOS>SUBSTRUCTURE
     1 JDC         1 TEMP              0 ****  ****    0 ROOT
