@<TRIPOS>MOLECULE
JDM
   34    35     1     0     0
SMALL
bcc


@<TRIPOS>ATOM
      1 OAJ        -0.0300   -0.5770   -0.2580 o         1 JDM     -0.789800
      2 CAI         1.0810   -0.0180   -0.0760 c         1 JDM      0.920800
      3 OAK         1.4860    0.5260    0.9780 o         1 JDM     -0.789800
      4 C4          2.0340    0.0190   -1.3120 cc        1 JDM      0.047400
      5 N3          1.4060    0.1590   -2.5390 ns        1 JDM     -0.435100
      6 C2          2.1190    0.1600   -3.7450 c         1 JDM      0.790500
      7 O2          1.5340    0.2510   -4.8530 o         1 JDM     -0.694500
      8 N1          3.5180    0.0740   -3.6820 ns        1 JDM     -0.590500
      9 C6          4.2110   -0.0540   -2.4620 c         1 JDM      0.716700
     10 O6          5.4570   -0.1320   -2.5180 o         1 JDM     -0.676500
     11 C5          3.4020   -0.0850   -1.2390 cd        1 JDM     -0.297400
     12 CAL         4.1390   -0.2320    0.0390 c3        1 JDM      0.011800
     13 CAM         4.5430    1.1250    0.6010 c3        1 JDM     -0.051100
     14 CAN         5.4960    0.9770    1.7350 ca        1 JDM     -0.047300
     15 CAO         4.9850    0.8550    3.0350 ca        1 JDM     -0.124000
     16 CAP         5.8410    0.7200    4.1250 ca        1 JDM     -0.139000
     17 CAQ         7.2220    0.7060    3.9280 ca        1 JDM     -0.151000
     18 CAR         7.7390    0.8230    2.6410 ca        1 JDM     -0.133000
     19 CAS         6.8870    0.9520    1.5380 ca        1 JDM     -0.126300
     20 CAT         7.4580    1.0810    0.1610 c3        1 JDM      0.157700
     21 OAU         8.8150    0.6720    0.0840 oh        1 JDM     -0.609800
     22 H2          0.4080    0.1160   -2.5720 hn        1 JDM      0.367500
     23 H3          4.0190    0.0930   -4.5400 hn        1 JDM      0.331500
     24 H4          5.0540   -0.8600   -0.1330 hc        1 JDM      0.056700
     25 H5          3.4860   -0.7510    0.7930 hc        1 JDM      0.056700
     26 H6          5.0010    1.7500   -0.2100 hc        1 JDM      0.066200
     27 H7          3.6050    1.6440    0.9480 hc        1 JDM      0.066200
     28 H8          3.8920    0.8610    3.1800 ha        1 JDM      0.157000
     29 H9          5.4280    0.6230    5.1390 ha        1 JDM      0.120000
     30 H10         7.9010    0.6040    4.7860 ha        1 JDM      0.115000
     31 H11         8.8280    0.8200    2.4790 ha        1 JDM      0.130000
     32 H12         6.8410    0.5000   -0.5830 h1        1 JDM      0.073200
     33 H13         7.4780    2.1640   -0.1440 h1        1 JDM      0.073200
     34 H14         8.8310   -0.2730    0.2740 ho        1 JDM      0.395000
@<TRIPOS>BOND
     1    1    2 1   
     2    2    3 1   
     3    2    4 1   
     4    4    5 1   
     5    4   11 2   
     6    5    6 1   
     7    5   22 1   
     8    6    7 2   
     9    6    8 1   
    10    8    9 1   
    11    8   23 1   
    12    9   10 2   
    13    9   11 1   
    14   11   12 1   
    15   12   13 1   
    16   12   24 1   
    17   12   25 1   
    18   13   14 1   
    19   13   26 1   
    20   13   27 1   
    21   14   15 ar  
    22   14   19 ar  
    23   15   16 ar  
    24   15   28 1   
    25   16   17 ar  
    26   16   29 1   
    27   17   18 ar  
    28   17   30 1   
    29   18   19 ar  
    30   18   31 1   
    31   19   20 1   
    32   20   21 1   
    33   20   32 1   
    34   20   33 1   
    35   21   34 1   
@<TRIPOS>SUBSTRUCTURE
     1 JDM         1 TEMP              0 ****  ****    0 ROOT
