@<TRIPOS>MOLECULE
JDM
   34    35     1     0     0
SMALL
bcc


@<TRIPOS>ATOM
      1 OAJ        -0.0210   -0.6130   -0.2780 o         1 JDM     -0.789800
      2 CAI         1.0850   -0.0460   -0.0860 c         1 JDM      0.920800
      3 OAK         1.4850    0.4840    0.9770 o         1 JDM     -0.789800
      4 C4          2.0390    0.0200   -1.3200 cc        1 JDM      0.047400
      5 N3          1.4100    0.1750   -2.5460 n         1 JDM     -0.435100
      6 C2          2.1230    0.2020   -3.7510 c         1 JDM      0.790500
      7 O2          1.5380    0.3060   -4.8570 o         1 JDM     -0.694500
      8 N1          3.5230    0.1270   -3.6880 n         1 JDM     -0.590500
      9 C6          4.2170   -0.0150   -2.4700 c         1 JDM      0.716700
     10 O6          5.4630   -0.0810   -2.5270 o         1 JDM     -0.676500
     11 C5          3.4070   -0.0730   -1.2490 cd        1 JDM     -0.297400
     12 CAL         4.1450   -0.2350    0.0270 c3        1 JDM      0.011800
     13 CAM         4.5370    1.1160    0.6120 c3        1 JDM     -0.051100
     14 CAN         5.4900    0.9570    1.7440 ca        1 JDM     -0.047300
     15 CAO         4.9800    0.8100    3.0420 ca        1 JDM     -0.124000
     16 CAP         5.8370    0.6640    4.1290 ca        1 JDM     -0.139000
     17 CAQ         7.2180    0.6660    3.9330 ca        1 JDM     -0.151000
     18 CAR         7.7340    0.8090    2.6480 ca        1 JDM     -0.133000
     19 CAS         6.8810    0.9480    1.5470 ca        1 JDM     -0.126300
     20 CAT         7.4530    1.1060    0.1730 c3        1 JDM      0.157700
     21 OAU         8.8120    0.7100    0.0910 oh        1 JDM     -0.609800
     22 H2          0.4120    0.1230   -2.5800 hn        1 JDM      0.367500
     23 H3          4.0240    0.1650   -4.5460 hn        1 JDM      0.331500
     24 H4          3.4970   -0.7720    0.7720 hc        1 JDM      0.056700
     25 H5          5.0660   -0.8520   -0.1550 hc        1 JDM      0.056700
     26 H6          4.9900    1.7590   -0.1880 hc        1 JDM      0.066200
     27 H7          3.5940    1.6210    0.9670 hc        1 JDM      0.066200
     28 H8          3.8870    0.8030    3.1860 ha        1 JDM      0.157000
     29 H9          5.4240    0.5470    5.1410 ha        1 JDM      0.120000
     30 H10         7.8970    0.5560    4.7900 ha        1 JDM      0.115000
     31 H11         8.8230    0.8180    2.4880 ha        1 JDM      0.130000
     32 H12         6.8410    0.5320   -0.5810 h1        1 JDM      0.073200
     33 H13         7.4630    2.1940   -0.1140 h1        1 JDM      0.073200
     34 H14         8.8370   -0.2380    0.2650 ho        1 JDM      0.395000
@<TRIPOS>BOND
     1    1    2 1   
     2    2    3 1   
     3    2    4 1   
     4    4    5 1   
     5    4   11 2   
     6    5    6 1   
     7    5   22 1   
     8    6    7 2   
     9    6    8 1   
    10    8    9 1   
    11    8   23 1   
    12    9   10 2   
    13    9   11 1   
    14   11   12 1   
    15   12   13 1   
    16   12   24 1   
    17   12   25 1   
    18   13   14 1   
    19   13   26 1   
    20   13   27 1   
    21   14   15 ar  
    22   14   19 ar  
    23   15   16 ar  
    24   15   28 1   
    25   16   17 ar  
    26   16   29 1   
    27   17   18 ar  
    28   17   30 1   
    29   18   19 ar  
    30   18   31 1   
    31   19   20 1   
    32   20   21 1   
    33   20   32 1   
    34   20   33 1   
    35   21   34 1   
@<TRIPOS>SUBSTRUCTURE
     1 JDM         1 TEMP              0 ****  ****    0 ROOT
