@<TRIPOS>MOLECULE
JDM
   34    35     1     0     0
SMALL
bcc


@<TRIPOS>ATOM
      1 OAJ        -0.0220   -0.6140   -0.2650 o         1 JDM     -0.789800
      2 CAI         1.0850   -0.0460   -0.0780 c         1 JDM      0.920800
      3 OAK         1.4860    0.4920    0.9810 o         1 JDM     -0.789800
      4 C4          2.0370    0.0100   -1.3140 cc        1 JDM      0.047400
      5 N3          1.4070    0.1550   -2.5400 n         1 JDM     -0.435100
      6 C2          2.1190    0.1730   -3.7460 c         1 JDM      0.790500
      7 O2          1.5320    0.2700   -4.8520 o         1 JDM     -0.694500
      8 N1          3.5190    0.0990   -3.6840 n         1 JDM     -0.590500
      9 C6          4.2140   -0.0350   -2.4660 c         1 JDM      0.716700
     10 O6          5.4600   -0.1020   -2.5230 o         1 JDM     -0.676500
     11 C5          3.4050   -0.0840   -1.2430 cd        1 JDM     -0.297400
     12 CAL         4.1450   -0.2360    0.0330 c3        1 JDM      0.011800
     13 CAM         4.5370    1.1190    0.6070 c3        1 JDM     -0.051100
     14 CAN         5.4920    0.9690    1.7390 ca        1 JDM     -0.047300
     15 CAO         4.9840    0.8320    3.0390 ca        1 JDM     -0.124000
     16 CAP         5.8410    0.6940    4.1260 ca        1 JDM     -0.139000
     17 CAQ         7.2220    0.6940    3.9290 ca        1 JDM     -0.151000
     18 CAR         7.7370    0.8260    2.6420 ca        1 JDM     -0.133000
     19 CAS         6.8830    0.9580    1.5410 ca        1 JDM     -0.126300
     20 CAT         7.4530    1.1040    0.1650 c3        1 JDM      0.157700
     21 OAU         8.8120    0.7070    0.0840 oh        1 JDM     -0.609800
     22 H2          0.4090    0.1040   -2.5720 hn        1 JDM      0.367500
     23 H3          4.0190    0.1290   -4.5430 hn        1 JDM      0.331500
     24 H4          5.0650   -0.8540   -0.1450 hc        1 JDM      0.056700
     25 H5          3.4970   -0.7670    0.7830 hc        1 JDM      0.056700
     26 H6          4.9900    1.7560   -0.1990 hc        1 JDM      0.066200
     27 H7          3.5950    1.6270    0.9590 hc        1 JDM      0.066200
     28 H8          3.8900    0.8270    3.1840 ha        1 JDM      0.157000
     29 H9          5.4290    0.5850    5.1400 ha        1 JDM      0.120000
     30 H10         7.9020    0.5900    4.7850 ha        1 JDM      0.115000
     31 H11         8.8260    0.8340    2.4800 ha        1 JDM      0.130000
     32 H12         6.8400    0.5250   -0.5840 h1        1 JDM      0.073200
     33 H13         7.4630    2.1900   -0.1310 h1        1 JDM      0.073200
     34 H14         8.8370   -0.2390    0.2660 ho        1 JDM      0.395000
@<TRIPOS>BOND
     1    1    2 1   
     2    2    3 1   
     3    2    4 1   
     4    4    5 1   
     5    4   11 2   
     6    5    6 1   
     7    5   22 1   
     8    6    7 2   
     9    6    8 1   
    10    8    9 1   
    11    8   23 1   
    12    9   10 2   
    13    9   11 1   
    14   11   12 1   
    15   12   13 1   
    16   12   24 1   
    17   12   25 1   
    18   13   14 1   
    19   13   26 1   
    20   13   27 1   
    21   14   15 ar  
    22   14   19 ar  
    23   15   16 ar  
    24   15   28 1   
    25   16   17 ar  
    26   16   29 1   
    27   17   18 ar  
    28   17   30 1   
    29   18   19 ar  
    30   18   31 1   
    31   19   20 1   
    32   20   21 1   
    33   20   32 1   
    34   20   33 1   
    35   21   34 1   
@<TRIPOS>SUBSTRUCTURE
     1 JDM         1 TEMP              0 ****  ****    0 ROOT
