@<TRIPOS>MOLECULE
JDR
   38    39     1     0     0
SMALL
bcc


@<TRIPOS>ATOM
      1 N1          0.0850   -0.4630   -0.1130 nb        1 JDR     -0.701000
      2 C2          0.9690    0.5920   -0.0330 ca        1 JDR      0.747300
      3 N3          1.6420    0.9460    1.1300 nb        1 JDR     -0.726000
      4 C4          1.3850    0.2030    2.2200 ca        1 JDR      0.604200
      5 C5          0.5010   -0.9140    2.2500 ca        1 JDR     -0.481200
      6 C6         -0.1400   -1.1900    0.9910 ca        1 JDR      0.618300
      7 N7          2.0900    0.6270    3.4620 n4        1 JDR     -0.763700
      8 C8          4.0580    0.1630    4.9160 ca        1 JDR     -0.050300
      9 C9          3.4960   -0.4410    6.0480 ca        1 JDR     -0.125500
     10 C10         4.1090   -0.2930    7.2890 ca        1 JDR      0.013500
     11 C11         5.2960    0.4540    7.4310 ca        1 JDR     -0.492500
     12 C12         5.8470    1.0460    6.2780 ca        1 JDR      0.013500
     13 C13         5.2380    0.9060    5.0340 ca        1 JDR     -0.125500
     14 S14         5.9350    0.7360    8.9030 sy        1 JDR      1.470200
     15 O15         6.8350    1.7760    8.9210 o         1 JDR     -0.542800
     16 O16         5.0800    0.4400    9.9390 o         1 JDR     -0.542800
     17 N17         7.1180   -0.7410    9.0040 n4        1 JDR     -0.797500
     18 C18         0.2370   -1.7310    3.4340 c         1 JDR      0.619500
     19 O19         0.8310   -1.5470    4.5090 o         1 JDR     -0.605100
     20 CL20       -1.2280   -2.4860    0.8750 cl        1 JDR     -0.032000
     21 S21         1.2880    1.5390   -1.3790 ss        1 JDR      0.062600
     22 C22         0.3270    0.9000   -2.6780 c3        1 JDR     -0.128000
     23 C23         3.4280   -0.0380    3.5700 c3        1 JDR      0.153100
     24 HN7         2.2090    1.6510    3.4640 hn        1 JDR      0.482300
     25 H9          2.5720   -1.0470    5.9630 ha        1 JDR      0.190000
     26 H10         3.6400   -0.7550    8.1810 ha        1 JDR      0.188000
     27 H12         6.7690    1.6570    6.3610 ha        1 JDR      0.188000
     28 H13         5.6960    1.3830    4.1490 ha        1 JDR      0.190000
     29 HN17        7.0970   -1.3400    8.1830 hn        1 JDR      0.467467
     30 HN1A        8.0810   -0.4180    9.1230 hn        1 JDR      0.467467
     31 H18        -0.5240   -2.5380    3.3290 h4        1 JDR      0.077200
     32 H22         0.5680    1.5650   -3.5490 h1        1 JDR      0.114700
     33 H22A       -0.7710    0.9480   -2.4880 h1        1 JDR      0.114700
     34 H22B        0.5840   -0.1510   -2.9500 h1        1 JDR      0.114700
     35 H23         4.0850    0.3690    2.7450 hx        1 JDR      0.133200
     36 H23A        3.2720   -1.1470    3.3980 hx        1 JDR      0.133200
     37 H72         1.5040    0.3520    4.2740 hn        1 JDR      0.482300
     38 H173        6.8930   -1.3230    9.8140 hn        1 JDR      0.467467
@<TRIPOS>BOND
     1    1    2 ar  
     2    1    6 ar  
     3    2    3 ar  
     4    2   21 1   
     5    3    4 ar  
     6    4    5 ar  
     7    4    7 1   
     8    5    6 ar  
     9    5   18 1   
    10    6   20 1   
    11    7   23 1   
    12    7   24 1   
    13    7   37 1   
    14    8    9 ar  
    15    8   13 ar  
    16    8   23 1   
    17    9   10 ar  
    18    9   25 1   
    19   10   11 ar  
    20   10   26 1   
    21   11   12 ar  
    22   11   14 1   
    23   12   13 ar  
    24   12   27 1   
    25   13   28 1   
    26   14   15 2   
    27   14   16 2   
    28   14   17 1   
    29   17   29 1   
    30   17   30 1   
    31   17   38 1   
    32   18   19 2   
    33   18   31 1   
    34   21   22 1   
    35   22   32 1   
    36   22   33 1   
    37   22   34 1   
    38   23   35 1   
    39   23   36 1   
@<TRIPOS>SUBSTRUCTURE
     1 JDR         1 TEMP              0 ****  ****    0 ROOT
