@<TRIPOS>MOLECULE
JDR
   37    38     1     0     0
SMALL
bcc


@<TRIPOS>ATOM
      1 N1          0.9480   -0.8990    0.4040 nb        1 JDR     -0.751000
      2 C2          1.8900    0.0750    0.6350 ca        1 JDR      0.787300
      3 N3          2.0360    0.7850    1.7910 nb        1 JDR     -0.775000
      4 C4          1.1570    0.5070    2.8070 ca        1 JDR      0.746200
      5 C5          0.2080   -0.5770    2.7000 ca        1 JDR     -0.516200
      6 C6          0.1350   -1.2090    1.4300 ca        1 JDR      0.614300
      7 N7          1.1320    1.3370    3.9240 nh        1 JDR     -0.844900
      8 C8          3.2400    1.4110    5.2590 ca        1 JDR      0.034700
      9 C9          2.9030    0.2750    6.0140 ca        1 JDR     -0.153000
     10 C10         3.8350   -0.3000    6.8610 ca        1 JDR      0.018000
     11 C11         5.1430    0.2250    6.9890 ca        1 JDR     -0.577500
     12 C12         5.4590    1.3750    6.2260 ca        1 JDR      0.018000
     13 C13         4.5320    1.9540    5.3800 ca        1 JDR     -0.153000
     14 S14         6.1850   -0.3950    8.0180 sy        1 JDR      1.499200
     15 O15         7.2900    0.3830    8.2920 o         1 JDR     -0.568800
     16 O16         5.6650   -1.2680    8.9480 o         1 JDR     -0.568800
     17 N17         7.0000   -1.6750    6.8150 n4        1 JDR     -0.784500
     18 C18        -0.5880   -1.0510    3.8290 c         1 JDR      0.610500
     19 O19        -0.2850   -0.8440    5.0120 o         1 JDR     -0.587100
     20 CL20       -1.0110   -2.4500    1.1670 cl        1 JDR     -0.108000
     21 S21         2.9930    0.4720   -0.6120 ss        1 JDR     -0.134400
     22 C22         2.5680   -0.5420   -1.9710 c3        1 JDR     -0.080000
     23 C23         2.2590    2.1060    4.3500 c3        1 JDR      0.227100
     24 HN7         0.4870    1.0770    4.6450 hn        1 JDR      0.457800
     25 H9          1.8900   -0.1710    5.9510 ha        1 JDR      0.186000
     26 H10         3.5460   -1.1790    7.4680 ha        1 JDR      0.169000
     27 H12         6.4650    1.8250    6.3240 ha        1 JDR      0.169000
     28 H13         4.8040    2.8500    4.7950 ha        1 JDR      0.186000
     29 HN17        7.9970   -1.4920    6.7290 hn        1 JDR      0.453467
     30 HN1A        6.8870   -2.6200    7.1780 hn        1 JDR      0.453467
     31 H18        -1.4940   -1.6480    3.5730 h4        1 JDR      0.036200
     32 H22         3.2900   -0.2470   -2.7720 h1        1 JDR      0.089367
     33 H22A        2.6810   -1.6280   -1.7580 h1        1 JDR      0.089367
     34 H22B        1.5300   -0.3660   -2.3360 h1        1 JDR      0.089367
     35 H23         1.8580    2.9970    4.9280 h1        1 JDR      0.108200
     36 H23A        2.8180    2.5120    3.4550 h1        1 JDR      0.108200
     37 H173        6.5940   -1.6450    5.8860 hn        1 JDR      0.453467
@<TRIPOS>BOND
     1    1    2 ar  
     2    1    6 ar  
     3    2    3 ar  
     4    2   21 1   
     5    3    4 ar  
     6    4    5 ar  
     7    4    7 1   
     8    5    6 ar  
     9    5   18 1   
    10    6   20 1   
    11    7   23 1   
    12    7   24 1   
    13    8    9 ar  
    14    8   13 ar  
    15    8   23 1   
    16    9   10 ar  
    17    9   25 1   
    18   10   11 ar  
    19   10   26 1   
    20   11   12 ar  
    21   11   14 1   
    22   12   13 ar  
    23   12   27 1   
    24   13   28 1   
    25   14   15 2   
    26   14   16 2   
    27   14   17 1   
    28   17   29 1   
    29   17   30 1   
    30   17   37 1   
    31   18   19 2   
    32   18   31 1   
    33   21   22 1   
    34   22   32 1   
    35   22   33 1   
    36   22   34 1   
    37   23   35 1   
    38   23   36 1   
@<TRIPOS>SUBSTRUCTURE
     1 JDR         1 TEMP              0 ****  ****    0 ROOT
