@<TRIPOS>MOLECULE
JDR
   36    30     1     0     0
SMALL
bcc


@<TRIPOS>ATOM
      1 N1         -4.1070   -2.6000   -0.7610 n1        1 JDR     -0.230000
      2 C2         -2.8460   -3.1030   -0.5830 c1        1 JDR     -0.072000
      3 N3         -1.8360   -2.2830   -0.1800 n1        1 JDR     -0.231000
      4 C4         -2.0750   -0.9850    0.0430 c1        1 JDR      0.206000
      5 C5         -3.3380   -0.4820   -0.1350 c1        1 JDR     -0.340000
      6 C6         -4.3480   -1.3030   -0.5390 c1        1 JDR      0.110000
      7 N7         -0.9830   -0.0960    0.3390 n3        1 JDR     -0.294000
      8 C8          1.3890    0.4920    0.2980 c1        1 JDR     -0.043000
      9 C9          2.5200    0.2500   -0.4740 c1        1 JDR     -0.081000
     10 C10         3.4880    1.2420   -0.6240 c1        1 JDR     -0.081000
     11 C11         3.3240    2.4710   -0.0020 c1        1 JDR     -0.819000
     12 C12         2.1930    2.7130    0.7700 c1        1 JDR     -0.020000
     13 C13         1.2250    1.7210    0.9190 c1        1 JDR     -0.145000
     14 S14         4.5060    3.7950   -0.3030 s4        1 JDR      2.081800
     15 O15         4.8870    3.8520   -1.6950 o         1 JDR     -0.543400
     16 O16         3.8990    5.0880   -0.1270 o         1 JDR     -0.543400
     17 N17         5.8200    3.6140    0.6700 n2        1 JDR     -0.954000
     18 C18        -3.6240    0.9680    0.1760 c2        1 JDR      0.233000
     19 O19        -4.7470    1.4140    0.0170 o         1 JDR     -0.256000
     20 CL20       -5.9480   -0.6510   -0.8130 cl        1 JDR      0.047000
     21 S21        -2.5050   -4.7800   -0.9880 ss        1 JDR      0.342000
     22 C22        -3.8100   -5.8070   -0.3900 c3        1 JDR     -0.374000
     23 C23         0.3550   -0.6280    0.5210 c3        1 JDR     -0.004000
     24 HN7        -1.1410    0.7940    0.4670 hn        1 JDR      0.228000
     25 H9          2.6360   -0.6190   -0.9140 ha        1 JDR      0.151500
     26 H10         4.2850    1.0710   -1.1680 ha        1 JDR      0.151500
     27 H12         2.0760    3.5770    1.2080 ha        1 JDR      0.156000
     28 H13         0.4280    1.8930    1.4640 ha        1 JDR      0.150000
     29 HN17        5.8050    3.9390    1.5220 hn        1 JDR      0.244000
     30 HN1A        6.5740    3.1980    0.3500 hn        1 JDR      0.244000
     31 H18        -2.9040    1.5550    0.4600 h4        1 JDR      0.100000
     32 H22        -3.7450   -6.6830   -0.8020 h1        1 JDR      0.120667
     33 H22A       -3.7350   -5.8970    0.5850 h1        1 JDR      0.120667
     34 H22B       -4.6720   -5.4030   -0.6150 h1        1 JDR      0.120667
     35 H23         0.5100   -1.3490   -0.1230 h1        1 JDR      0.111000
     36 H23A        0.4450   -0.9770    1.4280 h1        1 JDR      0.111000
@<TRIPOS>BOND
     1    1    6 1   
     2    2    3 1   
     3    2   21 1   
     4    4    5 1   
     5    4    7 1   
     6    5   18 1   
     7    6   20 1   
     8    7   23 1   
     9    7   24 1   
    10    8   13 1   
    11    8   23 1   
    12    9   10 1   
    13    9   25 1   
    14   10   26 1   
    15   11   12 1   
    16   11   14 1   
    17   12   27 1   
    18   13   28 1   
    19   14   15 1   
    20   14   16 1   
    21   17   29 1   
    22   17   30 1   
    23   18   19 1   
    24   18   31 1   
    25   21   22 1   
    26   22   32 1   
    27   22   33 1   
    28   22   34 1   
    29   23   35 1   
    30   23   36 1   
@<TRIPOS>SUBSTRUCTURE
     1 JDR         1 TEMP              0 ****  ****    0 ROOT
