@<TRIPOS>MOLECULE
JDR
   36    37     1     0     0
SMALL
bcc


@<TRIPOS>ATOM
      1 N1         -4.7000   -0.1880    0.2490 nb        1 JDR     -0.775000
      2 C2         -3.8630   -1.2240   -0.0990 ca        1 JDR      0.797300
      3 N3         -2.5120   -1.1720   -0.1620 nb        1 JDR     -0.781000
      4 C4         -1.9070    0.0330    0.1530 ca        1 JDR      0.770200
      5 C5         -2.7030    1.1840    0.5380 ca        1 JDR     -0.519200
      6 C6         -4.1070    0.9790    0.5560 ca        1 JDR      0.618300
      7 N7         -0.5430    0.1110    0.0930 nh        1 JDR     -0.851900
      8 C8          1.7540   -0.6810   -0.2840 ca        1 JDR     -0.046300
      9 C9          2.3540   -0.0440    0.8070 ca        1 JDR     -0.146000
     10 C10         3.7240    0.2030    0.8010 ca        1 JDR     -0.016500
     11 C11         4.5220   -0.1870   -0.2810 ca        1 JDR     -0.376500
     12 C12         3.9090   -0.8160   -1.3710 ca        1 JDR     -0.016500
     13 C13         2.5390   -1.0620   -1.3790 ca        1 JDR     -0.146000
     14 S14         6.1860    0.1300   -0.2900 sy        1 JDR      1.526200
     15 O15         6.6130    0.2050   -1.6320 o         1 JDR     -0.655800
     16 O16         6.4290    1.2410    0.5440 o         1 JDR     -0.655800
     17 N17         6.8080   -1.1810    0.3880 n3        1 JDR     -1.027700
     18 C18        -2.1370    2.4780    0.8920 c         1 JDR      0.600500
     19 O19        -0.9280    2.7330    0.9660 o         1 JDR     -0.570100
     20 CL20       -5.1520    2.2700    0.9930 cl        1 JDR     -0.138000
     21 S21        -4.5630   -2.7440   -0.4980 ss        1 JDR     -0.162400
     22 C22        -6.2910   -2.5280   -0.3380 c3        1 JDR     -0.075000
     23 C23         0.2870   -1.0050   -0.2880 c3        1 JDR      0.255100
     24 HN7        -0.0990    0.9840    0.2980 hn        1 JDR      0.482800
     25 H9          1.7500    0.2650    1.6750 ha        1 JDR      0.147000
     26 H10         4.1890    0.7290    1.6540 ha        1 JDR      0.156500
     27 H12         4.5220   -1.1000   -2.2450 ha        1 JDR      0.156500
     28 H13         2.0750   -1.5520   -2.2490 ha        1 JDR      0.147000
     29 HN17        7.0950   -1.9770   -0.1230 hn        1 JDR      0.447800
     30 HN1A        6.9730   -1.2700    1.3580 hn        1 JDR      0.447800
     31 H18        -2.8820    3.2790    1.1100 h4        1 JDR      0.017200
     32 H22        -6.7210   -3.5250   -0.6020 h1        1 JDR      0.081700
     33 H22A       -6.6000   -2.2590    0.6970 h1        1 JDR      0.081700
     34 H22B       -6.6970   -1.7590   -1.0320 h1        1 JDR      0.081700
     35 H23         0.1150   -1.8630    0.4300 h1        1 JDR      0.071700
     36 H23A       -0.0200   -1.3620   -1.3160 h1        1 JDR      0.071700
@<TRIPOS>BOND
     1    1    2 ar  
     2    1    6 ar  
     3    2    3 ar  
     4    2   21 1   
     5    3    4 ar  
     6    4    5 ar  
     7    4    7 1   
     8    5    6 ar  
     9    5   18 1   
    10    6   20 1   
    11    7   23 1   
    12    7   24 1   
    13    8    9 ar  
    14    8   13 ar  
    15    8   23 1   
    16    9   10 ar  
    17    9   25 1   
    18   10   11 ar  
    19   10   26 1   
    20   11   12 ar  
    21   11   14 1   
    22   12   13 ar  
    23   12   27 1   
    24   13   28 1   
    25   14   15 2   
    26   14   16 2   
    27   14   17 1   
    28   17   29 1   
    29   17   30 1   
    30   18   19 2   
    31   18   31 1   
    32   21   22 1   
    33   22   32 1   
    34   22   33 1   
    35   22   34 1   
    36   23   35 1   
    37   23   36 1   
@<TRIPOS>SUBSTRUCTURE
     1 JDR         1 TEMP              0 ****  ****    0 ROOT
