@<TRIPOS>MOLECULE
JDR
   37    38     1     0     0
SMALL
bcc


@<TRIPOS>ATOM
      1 N1          0.9190   -0.9300    0.4290 nb        1 JDR     -0.751000
      2 C2          1.8520    0.0550    0.6490 ca        1 JDR      0.787300
      3 N3          2.0020    0.7690    1.8010 nb        1 JDR     -0.775000
      4 C4          1.1380    0.4830    2.8280 ca        1 JDR      0.746200
      5 C5          0.2010   -0.6130    2.7330 ca        1 JDR     -0.516200
      6 C6          0.1210   -1.2490    1.4660 ca        1 JDR      0.614300
      7 N7          1.1160    1.3140    3.9430 nu        1 JDR     -0.844900
      8 C8          3.2380    1.4150    5.2550 ca        1 JDR      0.034700
      9 C9          2.9220    0.2790    6.0170 ca        1 JDR     -0.153000
     10 C10         3.8700   -0.2840    6.8540 ca        1 JDR      0.018000
     11 C11         5.1740    0.2550    6.9650 ca        1 JDR     -0.577500
     12 C12         5.4690    1.4050    6.1940 ca        1 JDR      0.018000
     13 C13         4.5250    1.9720    5.3580 ca        1 JDR     -0.153000
     14 S14         6.2350   -0.3500    7.9830 sy        1 JDR      1.499200
     15 O15         7.3340    0.4400    8.2410 o         1 JDR     -0.568800
     16 O16         5.7350   -1.2250    8.9220 o         1 JDR     -0.568800
     17 N17         7.0480   -1.6270    6.7760 nz        1 JDR     -0.784500
     18 C18        -0.5770   -1.0940    3.8720 c         1 JDR      0.610500
     19 O19        -0.2620   -0.8810    5.0520 o         1 JDR     -0.587100
     20 Cl20       -1.0130   -2.5040    1.2180 cl        1 JDR     -0.108000
     21 S21         2.9350    0.4630   -0.6130 ss        1 JDR     -0.134400
     22 C22         2.5060   -0.5580   -1.9650 c3        1 JDR     -0.080000
     23 C23         2.2390    2.0970    4.3550 c3        1 JDR      0.227100
     24 HN7         0.4830    1.0480    4.6720 hn        1 JDR      0.457800
     25 H9          1.9130   -0.1790    5.9670 ha        1 JDR      0.186000
     26 H10         3.5970   -1.1640    7.4680 ha        1 JDR      0.169000
     27 H12         6.4720    1.8670    6.2790 ha        1 JDR      0.169000
     28 H13         4.7810    2.8690    4.7680 ha        1 JDR      0.186000
     29 HN17        6.9490   -2.5710    7.1430 hn        1 JDR      0.453467
     30 HN1A        8.0420   -1.4340    6.6770 hn        1 JDR      0.453467
     31 H18        -1.4770   -1.7030    3.6270 h4        1 JDR      0.036200
     32 H22         2.6360   -1.6430   -1.7510 h1        1 JDR      0.089367
     33 H22A        1.4630   -0.3950   -2.3180 h1        1 JDR      0.089367
     34 H22B        3.2160   -0.2560   -2.7740 h1        1 JDR      0.089367
     35 H23         2.7830    2.5080    3.4530 h1        1 JDR      0.108200
     36 H23A        1.8340    2.9840    4.9360 h1        1 JDR      0.108200
     37 H173        6.6300   -1.6040    5.8510 hn        1 JDR      0.453467
@<TRIPOS>BOND
     1    1    2 ar  
     2    1    6 ar  
     3    2    3 ar  
     4    2   21 1   
     5    3    4 ar  
     6    4    5 ar  
     7    4    7 1   
     8    5    6 ar  
     9    5   18 1   
    10    6   20 1   
    11    7   23 1   
    12    7   24 1   
    13    8    9 ar  
    14    8   13 ar  
    15    8   23 1   
    16    9   10 ar  
    17    9   25 1   
    18   10   11 ar  
    19   10   26 1   
    20   11   12 ar  
    21   11   14 1   
    22   12   13 ar  
    23   12   27 1   
    24   13   28 1   
    25   14   15 2   
    26   14   16 2   
    27   14   17 1   
    28   17   29 1   
    29   17   30 1   
    30   17   37 1   
    31   18   19 2   
    32   18   31 1   
    33   21   22 1   
    34   22   32 1   
    35   22   33 1   
    36   22   34 1   
    37   23   35 1   
    38   23   36 1   
@<TRIPOS>SUBSTRUCTURE
     1 JDR         1 TEMP              0 ****  ****    0 ROOT
