@<TRIPOS>MOLECULE
JDT
   37    38     1     0     0
SMALL
bcc


@<TRIPOS>ATOM
      1 P           1.8180    1.4070    1.4360 p5        1 JDT      1.341900
      2 N1         -2.2520   -1.5700   -0.2550 n         1 JDT     -0.367000
      3 C2         -3.5260   -2.1360   -0.4730 c         1 JDT      0.794500
      4 O2         -3.7040   -3.3570   -0.7230 o         1 JDT     -0.711500
      5 N3         -4.6510   -1.2950   -0.4510 n         1 JDT     -0.596500
      6 C4         -4.5680    0.0880   -0.1970 c         1 JDT      0.718700
      7 O4         -5.6450    0.7250   -0.1950 o         1 JDT     -0.688500
      8 C5         -3.2280    0.6200    0.0340 cc        1 JDT     -0.301400
      9 C6         -2.1370   -0.2130    0.0180 cd        1 JDT      0.069600
     10 C7         -3.0970    2.0730    0.3180 c3        1 JDT      0.003800
     11 C1'        -1.0990   -2.4910   -0.1960 c3        1 JDT      0.303500
     12 C2'         0.0630   -2.0780   -1.1210 c3        1 JDT     -0.117400
     13 C3'         1.0820   -1.4360   -0.1800 c3        1 JDT      0.105100
     14 O3'         2.3900   -1.8330   -0.5250 oh        1 JDT     -0.657800
     15 C4'         0.6980   -1.9220    1.2340 c3        1 JDT      0.063100
     16 O4'        -0.5850   -2.5900    1.1280 os        1 JDT     -0.439600
     17 C5'         0.5700   -0.7910    2.2830 c3        1 JDT      0.225400
     18 O5'         1.7010   -0.0340    2.3950 os        1 JDT     -0.567200
     19 C72        -2.0910    2.7560   -0.5760 c3        1 JDT     -0.124100
     20 OP1         2.8150    0.8930    0.4270 o         1 JDT     -0.926833
     21 OP2         2.2040    2.4860    2.3920 o         1 JDT     -0.926833
     22 OP3         0.4230    1.4620    0.8350 o         1 JDT     -0.926833
     23 HN3        -5.5360   -1.7200   -0.6030 hn        1 JDT      0.321500
     24 H6         -1.0960    0.1990    0.2230 h4        1 JDT      0.299000
     25 H71        -4.1040    2.5590    0.2080 hc        1 JDT      0.041200
     26 H72        -2.7700    2.2020    1.3870 hc        1 JDT      0.041200
     27 H1'        -1.4930   -3.5220   -0.4450 h2        1 JDT      0.085700
     28 H2'         0.4870   -2.9940   -1.6020 hc        1 JDT      0.051700
     29 H2''       -0.2450   -1.3670   -1.9210 hc        1 JDT      0.051700
     30 H3'         1.0120   -0.2970   -0.2070 h1        1 JDT      0.154700
     31 HO3'        2.9570   -1.0700   -0.2730 ho        1 JDT      0.482000
     32 H4'         1.4150   -2.7080    1.5890 h1        1 JDT      0.047700
     33 H5'        -0.3270   -0.1590    2.0280 h1        1 JDT     -0.002800
     34 H5''        0.3740   -1.3020    3.2730 h1        1 JDT     -0.002800
     35 H72A       -2.1450    3.8610   -0.4270 hc        1 JDT      0.052033
     36 H72B       -1.0490    2.4110   -0.3120 hc        1 JDT      0.052033
     37 H72C       -2.2950    2.5350   -1.6500 hc        1 JDT      0.052033
@<TRIPOS>BOND
     1    1   18 1   
     2    1   20 1   
     3    1   21 1   
     4    1   22 1   
     5    2    3 1   
     6    2    9 1   
     7    2   11 1   
     8    3    4 2   
     9    3    5 1   
    10    5    6 1   
    11    5   23 1   
    12    6    7 2   
    13    6    8 1   
    14    8    9 2   
    15    8   10 1   
    16    9   24 1   
    17   10   19 1   
    18   10   25 1   
    19   10   26 1   
    20   11   12 1   
    21   11   16 1   
    22   11   27 1   
    23   12   13 1   
    24   12   28 1   
    25   12   29 1   
    26   13   14 1   
    27   13   15 1   
    28   13   30 1   
    29   14   31 1   
    30   15   16 1   
    31   15   17 1   
    32   15   32 1   
    33   17   18 1   
    34   17   33 1   
    35   17   34 1   
    36   19   35 1   
    37   19   36 1   
    38   19   37 1   
@<TRIPOS>SUBSTRUCTURE
     1 JDT         1 TEMP              0 ****  ****    0 ROOT
