@<TRIPOS>MOLECULE
JDT
   37    37     1     0     0
SMALL
bcc


@<TRIPOS>ATOM
      1 P          -4.2450    1.6430    0.1670 p3        1 JDT      2.515000
      2 N1          0.5450   -1.0870    0.3160 n         1 JDT     -0.261000
      3 C2         -0.3680   -1.9280   -0.4640 c2        1 JDT      0.387000
      4 O2         -1.3310   -2.4410    0.0740 o         1 JDT     -0.432000
      5 N3         -0.1000   -2.1860   -1.8780 n         1 JDT     -0.377000
      6 C4          1.0860   -1.6860   -2.4800 c2        1 JDT      0.359000
      7 O4          1.3870   -2.0290   -3.6090 o         1 JDT     -0.408000
      8 C5          2.0030   -0.8420   -1.7000 c2        1 JDT     -0.277000
      9 C6          1.6710   -0.4940   -0.3110 c2        1 JDT      0.073000
     10 C7          3.3530   -0.4740   -2.2670 c3        1 JDT     -0.087000
     11 C1'         0.3860   -0.9900    1.7420 c3        1 JDT      0.157000
     12 C2'         0.6710    0.4900    2.2280 c3        1 JDT     -0.199000
     13 C3'        -0.6850    1.0680    2.5820 c3        1 JDT      0.011000
     14 O3'        -0.8300    1.1740    4.0540 oh        1 JDT     -0.390000
     15 C4'        -1.5660    0.1970    2.0940 c3        1 JDT     -0.049000
     16 O4'        -0.8290   -1.2230    2.0700 os        1 JDT     -0.296000
     17 C5'        -1.9650    0.5920    0.7130 c3        1 JDT      0.052000
     18 O5'        -2.7900    1.7350    0.7700 o         1 JDT     -0.742000
     19 C72         3.1810    0.5860   -3.3250 c3        1 JDT     -0.226000
     20 OP1        -5.2560    1.6430    1.2890 o         1 JDT     -1.241333
     21 OP2        -4.3790    0.3670   -0.6320 o         1 JDT     -1.241333
     22 OP3        -4.4930    2.8300   -0.7350 o         1 JDT     -1.241333
     23 HN3        -0.6700   -2.7100   -2.3620 hn        1 JDT      0.237000
     24 H6          2.2800    0.0670    0.2100 h4        1 JDT      0.276000
     25 H71         3.9240   -0.1310   -1.5520 hc        1 JDT      0.084000
     26 H72         3.7670   -1.2660   -2.6630 hc        1 JDT      0.084000
     27 H1'         0.9840   -1.6160    2.1940 h2        1 JDT      0.121000
     28 H2'         1.0820    1.0080    1.5090 hc        1 JDT      0.091000
     29 H2''        1.2510    0.4820    3.0150 hc        1 JDT      0.091000
     30 H3'        -0.8030    1.9440    2.1630 h1        1 JDT      0.191000
     31 HO3'       -0.7220    2.0200    4.3010 ho        1 JDT      0.282000
     32 H4'        -2.3540    0.1570    2.6720 h1        1 JDT      0.080000
     33 H5'        -1.1630    0.7940    0.1870 h1        1 JDT      0.055500
     34 H5''       -2.4540   -0.1410    0.2930 h1        1 JDT      0.055500
     35 H72A        2.2690    0.5500   -3.6790 hc        1 JDT      0.088333
     36 H72B        3.3450    1.4680   -2.9330 hc        1 JDT      0.088333
     37 H72C        3.8190    0.4290   -4.0510 hc        1 JDT      0.088333
@<TRIPOS>BOND
     1    1   20 1   
     2    1   21 1   
     3    1   22 1   
     4    2    3 1   
     5    2    9 1   
     6    2   11 1   
     7    3    4 1   
     8    3    5 1   
     9    5    6 1   
    10    5   23 1   
    11    6    7 1   
    12    6    8 1   
    13    8    9 1   
    14    8   10 1   
    15    9   24 1   
    16   10   19 1   
    17   10   25 1   
    18   10   26 1   
    19   11   12 1   
    20   11   16 1   
    21   11   27 1   
    22   12   13 1   
    23   12   28 1   
    24   12   29 1   
    25   13   14 1   
    26   13   15 1   
    27   13   30 1   
    28   14   31 1   
    29   15   16 1   
    30   15   17 1   
    31   15   32 1   
    32   17   18 1   
    33   17   33 1   
    34   17   34 1   
    35   19   35 1   
    36   19   36 1   
    37   19   37 1   
@<TRIPOS>SUBSTRUCTURE
     1 JDT         1 TEMP              0 ****  ****    0 ROOT
