@<TRIPOS>MOLECULE
JDX
   62    64     1     0     0
SMALL
bcc


@<TRIPOS>ATOM
      1 C15         0.4640    0.8700   -0.1020 ca        1 JDX     -0.117000
      2 C16         1.7610    0.3490   -0.1080 ca        1 JDX     -0.074000
      3 C14        -0.1850    1.0950    1.1070 ca        1 JDX     -0.105000
      4 C17         2.4020    0.0560    1.0930 ca        1 JDX     -0.125000
      5 C23         3.2520   -3.6960    6.6130 ca        1 JDX     -0.163000
      6 C6         -3.9230   -0.9820    5.2070 ca        1 JDX     -0.064500
      7 C10        -4.8770    1.0970    4.4010 ca        1 JDX     -0.064500
      8 C24         2.8760   -4.9020    7.2070 ca        1 JDX     -0.048000
      9 C7         -5.1810   -1.5620    5.2320 ca        1 JDX     -0.184000
     10 C9         -6.1490    0.5330    4.4260 ca        1 JDX     -0.184000
     11 C13         0.4640    0.8030    2.3170 ca        1 JDX     -0.182600
     12 C30         0.9290   -3.1990    6.1350 ca        1 JDX     -0.203600
     13 C5         -3.7620    0.3490    4.7880 ca        1 JDX     -0.222300
     14 C18         1.7650    0.2800    2.3210 ca        1 JDX     -0.003300
     15 C22         2.2870   -2.8410    6.0770 ca        1 JDX      0.007700
     16 C25         1.5390   -5.2850    7.2530 ca        1 JDX     -0.198000
     17 C29         0.5660   -4.4380    6.7050 ca        1 JDX      0.164100
     18 C8         -6.3030   -0.7980    4.8410 ca        1 JDX      0.172100
     19 C2         -0.2280    1.1200    3.5790 c         1 JDX      0.584700
     20 C4         -2.4110    0.9720    4.8160 c3        1 JDX      0.184100
     21 C19         2.5070   -0.0220    3.5960 c3        1 JDX      0.184100
     22 C21         2.7080   -1.5320    5.4670 c3        1 JDX      0.188100
     23 N3         -1.5120    0.3550    3.7860 n4        1 JDX     -0.676800
     24 N20         2.2880   -1.3880    4.0710 n3        1 JDX     -0.737600
     25 O33        -1.0940   -2.7250    4.8100 oh        1 JDX     -0.630100
     26 O1          0.0980    1.9190    4.4430 o         1 JDX     -0.413100
     27 O32        -0.1960   -1.0600    5.8310 o         1 JDX     -0.571000
     28 O28        -0.7800   -4.7330    6.6590 os        1 JDX     -0.358900
     29 C20         2.8940   -2.3800    3.2060 c3        1 JDX      0.134100
     30 O11        -7.5010   -1.4630    4.9020 os        1 JDX     -0.312900
     31 H15        -0.0410    1.1080   -1.0520 ha        1 JDX      0.161000
     32 H16         2.2780    0.1740   -1.0660 ha        1 JDX      0.161000
     33 H14        -1.1960    1.5310    1.1050 ha        1 JDX      0.137000
     34 H17         3.4270   -0.3520    1.0840 ha        1 JDX      0.159000
     35 H23         4.3170   -3.4170    6.5740 ha        1 JDX      0.154000
     36 H24         3.6460   -5.5620    7.6390 ha        1 JDX      0.156000
     37 H6         -3.0410   -1.5680    5.5210 ha        1 JDX      0.146000
     38 H7         -5.3260   -2.6030    5.5590 ha        1 JDX      0.160500
     39 H10        -4.7590    2.1460    4.0850 ha        1 JDX      0.146000
     40 H9         -7.0190    1.1350    4.1280 ha        1 JDX      0.160500
     41 H25         1.2560   -6.2420    7.7140 ha        1 JDX      0.159000
     42 H41C       -2.4640    2.0790    4.6140 hx        1 JDX      0.113200
     43 H42C       -1.9110    0.8100    5.8180 hx        1 JDX      0.113200
     44 H191        2.1610    0.6940    4.3980 h1        1 JDX      0.065200
     45 H192        3.6050    0.1840    3.4180 h1        1 JDX      0.065200
     46 H211        2.2200   -0.7070    6.0660 h1        1 JDX      0.067200
     47 H212        3.8280   -1.4200    5.5720 h1        1 JDX      0.067200
     48 H3         -1.2600   -0.6000    4.1130 hn        1 JDX      0.470800
     49 H271       -0.7830   -6.8110    6.9210 h1        1 JDX      0.060033
     50 H272       -2.3220   -5.8610    7.2700 h1        1 JDX      0.060033
     51 H273       -0.9150   -5.8070    8.4580 h1        1 JDX      0.060033
     52 H121       -9.4960   -1.4550    4.7180 h1        1 JDX      0.057367
     53 H122       -8.6260   -0.3790    3.5030 h1        1 JDX      0.057367
     54 H123       -8.7870    0.1570    5.2560 h1        1 JDX      0.057367
     55 H201        4.0090   -2.2620    3.1090 h1        1 JDX      0.044033
     56 H202        2.6780   -3.4010    3.6150 h1        1 JDX      0.044033
     57 H203        2.4370   -2.2950    2.1850 h1        1 JDX      0.044033
     58 C27        -1.2080   -5.8870    7.3830 c3        1 JDX      0.115700
     59 C12        -8.6690   -0.7150    4.5680 c3        1 JDX      0.106700
     60 H32        -2.0040    0.2670    2.8930 hn        1 JDX      0.470800
     61 H204       -1.0760   -3.6910    4.7340 ho        1 JDX      0.468000
     62 C31        -0.0950   -2.2790    5.6330 c         1 JDX      0.709700
@<TRIPOS>BOND
     1    1    2 ar  
     2    1    3 ar  
     3    1   31 1   
     4    2    4 ar  
     5    2   32 1   
     6    3   11 ar  
     7    3   33 1   
     8    4   14 ar  
     9    4   34 1   
    10    5    8 ar  
    11    5   15 ar  
    12    5   35 1   
    13    6    9 ar  
    14    6   13 ar  
    15    6   37 1   
    16    7   10 ar  
    17    7   13 ar  
    18    7   39 1   
    19    8   16 ar  
    20    8   36 1   
    21    9   18 ar  
    22    9   38 1   
    23   10   18 ar  
    24   10   40 1   
    25   11   14 ar  
    26   11   19 1   
    27   12   15 ar  
    28   12   17 ar  
    29   12   62 1   
    30   13   20 1   
    31   14   21 1   
    32   15   22 1   
    33   16   17 ar  
    34   16   41 1   
    35   17   28 1   
    36   18   30 1   
    37   19   23 1   
    38   19   26 2   
    39   20   23 1   
    40   20   42 1   
    41   20   43 1   
    42   21   24 1   
    43   21   44 1   
    44   21   45 1   
    45   22   24 1   
    46   22   46 1   
    47   22   47 1   
    48   23   48 1   
    49   23   60 1   
    50   24   29 1   
    51   25   61 1   
    52   25   62 1   
    53   27   62 2   
    54   28   58 1   
    55   29   55 1   
    56   29   56 1   
    57   29   57 1   
    58   30   59 1   
    59   49   58 1   
    60   50   58 1   
    61   51   58 1   
    62   52   59 1   
    63   53   59 1   
    64   54   59 1   
@<TRIPOS>SUBSTRUCTURE
     1 JDX         1 TEMP              0 ****  ****    0 ROOT
