@<TRIPOS>MOLECULE
JDX
   60    53     1     0     0
SMALL
bcc


@<TRIPOS>ATOM
      1 C15        -0.9060   -2.6560   -2.7520 c1        1 JDX     -0.084625
      2 C16         0.4580   -2.9860   -2.7590 c1        1 JDX     -0.084625
      3 C14        -1.5260   -2.2540   -1.5560 c1        1 JDX     -0.084625
      4 C17         1.2000   -2.9130   -1.5780 c1        1 JDX     -0.084625
      5 C23         5.1960    0.0020   -1.0780 c1        1 JDX     -0.088500
      6 C6         -6.3300   -0.5040    1.4080 c1        1 JDX     -0.018500
      7 C10        -5.3090    0.5020   -0.5270 c1        1 JDX     -0.084625
      8 C24         5.9790    1.0370   -1.6080 c1        1 JDX     -0.084625
      9 C7         -7.5270    0.1300    1.1060 c1        1 JDX     -0.101500
     10 C9         -6.5040    1.1350   -0.8280 c1        1 JDX     -0.084625
     11 C13        -0.7900   -2.1830   -0.3840 cg        1 JDX     -0.063200
     12 C30         5.2320    1.0780    1.0850 cg        1 JDX     -0.049200
     13 C5         -5.2200   -0.3190    0.5930 c1        1 JDX     -0.073100
     14 C18         0.5840   -2.5140   -0.3900 c1        1 JDX      0.004900
     15 C22         4.8240    0.0270    0.2720 c1        1 JDX     -0.050100
     16 C25         6.3870    2.0860   -0.7960 c1        1 JDX     -0.084625
     17 C29         6.0160    2.1120    0.5540 c1        1 JDX      0.093600
     18 C8         -7.6150    0.9490   -0.0110 c1        1 JDX      0.083600
     19 C2         -1.7320   -1.8650    0.8090 c         1 JDX      0.608300
     20 C31         5.4140    1.2460    2.5900 c         1 JDX      0.858800
     21 C27         7.5600    3.8630    1.1590 c3        1 JDX      0.102700
     22 C12        -9.3630    2.3940   -0.7030 c3        1 JDX      0.119700
     23 C4         -3.9510   -0.6440    1.3200 c3        1 JDX      0.085100
     24 C19         1.7140   -2.1170    0.6300 c3        1 JDX      0.148900
     25 C21         3.9090   -1.1170    0.8600 c3        1 JDX      0.168900
     26 N3         -3.2090   -1.6850    0.5780 n         1 JDX     -0.524900
     27 N20         2.7770   -1.3810   -0.0760 n3        1 JDX     -0.742600
     28 O33         6.4190    0.7360    3.1660 o         1 JDX     -0.835800
     29 O1         -1.2720   -1.7290    1.9230 o         1 JDX     -0.656100
     30 O32         4.5530    1.8530    3.2580 o         1 JDX     -0.835800
     31 O28         6.6580    2.8140    1.6100 os        1 JDX     -0.335400
     32 C20         2.2510   -0.1250   -0.5670 c3        1 JDX      0.164100
     33 O11        -9.0110    1.1380   -0.1520 os        1 JDX     -0.319400
     34 H15        -1.4280   -2.6900   -3.5940 ha        1 JDX      0.066625
     35 H16         0.8980   -3.2300   -3.5980 ha        1 JDX      0.066625
     36 H14        -2.4910   -2.0210   -1.5510 ha        1 JDX      0.066625
     37 H17         2.1560   -3.1440   -1.5830 ha        1 JDX      0.066625
     38 H23         5.0010   -0.7630   -1.6070 ha        1 JDX      0.058500
     39 H24         6.2430    1.0190   -2.5670 ha        1 JDX      0.066625
     40 H6         -6.2670   -1.0930    2.2100 ha        1 JDX      0.148500
     41 H7         -8.2960    0.0020    1.6710 ha        1 JDX      0.086500
     42 H10        -4.5050    0.7020   -1.0500 ha        1 JDX      0.066625
     43 H9         -6.5670    1.7080   -1.6090 ha        1 JDX      0.066625
     44 H25         6.8860    2.8310   -1.1780 ha        1 JDX      0.066625
     45 H41C       -4.1680   -0.9790    2.2360 h1        1 JDX      0.073200
     46 H42C       -3.3810    0.1890    1.3930 h1        1 JDX      0.073200
     47 H191        2.0890   -2.9260    1.0310 h1        1 JDX      0.073200
     48 H192        1.3310   -1.5450    1.3380 h1        1 JDX      0.073200
     49 H211        4.4440   -1.9400    0.9710 h1        1 JDX      0.063200
     50 H212        3.5480   -0.8310    1.7490 h1        1 JDX      0.063200
     51 H3         -3.6510   -2.2070   -0.0640 hn        1 JDX      0.368500
     52 H271        7.0790    4.4810    0.5840 h1        1 JDX      0.044700
     53 H272        8.3110    3.4590    0.6550 h1        1 JDX      0.044700
     54 H273        7.8980    4.3280    1.9060 h1        1 JDX      0.044700
     55 H121       -8.8570    3.1210   -0.2290 h1        1 JDX      0.033033
     56 H122       -9.1390    2.4070   -1.6440 h1        1 JDX      0.033033
     57 H123      -10.3670    2.5480   -0.5900 h1        1 JDX      0.033033
     58 H201        2.8730    0.2600   -1.1940 h1        1 JDX      0.028700
     59 H202        2.1210    0.4910    0.1830 h1        1 JDX      0.028700
     60 H203        1.3700   -0.2880   -1.0250 h1        1 JDX      0.028700
@<TRIPOS>BOND
     1    1    3 3   
     2    1   34 1   
     3    2    4 3   
     4    2   35 1   
     5    3   36 1   
     6    4   37 1   
     7    5   15 3   
     8    5   38 1   
     9    6   13 3   
    10    6   40 1   
    11    7   10 3   
    12    7   42 1   
    13    8   16 3   
    14    8   39 1   
    15    9   18 3   
    16    9   41 1   
    17   10   43 1   
    18   11   14 3   
    19   11   19 1   
    20   12   17 3   
    21   12   20 1   
    22   13   23 1   
    23   14   24 1   
    24   15   25 1   
    25   16   44 1   
    26   17   31 1   
    27   18   33 1   
    28   19   26 1   
    29   19   29 2   
    30   20   28 1   
    31   20   30 1   
    32   21   31 1   
    33   21   52 1   
    34   21   53 1   
    35   21   54 1   
    36   22   33 1   
    37   22   55 1   
    38   22   56 1   
    39   22   57 1   
    40   23   26 1   
    41   23   45 1   
    42   23   46 1   
    43   24   27 1   
    44   24   47 1   
    45   24   48 1   
    46   25   27 1   
    47   25   49 1   
    48   25   50 1   
    49   26   51 1   
    50   27   32 1   
    51   32   58 1   
    52   32   59 1   
    53   32   60 1   
@<TRIPOS>SUBSTRUCTURE
     1 JDX         1 TEMP              0 ****  ****    0 ROOT
