@<TRIPOS>MOLECULE
JDX
   60    62     1     0     0
SMALL
bcc


@<TRIPOS>ATOM
      1 C15         0.7550   -4.9310   -1.5940 ca        1 JDX     -0.145000
      2 C16        -0.6200   -5.1690   -1.5750 ca        1 JDX     -0.133000
      3 C14         1.2970   -3.9530   -0.7670 ca        1 JDX     -0.095000
      4 C17        -1.4420   -4.4160   -0.7440 ca        1 JDX     -0.138000
      5 C23        -4.9940    0.7430    0.2220 ca        1 JDX     -0.153000
      6 C6          2.6950    1.5810   -0.1020 ca        1 JDX     -0.085000
      7 C10         4.1660    0.2520    1.2870 ca        1 JDX     -0.085000
      8 C24        -5.5410    1.8820   -0.3650 ca        1 JDX     -0.151000
      9 C7          3.7930    2.1380   -0.7460 ca        1 JDX     -0.195500
     10 C9          5.2810    0.8040    0.6530 ca        1 JDX     -0.195500
     11 C13         0.4710   -3.1910    0.0720 ca        1 JDX     -0.095600
     12 C30        -2.7780    1.7510    0.1850 ca        1 JDX     -0.092600
     13 C5          2.8780    0.6390    0.9220 ca        1 JDX     -0.118300
     14 C18        -0.9110   -3.4090    0.0760 ca        1 JDX     -0.040300
     15 C22        -3.6240    0.6750    0.4970 ca        1 JDX     -0.062300
     16 C25        -4.7190    2.9550   -0.6940 ca        1 JDX     -0.156000
     17 C29        -3.3450    2.8870   -0.4160 ca        1 JDX      0.108100
     18 C8          5.0880    1.7460   -0.3610 ca        1 JDX      0.100100
     19 C2          1.1660   -2.2350    0.9970 c         1 JDX      0.653700
     20 C4          1.6700    0.0800    1.6250 c3        1 JDX      0.111300
     21 C19        -1.8450   -2.6200    0.9520 c3        1 JDX      0.213100
     22 C21        -3.0710   -0.5500    1.1730 c3        1 JDX      0.210100
     23 N3          0.9490   -0.8970    0.8490 n         1 JDX     -0.522900
     24 N20        -2.5060   -1.5290    0.2480 n3        1 JDX     -0.721600
     25 O33        -0.4660    1.4170   -0.3770 o         1 JDX     -0.833300
     26 O1          1.9470   -2.6980    1.8670 o         1 JDX     -0.663100
     27 O32        -0.9800    1.7820    1.7540 o         1 JDX     -0.833300
     28 O28        -2.6170    4.0460   -0.6670 os        1 JDX     -0.351900
     29 C20        -3.4220   -1.9730   -0.7710 c3        1 JDX      0.155100
     30 O11         6.1160    2.3630   -1.0620 os        1 JDX     -0.338900
     31 H15         1.4090   -5.5180   -2.2540 ha        1 JDX      0.122000
     32 H16        -1.0520   -5.9500   -2.2170 ha        1 JDX      0.118000
     33 H14         2.3840   -3.7730   -0.7530 ha        1 JDX      0.143000
     34 H17        -2.5260   -4.6050   -0.7270 ha        1 JDX      0.126000
     35 H23        -5.6430   -0.1070    0.4760 ha        1 JDX      0.112000
     36 H24        -6.6190    1.9320   -0.5700 ha        1 JDX      0.110000
     37 H6          1.6590    1.8670   -0.3820 ha        1 JDX      0.169000
     38 H7          3.6660    2.8770   -1.5480 ha        1 JDX      0.128500
     39 H10         4.3070   -0.5000    2.0780 ha        1 JDX      0.169000
     40 H9          6.2880    0.4910    0.9560 ha        1 JDX      0.128500
     41 H25        -5.1320    3.8630   -1.1540 ha        1 JDX      0.124000
     42 H41C        1.9890   -0.3860    2.6000 h1        1 JDX      0.094700
     43 H42C        0.9470    0.9340    1.8300 h1        1 JDX      0.094700
     44 H191       -2.5980   -3.3430    1.3930 h1        1 JDX      0.040700
     45 H192       -1.2610   -2.1830    1.8130 h1        1 JDX      0.040700
     46 H211       -2.2410   -0.2190    1.8680 h1        1 JDX      0.050200
     47 H212       -3.8900   -1.0150    1.8010 h1        1 JDX      0.050200
     48 H3          0.2890   -0.5370    0.1830 hn        1 JDX      0.372500
     49 H271       -2.2560    3.8970   -2.7160 h1        1 JDX      0.045033
     50 H272       -1.0890    4.8690   -1.6830 h1        1 JDX      0.045033
     51 H273       -1.0450    3.0260   -1.6350 h1        1 JDX      0.045033
     52 H121        7.6380    2.2300    0.3720 h1        1 JDX      0.032700
     53 H122        7.5900    0.8860   -0.8730 h1        1 JDX      0.032700
     54 H123        8.0850    2.5830   -1.3750 h1        1 JDX      0.032700
     55 H201       -4.2150   -2.6740   -0.3840 h1        1 JDX      0.026367
     56 H202       -3.9280   -1.0820   -1.2300 h1        1 JDX      0.026367
     57 H203       -2.8410   -2.5020   -1.5720 h1        1 JDX      0.026367
     58 C31        -1.3070    1.6560    0.5410 c         1 JDX      0.923200
     59 C27        -1.6940    3.9310   -1.7490 c3        1 JDX      0.101700
     60 C12         7.4320    1.9780   -0.6970 c3        1 JDX      0.119700
@<TRIPOS>BOND
     1    1    2 ar  
     2    1    3 ar  
     3    1   31 1   
     4    2    4 ar  
     5    2   32 1   
     6    3   11 ar  
     7    3   33 1   
     8    4   14 ar  
     9    4   34 1   
    10    5    8 ar  
    11    5   15 ar  
    12    5   35 1   
    13    6    9 ar  
    14    6   13 ar  
    15    6   37 1   
    16    7   10 ar  
    17    7   13 ar  
    18    7   39 1   
    19    8   16 ar  
    20    8   36 1   
    21    9   18 ar  
    22    9   38 1   
    23   10   18 ar  
    24   10   40 1   
    25   11   14 ar  
    26   11   19 1   
    27   12   15 ar  
    28   12   17 ar  
    29   12   58 1   
    30   13   20 1   
    31   14   21 1   
    32   15   22 1   
    33   16   17 ar  
    34   16   41 1   
    35   17   28 1   
    36   18   30 1   
    37   19   23 1   
    38   19   26 2   
    39   20   23 1   
    40   20   42 1   
    41   20   43 1   
    42   21   24 1   
    43   21   44 1   
    44   21   45 1   
    45   22   24 1   
    46   22   46 1   
    47   22   47 1   
    48   23   48 1   
    49   24   29 1   
    50   25   58 1   
    51   27   58 1   
    52   28   59 1   
    53   29   55 1   
    54   29   56 1   
    55   29   57 1   
    56   30   60 1   
    57   49   59 1   
    58   50   59 1   
    59   51   59 1   
    60   52   60 1   
    61   53   60 1   
    62   54   60 1   
@<TRIPOS>SUBSTRUCTURE
     1 JDX         1 TEMP              0 ****  ****    0 ROOT
