@<TRIPOS>MOLECULE
JE2
   78    81     1     0     0
SMALL
bcc


@<TRIPOS>ATOM
      1 C3          7.9980   -0.9890    0.3810 ca        1 JE2     -0.138000
      2 C4          7.3670   -1.3500   -0.8040 ca        1 JE2     -0.105000
      3 C5          5.9770   -1.3060   -0.9020 ca        1 JE2     -0.143000
      4 C6          5.2080   -0.9070    0.1960 ca        1 JE2     -0.099600
      5 C7          5.8110   -0.5400    1.4070 ca        1 JE2     -0.104300
      6 C1          7.2200   -0.5840    1.4780 ca        1 JE2      0.119100
      7 C8          5.0230   -0.1150    2.5860 c3        1 JE2     -0.069800
      8 C9          3.7210   -0.9020    0.0500 c         1 JE2      0.678700
      9 O2          7.9300   -0.2370    2.6040 oh        1 JE2     -0.498100
     10 O10         2.9680   -1.6190    0.7420 o         1 JE2     -0.623100
     11 C22        -0.2550   -1.3180   -1.8190 c         1 JE2      0.644100
     12 N11         3.2040   -0.0470   -0.9030 n         1 JE2     -0.551900
     13 O23        -0.9140   -1.0430   -2.8450 o         1 JE2     -0.616100
     14 C20         1.2750   -1.2760   -1.8820 c3        1 JE2      0.059100
     15 C14         1.5040    2.5010   -1.1970 ca        1 JE2     -0.087300
     16 C13         1.3940    1.2500   -1.9930 c3        1 JE2     -0.052100
     17 C17         1.6880    4.8640    0.2890 ca        1 JE2     -0.130000
     18 C12         1.7880    0.0110   -1.1700 c3        1 JE2      0.086700
     19 O21         1.7040   -1.3380   -3.2230 oh        1 JE2     -0.584800
     20 C15         2.5330    3.4150   -1.4500 ca        1 JE2     -0.124000
     21 C19         0.5650    2.7780   -0.1960 ca        1 JE2     -0.124000
     22 C16         2.6230    4.5920   -0.7090 ca        1 JE2     -0.129000
     23 C18         0.6600    3.9550    0.5440 ca        1 JE2     -0.129000
     24 C31        -2.8470   -0.1820   -0.2400 c         1 JE2      0.652100
     25 N24        -0.8920   -1.6640   -0.6430 n         1 JE2     -0.452800
     26 O32        -2.1830    0.6180    0.4510 o         1 JE2     -0.618100
     27 C30        -2.3430   -1.6210   -0.5390 c3        1 JE2      0.038700
     28 C27        -2.8150   -2.6120    0.5570 c3        1 JE2      0.047100
     29 C25        -0.2280   -1.9800    0.5930 c3        1 JE2      0.173100
     30 C28        -3.3250   -3.8850   -0.0820 c3        1 JE2     -0.091100
     31 C29        -3.8540   -2.0400    1.4890 c3        1 JE2     -0.091100
     32 S26        -1.3450   -3.0280    1.5380 ss        1 JE2     -0.318200
     33 C34        -4.6530    1.4660   -0.6090 c3        1 JE2      0.129300
     34 C35        -5.9230    1.3950    0.1940 ca        1 JE2     -0.126300
     35 C36        -5.9340    1.6460    1.5750 ca        1 JE2     -0.049300
     36 C37        -7.1520    1.5880    2.2670 ca        1 JE2     -0.135000
     37 C38        -8.3360    1.2820    1.6030 ca        1 JE2     -0.118000
     38 C39        -8.3200    1.0280    0.2310 ca        1 JE2     -0.138000
     39 C40        -7.1170    1.0850   -0.4670 ca        1 JE2     -0.121000
     40 C41        -4.6920    1.9810    2.3110 c3        1 JE2     -0.068800
     41 HC3         9.0930   -1.0140    0.4780 ha        1 JE2      0.154000
     42 HC4         7.9680   -1.6720   -1.6680 ha        1 JE2      0.140000
     43 HC5         5.4850   -1.5990   -1.8410 ha        1 JE2      0.143000
     44 HC81        5.2730    0.9410    2.8620 hc        1 JE2      0.056367
     45 HC82        3.9230   -0.1750    2.3910 hc        1 JE2      0.056367
     46 HC83        5.2480   -0.7760    3.4620 hc        1 JE2      0.056367
     47 HO2         7.3050   -0.0110    3.3080 ho        1 JE2      0.425000
     48 H11         3.8150    0.4270   -1.5250 hn        1 JE2      0.322500
     49 H20         1.7210   -2.1940   -1.3980 h1        1 JE2      0.114700
     50 H131        2.0250    1.3120   -2.9200 hc        1 JE2      0.066200
     51 H132        0.3280    1.1110   -2.3260 hc        1 JE2      0.066200
     52 H17         1.7600    5.7920    0.8740 ha        1 JE2      0.130000
     53 H12         1.2630    0.0630   -0.1660 h1        1 JE2      0.087700
     54 H21         1.1290   -0.7630   -3.7520 ho        1 JE2      0.425000
     55 H15         3.2720    3.2060   -2.2380 ha        1 JE2      0.142000
     56 H19        -0.2530    2.0650    0.0080 ha        1 JE2      0.142000
     57 H16         3.4340    5.3070   -0.9130 ha        1 JE2      0.132000
     58 H18        -0.0800    4.1670    1.3300 ha        1 JE2      0.132000
     59 H30        -2.7530   -1.9470   -1.5440 h1        1 JE2      0.105700
     60 H251        0.7430   -2.5180    0.4310 h2        1 JE2      0.099200
     61 H252       -0.0310   -1.0470    1.1890 h2        1 JE2      0.099200
     62 H281       -3.5500   -4.6450    0.7060 hc        1 JE2      0.053200
     63 H282       -4.2620   -3.6830   -0.6570 hc        1 JE2      0.053200
     64 H283       -2.5620   -4.3120   -0.7780 hc        1 JE2      0.053200
     65 H291       -3.4980   -1.0890    1.9570 hc        1 JE2      0.053200
     66 H292       -4.8080   -1.8420    0.9420 hc        1 JE2      0.053200
     67 H293       -4.0690   -2.7730    2.3070 hc        1 JE2      0.053200
     68 H33        -4.5900   -0.5110   -1.2680 hn        1 JE2      0.311500
     69 H341       -3.9100    2.1470   -0.1000 h1        1 JE2      0.072200
     70 H342       -4.8930    1.9100   -1.6210 h1        1 JE2      0.072200
     71 H37        -7.1690    1.7880    3.3490 ha        1 JE2      0.134000
     72 H38        -9.2840    1.2400    2.1590 ha        1 JE2      0.133000
     73 H39        -9.2540    0.7860   -0.2980 ha        1 JE2      0.133000
     74 H40        -7.1030    0.8920   -1.5510 ha        1 JE2      0.129000
     75 H411       -4.3730    3.0260    2.0660 hc        1 JE2      0.054033
     76 H412       -4.8470    1.9130    3.4150 hc        1 JE2      0.054033
     77 H413       -3.8580    1.2880    2.0260 hc        1 JE2      0.054033
     78 N33        -4.0320    0.1870   -0.8370 n         1 JE2     -0.550900
@<TRIPOS>BOND
     1    1    2 ar  
     2    1    6 ar  
     3    1   41 1   
     4    2    3 ar  
     5    2   42 1   
     6    3    4 ar  
     7    3   43 1   
     8    4    5 ar  
     9    4    8 1   
    10    5    6 ar  
    11    5    7 1   
    12    6    9 1   
    13    7   44 1   
    14    7   45 1   
    15    7   46 1   
    16    8   10 2   
    17    8   12 1   
    18    9   47 1   
    19   11   13 2   
    20   11   14 1   
    21   11   25 1   
    22   12   18 1   
    23   12   48 1   
    24   14   18 1   
    25   14   19 1   
    26   14   49 1   
    27   15   16 1   
    28   15   20 ar  
    29   15   21 ar  
    30   16   18 1   
    31   16   50 1   
    32   16   51 1   
    33   17   22 ar  
    34   17   23 ar  
    35   17   52 1   
    36   18   53 1   
    37   19   54 1   
    38   20   22 ar  
    39   20   55 1   
    40   21   23 ar  
    41   21   56 1   
    42   22   57 1   
    43   23   58 1   
    44   24   26 2   
    45   24   27 1   
    46   24   78 1   
    47   25   27 1   
    48   25   29 1   
    49   27   28 1   
    50   27   59 1   
    51   28   30 1   
    52   28   31 1   
    53   28   32 1   
    54   29   32 1   
    55   29   60 1   
    56   29   61 1   
    57   30   62 1   
    58   30   63 1   
    59   30   64 1   
    60   31   65 1   
    61   31   66 1   
    62   31   67 1   
    63   33   34 1   
    64   33   69 1   
    65   33   70 1   
    66   33   78 1   
    67   34   35 ar  
    68   34   39 ar  
    69   35   36 ar  
    70   35   40 1   
    71   36   37 ar  
    72   36   71 1   
    73   37   38 ar  
    74   37   72 1   
    75   38   39 ar  
    76   38   73 1   
    77   39   74 1   
    78   40   75 1   
    79   40   76 1   
    80   40   77 1   
    81   68   78 1   
@<TRIPOS>SUBSTRUCTURE
     1 JE2         1 TEMP              0 ****  ****    0 ROOT
