@<TRIPOS>MOLECULE
JE2
   78    70     1     0     0
SMALL
bcc


@<TRIPOS>ATOM
      1 C3         -5.5550    4.5330    2.4030 c1        1 JE2     -0.193000
      2 C4         -4.7890    4.3950    1.2520 c1        1 JE2     -0.121833
      3 C5         -4.1760    3.1800    0.9650 c1        1 JE2     -0.121833
      4 C6         -4.3290    2.1060    1.8270 c1        1 JE2     -0.092000
      5 C7         -5.0960    2.2430    2.9820 c1        1 JE2     -0.057000
      6 C1         -5.7090    3.4570    3.2680 c1        1 JE2      0.069000
      7 C8         -5.1670    1.1020    3.9870 c3        1 JE2     -0.186000
      8 C9         -3.6470    0.7560    1.5060 c2        1 JE2      0.343000
      9 O2         -6.5750    3.5630    4.3740 o         1 JE2     -0.248000
     10 O10        -3.7810   -0.1840    2.2610 o         1 JE2     -0.358000
     11 C22        -0.2760    0.3040    1.2530 c1        1 JE2      0.274000
     12 N11        -2.9400    0.5840    0.2560 n         1 JE2     -0.348000
     13 O23        -0.9650    0.1830    2.2480 o         1 JE2     -0.369000
     14 C20        -0.7250   -0.3100   -0.0600 c2        1 JE2      0.012000
     15 C14        -3.3000   -2.6010   -1.0590 c1        1 JE2     -0.092000
     16 C13        -2.6650   -1.2190   -1.3100 c2        1 JE2     -0.130000
     17 C17        -4.3370   -5.1380   -0.6310 c1        1 JE2     -0.121833
     18 C12        -2.2140   -0.6190    0.0070 c3        1 JE2      0.008000
     19 O21        -0.0140   -1.4920   -0.2900 oh        1 JE2     -0.330000
     20 C15        -3.7940   -3.3420   -2.1270 c2        1 JE2     -0.144000
     21 C19        -3.3260   -3.1280    0.2170 c1        1 JE2     -0.117000
     22 C16        -4.3120   -4.6100   -1.9100 c1        1 JE2     -0.139000
     23 C18        -3.8450   -4.4000    0.4340 c1        1 JE2     -0.121833
     24 C31         3.1520    0.5400    0.1310 c1        1 JE2      0.300000
     25 N24         0.9440    1.0870    1.3070 n3        1 JE2     -0.303000
     26 O32         3.6060    0.3130    1.2310 o         1 JE2     -0.360000
     27 C30         2.0470    1.3680   -0.0060 c2        1 JE2      0.015000
     28 C27         2.4200    2.6480    0.1770 c3        1 JE2     -0.134000
     29 C25         1.4220    1.7180    2.3660 c3        1 JE2     -0.125000
     30 C28         1.5100    3.5800   -0.6150 c3        1 JE2     -0.209500
     31 C29         3.8690    2.8400   -0.2510 c3        1 JE2     -0.209500
     32 S26         2.2610    2.9380    1.7940 ss        1 JE2      0.027000
     33 N33         3.7400   -0.0750   -1.0310 n3        1 JE2     -0.374000
     34 C34         4.0470   -1.4890   -1.0240 c3        1 JE2      0.011000
     35 C35         5.4430   -1.7130   -1.6180 c2        1 JE2     -0.105000
     36 C36         5.5770   -2.3450   -2.8500 c2        1 JE2     -0.057000
     37 C37         6.8370   -2.6800   -3.3250 c1        1 JE2     -0.133000
     38 C38         7.9640   -2.3850   -2.5710 c1        1 JE2     -0.121833
     39 C39         7.8310   -1.7530   -1.3400 c1        1 JE2     -0.121833
     40 C40         6.5720   -1.4180   -0.8650 c1        1 JE2     -0.108000
     41 C41         4.3510   -2.6520   -3.6790 c3        1 JE2     -0.185000
     42 HC3        -5.9880    5.3900    2.6050 ha        1 JE2      0.136000
     43 HC4        -4.6810    5.1540    0.6420 ha        1 JE2      0.137000
     44 HC5        -3.6370    3.0840    0.1540 ha        1 JE2      0.137000
     45 HC81       -4.2690    0.7330    4.1250 hc        1 JE2      0.100000
     46 HC82       -5.5180    1.4390    4.8410 hc        1 JE2      0.100000
     47 HC83       -5.7590    0.4020    3.6440 hc        1 JE2      0.100000
     48 HO2        -6.3800    4.2930    4.8310 ho        1 JE2      0.219000
     49 H11        -3.0060    1.2150   -0.3910 hn        1 JE2      0.232000
     50 H20        -0.5550    0.3220   -0.7920 h4        1 JE2      0.138000
     51 H131       -1.8910   -1.3180   -1.9060 ha        1 JE2      0.111000
     52 H132       -3.3220   -0.6300   -1.7260 ha        1 JE2      0.111000
     53 H17        -4.7010   -6.0290   -0.4790 ha        1 JE2      0.137000
     54 H12        -2.3800   -1.2500    0.7220 h1        1 JE2      0.109000
     55 H21        -0.0160   -1.6750   -1.1600 ho        1 JE2      0.231000
     56 H15        -3.7760   -2.9700   -3.0260 ha        1 JE2      0.132000
     57 H19        -2.9830   -2.6140    0.9590 ha        1 JE2      0.168000
     58 H16        -4.6580   -5.1290   -2.6590 ha        1 JE2      0.129000
     59 H18        -3.8630   -4.7710    1.3330 ha        1 JE2      0.137000
     60 H30         1.7410    1.1180   -0.9060 h4        1 JE2      0.132000
     61 H251        1.9990    1.1240    2.8820 h2        1 JE2      0.141500
     62 H252        0.6830    2.0470    2.9270 h2        1 JE2      0.141500
     63 H281        1.6440    3.4320   -1.5690 hc        1 JE2      0.092500
     64 H282        0.5720    3.3960   -0.3840 hc        1 JE2      0.092500
     65 H283        1.7250    4.5150   -0.3940 hc        1 JE2      0.092500
     66 H291        4.0270    3.7810   -0.4520 hc        1 JE2      0.092500
     67 H292        4.0480    2.3000   -1.0500 hc        1 JE2      0.092500
     68 H293        4.4650    2.5560    0.4750 hc        1 JE2      0.092500
     69 H33         3.8640    0.4150   -1.7920 hn        1 JE2      0.236000
     70 H341        4.0280   -1.8240   -0.1020 h1        1 JE2      0.104000
     71 H342        3.3830   -1.9700   -1.5590 h1        1 JE2      0.104000
     72 H37         6.9310   -3.1260   -4.1930 ha        1 JE2      0.133000
     73 H38         8.8540   -2.6210   -2.9070 ha        1 JE2      0.137000
     74 H39         8.6240   -1.5450   -0.8110 ha        1 JE2      0.137000
     75 H40         6.4780   -0.9700    0.0070 ha        1 JE2      0.138000
     76 H411        4.6200   -3.1260   -4.4990 hc        1 JE2      0.085667
     77 H412        3.9020   -1.8160   -3.9180 hc        1 JE2      0.085667
     78 H413        3.7380   -3.2160   -3.1600 hc        1 JE2      0.085667
@<TRIPOS>BOND
     1    1    6 1   
     2    1   42 1   
     3    2    3 1   
     4    2   43 1   
     5    3   44 1   
     6    4    5 1   
     7    4    8 1   
     8    5    7 1   
     9    7   45 1   
    10    7   46 1   
    11    7   47 1   
    12    8   10 1   
    13    8   12 1   
    14    9   48 1   
    15   11   13 1   
    16   11   25 1   
    17   12   18 1   
    18   12   49 1   
    19   14   18 1   
    20   14   19 1   
    21   14   50 1   
    22   15   20 1   
    23   15   21 1   
    24   16   18 1   
    25   16   51 1   
    26   16   52 1   
    27   17   23 1   
    28   17   53 1   
    29   18   54 1   
    30   19   55 1   
    31   20   22 1   
    32   20   56 1   
    33   21   57 1   
    34   22   58 1   
    35   23   59 1   
    36   24   26 1   
    37   24   33 1   
    38   25   27 1   
    39   25   29 1   
    40   27   28 1   
    41   27   60 1   
    42   28   30 1   
    43   28   31 1   
    44   28   32 1   
    45   29   32 1   
    46   29   61 1   
    47   29   62 1   
    48   30   63 1   
    49   30   64 1   
    50   30   65 1   
    51   31   66 1   
    52   31   67 1   
    53   31   68 1   
    54   33   34 1   
    55   33   69 1   
    56   34   35 1   
    57   34   70 1   
    58   34   71 1   
    59   35   36 1   
    60   35   40 1   
    61   36   37 1   
    62   36   41 1   
    63   37   72 1   
    64   38   39 1   
    65   38   73 1   
    66   39   74 1   
    67   40   75 1   
    68   41   76 1   
    69   41   77 1   
    70   41   78 1   
@<TRIPOS>SUBSTRUCTURE
     1 JE2         1 TEMP              0 ****  ****    0 ROOT
