@<TRIPOS>MOLECULE
JEF
  105   104     1     0     0
SMALL
bcc


@<TRIPOS>ATOM
      1 C38        -0.8660   -0.9000   -0.9550 c3        1 JEF      0.112700
      2 O12         0.5200   -0.8390   -1.2540 os        1 JEF     -0.447600
      3 C37         1.3210   -0.6210   -0.0920 c3        1 JEF      0.125400
      4 C36         2.7710   -0.5440   -0.5560 c3        1 JEF      0.123400
      5 O11         3.0210    0.8170   -0.9000 os        1 JEF     -0.419600
      6 C33         4.3760    1.0540   -1.2950 c3        1 JEF      0.141100
      7 C34         4.5590    0.7790   -2.7740 c3        1 JEF     -0.120100
      8 C32         4.6860    2.5110   -0.9360 c3        1 JEF      0.128400
      9 O10         3.8620    3.3550   -1.7350 os        1 JEF     -0.419600
     10 C19         4.0090    4.7420   -1.4110 c3        1 JEF      0.119100
     11 C40         5.1100    5.3630   -2.2470 c3        1 JEF     -0.117100
     12 C20         2.6520    5.4080   -1.6750 c3        1 JEF      0.130400
     13 O           2.2630    5.2310   -3.0330 os        1 JEF     -0.429600
     14 C           1.0170    4.5510   -3.2080 c3        1 JEF      0.113100
     15 C18         1.1070    3.0870   -2.8360 c3        1 JEF     -0.130100
     16 C17         0.6420    4.7390   -4.6830 c3        1 JEF      0.132400
     17 OH          1.4690    3.9980   -5.5690 os        1 JEF     -0.468600
     18 C2          2.7390    4.6030   -5.8570 c3        1 JEF      0.118100
     19 C1          2.8220    4.7930   -7.3580 c3        1 JEF     -0.114100
     20 C3          3.8520    3.7120   -5.2970 c3        1 JEF      0.098400
     21 O2          3.8680    2.4130   -5.8780 os        1 JEF     -0.453600
     22 C5          4.8470    2.2330   -6.9100 c3        1 JEF      0.108100
     23 C6          6.2390    2.1170   -6.3200 c3        1 JEF     -0.126100
     24 C4          4.4760    0.9260   -7.6230 c3        1 JEF      0.121400
     25 O3          3.1330    0.9580   -8.0840 os        1 JEF     -0.444600
     26 C7          2.9700    1.3420   -9.4530 c3        1 JEF      0.140100
     27 C9          3.2320    0.1620  -10.3670 c3        1 JEF     -0.124100
     28 C8          1.5280    1.8490   -9.5930 c3        1 JEF      0.121400
     29 O4          0.6750    0.9580   -8.8800 os        1 JEF     -0.433600
     30 C11        -0.6900    1.0020   -9.3110 c3        1 JEF      0.121100
     31 C12        -1.3640    2.2870   -8.8730 c3        1 JEF     -0.130100
     32 C10        -1.3590   -0.2320   -8.6900 c3        1 JEF      0.131400
     33 O5         -1.1030   -0.2370   -7.2900 os        1 JEF     -0.456600
     34 C13        -2.2360   -0.5370   -6.4680 c3        1 JEF      0.127100
     35 C15        -3.1390    0.6690   -6.3170 c3        1 JEF     -0.123100
     36 C14        -1.6560   -0.9860   -5.1200 c3        1 JEF      0.123400
     37 O6         -0.9270    0.0950   -4.5390 os        1 JEF     -0.429600
     38 C16         0.3740   -0.2230   -4.0780 c3        1 JEF      0.100400
     39 C30         1.4670    0.0160   -5.1420 c3        1 JEF      0.101500
     40 C31         1.6910   -1.2210   -5.9990 c3        1 JEF     -0.127100
     41 N1          1.1670    1.2110   -5.9850 nz        1 JEF     -0.831600
     42 H381       -1.2000    0.0240   -0.4220 h1        1 JEF      0.038033
     43 H382       -1.0910   -1.8020   -0.3350 h1        1 JEF      0.038033
     44 H383       -1.3600   -0.9730   -1.9580 h1        1 JEF      0.038033
     45 H371        1.0120    0.3350    0.4080 h1        1 JEF      0.049700
     46 H372        1.1930   -1.4820    0.6150 h1        1 JEF      0.049700
     47 H361        3.4510   -0.8580    0.2800 h1        1 JEF      0.042200
     48 H362        2.9400   -1.2020   -1.4490 h1        1 JEF      0.042200
     49 H33         5.0720    0.4030   -0.6930 h1        1 JEF      0.047700
     50 H341        4.2560   -0.2680   -3.0140 hc        1 JEF      0.045367
     51 H342        5.6300    0.9200   -3.0550 hc        1 JEF      0.045367
     52 H343        3.9370    1.4840   -3.3780 hc        1 JEF      0.045367
     53 H321        5.7660    2.7240   -1.1510 h1        1 JEF      0.041700
     54 H322        4.4700    2.6860    0.1510 h1        1 JEF      0.041700
     55 H19         4.2430    4.8650   -0.3150 h1        1 JEF      0.050700
     56 H401        6.0700    4.8160   -2.0930 hc        1 JEF      0.046033
     57 H402        5.2500    6.4320   -1.9570 hc        1 JEF      0.046033
     58 H403        4.8380    5.3150   -3.3300 hc        1 JEF      0.046033
     59 H201        1.8880    5.0030   -0.9640 h1        1 JEF      0.055700
     60 H202        2.7610    6.5180   -1.5300 h1        1 JEF      0.055700
     61 H           0.2300    5.0600   -2.5790 h1        1 JEF      0.049700
     62 H181        1.8330    2.5630   -3.5070 hc        1 JEF      0.052700
     63 H182        0.1020    2.6110   -2.9270 hc        1 JEF      0.052700
     64 H183        1.4840    2.9620   -1.7900 hc        1 JEF      0.052700
     65 H171        0.6580    5.8290   -4.9460 h1        1 JEF      0.060700
     66 H172       -0.3850    4.3140   -4.8540 h1        1 JEF      0.060700
     67 H2          2.8240    5.5990   -5.3330 h1        1 JEF      0.082700
     68 H11A        2.7630    3.8030   -7.8750 hc        1 JEF      0.046700
     69 H12         1.9780    5.4310   -7.7130 hc        1 JEF      0.046700
     70 H13A        3.7880    5.2870   -7.6220 hc        1 JEF      0.046700
     71 H31         4.8340    4.2340   -5.4290 h1        1 JEF      0.080700
     72 H32         3.6590    3.5330   -4.1970 h1        1 JEF      0.080700
     73 H5          4.7940    3.0940   -7.6330 h1        1 JEF      0.050700
     74 H61         6.9600    1.7800   -7.1030 hc        1 JEF      0.052700
     75 H62         6.5820    3.1020   -5.9230 hc        1 JEF      0.052700
     76 H63         6.2420    1.3800   -5.4800 hc        1 JEF      0.052700
     77 H41         5.2020    0.7370   -8.4540 h1        1 JEF      0.065200
     78 H42         4.4990    0.0730   -6.8910 h1        1 JEF      0.065200
     79 H7          3.6660    2.1940   -9.6950 h1        1 JEF      0.050700
     80 H91         3.1310    0.4760  -11.4330 hc        1 JEF      0.054033
     81 H92         4.2620   -0.2360  -10.2050 hc        1 JEF      0.054033
     82 H93         2.4990   -0.6530  -10.1550 hc        1 JEF      0.054033
     83 H81         1.2560    1.8870  -10.6810 h1        1 JEF      0.047700
     84 H82         1.4260    2.8730   -9.1430 h1        1 JEF      0.047700
     85 H11        -0.7340    0.9010  -10.4320 h1        1 JEF      0.058700
     86 H121       -1.3620    2.3600   -7.7580 hc        1 JEF      0.050367
     87 H122       -0.8320    3.1720   -9.2950 hc        1 JEF      0.050367
     88 H123       -2.4220    2.3000   -9.2300 hc        1 JEF      0.050367
     89 H101       -2.4550   -0.2100   -8.9210 h1        1 JEF      0.059700
     90 H102       -0.8940   -1.1670   -9.1040 h1        1 JEF      0.059700
     91 H13        -2.8050   -1.4010   -6.9140 h1        1 JEF      0.057700
     92 H151       -4.0530    0.3890   -5.7410 hc        1 JEF      0.052367
     93 H152       -2.6050    1.4840   -5.7700 hc        1 JEF      0.052367
     94 H153       -3.4450    1.0550   -7.3200 hc        1 JEF      0.052367
     95 H141       -1.0150   -1.8930   -5.2610 h1        1 JEF      0.060200
     96 H142       -2.5000   -1.2140   -4.4150 h1        1 JEF      0.060200
     97 H161        0.5320    0.4780   -3.2060 h1        1 JEF      0.094700
     98 H162        0.4490   -1.2780   -3.7050 h1        1 JEF      0.094700
     99 H30         2.4260    0.2550   -4.5820 hx        1 JEF      0.103700
    100 H311        1.9860   -2.0710   -5.3380 hc        1 JEF      0.069700
    101 H312        0.7570   -1.4950   -6.5530 hc        1 JEF      0.069700
    102 H313        2.5040   -1.0430   -6.7470 hc        1 JEF      0.069700
    103 HN11        2.0300    1.5680   -6.4240 hn        1 JEF      0.473133
    104 HN12        0.7660    1.9520   -5.4000 hn        1 JEF      0.473133
    105 H131        0.5000    0.9600   -6.7300 hn        1 JEF      0.473133
@<TRIPOS>BOND
     1    1    2 1   
     2    1   42 1   
     3    1   43 1   
     4    1   44 1   
     5    2    3 1   
     6    3    4 1   
     7    3   45 1   
     8    3   46 1   
     9    4    5 1   
    10    4   47 1   
    11    4   48 1   
    12    5    6 1   
    13    6    7 1   
    14    6    8 1   
    15    6   49 1   
    16    7   50 1   
    17    7   51 1   
    18    7   52 1   
    19    8    9 1   
    20    8   53 1   
    21    8   54 1   
    22    9   10 1   
    23   10   11 1   
    24   10   12 1   
    25   10   55 1   
    26   11   56 1   
    27   11   57 1   
    28   11   58 1   
    29   12   13 1   
    30   12   59 1   
    31   12   60 1   
    32   13   14 1   
    33   14   15 1   
    34   14   16 1   
    35   14   61 1   
    36   15   62 1   
    37   15   63 1   
    38   15   64 1   
    39   16   17 1   
    40   16   65 1   
    41   16   66 1   
    42   17   18 1   
    43   18   19 1   
    44   18   20 1   
    45   18   67 1   
    46   19   68 1   
    47   19   69 1   
    48   19   70 1   
    49   20   21 1   
    50   20   71 1   
    51   20   72 1   
    52   21   22 1   
    53   22   23 1   
    54   22   24 1   
    55   22   73 1   
    56   23   74 1   
    57   23   75 1   
    58   23   76 1   
    59   24   25 1   
    60   24   77 1   
    61   24   78 1   
    62   25   26 1   
    63   26   27 1   
    64   26   28 1   
    65   26   79 1   
    66   27   80 1   
    67   27   81 1   
    68   27   82 1   
    69   28   29 1   
    70   28   83 1   
    71   28   84 1   
    72   29   30 1   
    73   30   31 1   
    74   30   32 1   
    75   30   85 1   
    76   31   86 1   
    77   31   87 1   
    78   31   88 1   
    79   32   33 1   
    80   32   89 1   
    81   32   90 1   
    82   33   34 1   
    83   34   35 1   
    84   34   36 1   
    85   34   91 1   
    86   35   92 1   
    87   35   93 1   
    88   35   94 1   
    89   36   37 1   
    90   36   95 1   
    91   36   96 1   
    92   37   38 1   
    93   38   39 1   
    94   38   97 1   
    95   38   98 1   
    96   39   40 1   
    97   39   41 1   
    98   39   99 1   
    99   40  100 1   
   100   40  101 1   
   101   40  102 1   
   102   41  103 1   
   103   41  104 1   
   104   41  105 1   
@<TRIPOS>SUBSTRUCTURE
     1 JEF         1 TEMP              0 ****  ****    0 ROOT
