@<TRIPOS>MOLECULE
JEF
  105   104     1     0     0
SMALL
bcc


@<TRIPOS>ATOM
      1 C38        -0.5460   -1.2920   -1.6510 c3        1 JEF      0.106700
      2 O12         0.8210   -0.9270   -1.5310 os        1 JEF     -0.447600
      3 C37         1.2000   -0.6680   -0.1800 c3        1 JEF      0.123400
      4 C36         2.7030   -0.4140   -0.1780 c3        1 JEF      0.122400
      5 O11         2.8900    0.9720   -0.4560 os        1 JEF     -0.430600
      6 C33         4.2260    1.4210   -0.1980 c3        1 JEF      0.142100
      7 C34         5.2110    0.8400   -1.1910 c3        1 JEF     -0.116100
      8 C32         4.1680    2.9500   -0.2530 c3        1 JEF      0.127400
      9 O10         4.3170    3.3620   -1.6100 os        1 JEF     -0.418600
     10 C19         4.2220    4.7800   -1.7720 c3        1 JEF      0.141100
     11 C40         5.1570    5.1570   -2.9050 c3        1 JEF     -0.091100
     12 C20         2.7710    5.1840   -2.0530 c3        1 JEF      0.102400
     13 O           2.4590    4.8290   -3.3990 os        1 JEF     -0.423600
     14 C           1.1130    5.1510   -3.7610 c3        1 JEF      0.107100
     15 C18         0.1580    4.0650   -3.3070 c3        1 JEF     -0.119100
     16 C17         1.0910    5.3150   -5.2870 c3        1 JEF      0.131400
     17 OH          1.8680    4.3270   -5.9520 os        1 JEF     -0.453600
     18 C2          3.2250    4.7290   -6.2030 c3        1 JEF      0.139100
     19 C1          3.3100    5.4270   -7.5450 c3        1 JEF     -0.119100
     20 C3          4.0890    3.4650   -6.1540 c3        1 JEF      0.112400
     21 O2          3.6040    2.5530   -7.1360 os        1 JEF     -0.453600
     22 C5          4.5920    1.6510   -7.6440 c3        1 JEF      0.131100
     23 C6          4.9630    0.5920   -6.6270 c3        1 JEF     -0.128100
     24 C4          3.9800    1.0520   -8.9130 c3        1 JEF      0.126400
     25 O3          2.7900    0.3430   -8.5650 os        1 JEF     -0.451600
     26 C7          1.9520    0.0920   -9.7040 c3        1 JEF      0.141100
     27 C9          1.4280   -1.3270   -9.6020 c3        1 JEF     -0.108100
     28 C8          0.8340    1.1380   -9.7520 c3        1 JEF      0.105400
     29 O4          0.0350    1.0000   -8.5770 os        1 JEF     -0.447600
     30 C11        -1.1080    1.8650   -8.5760 c3        1 JEF      0.102100
     31 C12        -0.7030    3.3030   -8.3180 c3        1 JEF     -0.130100
     32 C10        -2.0540    1.3410   -7.4810 c3        1 JEF      0.127400
     33 O5         -1.3760    0.5070   -6.5530 os        1 JEF     -0.444600
     34 C13        -1.4950   -0.9000   -6.8240 c3        1 JEF      0.133100
     35 C15        -2.6620   -1.4630   -6.0410 c3        1 JEF     -0.115100
     36 C14        -0.1690   -1.5550   -6.4260 c3        1 JEF      0.104400
     37 O6          0.0700   -1.3600   -5.0360 os        1 JEF     -0.407600
     38 C16         1.3590   -0.8800   -4.7040 c3        1 JEF      0.106400
     39 C30         1.3690    0.6590   -4.6350 c3        1 JEF      0.096500
     40 C31         2.5200    1.1250   -3.7570 c3        1 JEF     -0.144100
     41 N1          1.4160    1.2860   -5.9910 n4        1 JEF     -0.855600
     42 H381       -0.7470   -2.2430   -1.0980 h1        1 JEF      0.042033
     43 H382       -0.7010   -1.4350   -2.7520 h1        1 JEF      0.042033
     44 H383       -1.2060   -0.4780   -1.2620 h1        1 JEF      0.042033
     45 H371        0.6400    0.2270    0.2000 h1        1 JEF      0.047700
     46 H372        0.9670   -1.5630    0.4550 h1        1 JEF      0.047700
     47 H361        3.1260   -0.6700    0.8290 h1        1 JEF      0.044200
     48 H362        3.2110   -1.0230   -0.9720 h1        1 JEF      0.044200
     49 H33         4.5130    1.1250    0.8530 h1        1 JEF      0.047700
     50 H341        4.8220    0.9720   -2.2300 hc        1 JEF      0.047700
     51 H342        5.3680   -0.2470   -0.9970 hc        1 JEF      0.047700
     52 H343        6.1880    1.3720   -1.1050 hc        1 JEF      0.047700
     53 H321        3.1870    3.3120    0.1520 h1        1 JEF      0.043700
     54 H322        5.0130    3.3710    0.3570 h1        1 JEF      0.043700
     55 H19         4.5380    5.3050   -0.8250 h1        1 JEF      0.052700
     56 H401        5.0210    6.2350   -3.1550 hc        1 JEF      0.047033
     57 H402        6.2160    4.9730   -2.6060 hc        1 JEF      0.047033
     58 H403        4.9280    4.5420   -3.8100 hc        1 JEF      0.047033
     59 H201        2.6580    6.2940   -1.9260 h1        1 JEF      0.041200
     60 H202        2.0800    4.6500   -1.3490 h1        1 JEF      0.041200
     61 H           0.8140    6.1340   -3.2960 h1        1 JEF      0.053700
     62 H181        0.2310    3.9140   -2.2030 hc        1 JEF      0.044367
     63 H182        0.4100    3.1010   -3.8100 hc        1 JEF      0.044367
     64 H183       -0.8900    4.3470   -3.5630 hc        1 JEF      0.044367
     65 H171        1.4350    6.3450   -5.5660 h1        1 JEF      0.058700
     66 H172        0.0450    5.1480   -5.6640 h1        1 JEF      0.058700
     67 H2          3.5790    5.4070   -5.3740 h1        1 JEF      0.078700
     68 H11A        4.3560    5.7700   -7.7280 hc        1 JEF      0.050033
     69 H12         2.6300    6.3120   -7.5630 hc        1 JEF      0.050033
     70 H13A        3.0080    4.7280   -8.3610 hc        1 JEF      0.050033
     71 H31         5.1570    3.7450   -6.3500 h1        1 JEF      0.055700
     72 H32         3.9980    2.9760   -5.1460 h1        1 JEF      0.055700
     73 H5          5.5110    2.2320   -7.9430 h1        1 JEF      0.061700
     74 H61         5.7900   -0.0420   -7.0310 hc        1 JEF      0.051033
     75 H62         5.3050    1.0680   -5.6770 hc        1 JEF      0.051033
     76 H63         4.0910   -0.0700   -6.4050 hc        1 JEF      0.051033
     77 H41         4.7070    0.3330   -9.3740 h1        1 JEF      0.053200
     78 H42         3.7400    1.8790   -9.6330 h1        1 JEF      0.053200
     79 H7          2.5500    0.2020  -10.6540 h1        1 JEF      0.060700
     80 H91         1.2990   -1.7520  -10.6270 hc        1 JEF      0.054700
     81 H92         2.1470   -1.9660   -9.0360 hc        1 JEF      0.054700
     82 H93         0.4380   -1.3500   -9.0860 hc        1 JEF      0.054700
     83 H81         1.2780    2.1680   -9.7800 h1        1 JEF      0.049200
     84 H82         0.2020    0.9670  -10.6630 h1        1 JEF      0.049200
     85 H11        -1.6280    1.7940   -9.5740 h1        1 JEF      0.056700
     86 H121       -1.6130    3.9340   -8.1790 hc        1 JEF      0.051033
     87 H122       -0.1230    3.7080   -9.1820 hc        1 JEF      0.051033
     88 H123       -0.0660    3.3790   -7.4020 hc        1 JEF      0.051033
     89 H101       -2.9220    0.8080   -7.9480 h1        1 JEF      0.064200
     90 H102       -2.4350    2.1990   -6.8620 h1        1 JEF      0.064200
     91 H13        -1.6350   -1.0650   -7.9300 h1        1 JEF      0.057700
     92 H151       -2.7960   -2.5430   -6.2860 hc        1 JEF      0.054367
     93 H152       -3.5980   -0.9110   -6.2940 hc        1 JEF      0.054367
     94 H153       -2.4700   -1.3610   -4.9450 hc        1 JEF      0.054367
     95 H141        0.6640   -1.1470   -7.0580 h1        1 JEF      0.058200
     96 H142       -0.2530   -2.6640   -6.5840 h1        1 JEF      0.058200
     97 H161        2.1500   -1.2700   -5.3960 h1        1 JEF      0.088200
     98 H162        1.5330   -1.2720   -3.6590 h1        1 JEF      0.088200
     99 H30         0.3860    0.9810   -4.1710 hx        1 JEF      0.114700
    100 H311        2.5300    2.2400   -3.6430 hc        1 JEF      0.082033
    101 H312        2.3910    0.6840   -2.7310 hc        1 JEF      0.082033
    102 H313        3.5020    0.7920   -4.1720 hc        1 JEF      0.082033
    103 HN11        2.2140    0.9340   -6.5390 hn        1 JEF      0.471467
    104 HN12        1.5310    2.3040   -5.9010 hn        1 JEF      0.471467
    105 H131        0.5520    1.0790   -6.5130 hn        1 JEF      0.471467
@<TRIPOS>BOND
     1    1    2 1   
     2    1   42 1   
     3    1   43 1   
     4    1   44 1   
     5    2    3 1   
     6    3    4 1   
     7    3   45 1   
     8    3   46 1   
     9    4    5 1   
    10    4   47 1   
    11    4   48 1   
    12    5    6 1   
    13    6    7 1   
    14    6    8 1   
    15    6   49 1   
    16    7   50 1   
    17    7   51 1   
    18    7   52 1   
    19    8    9 1   
    20    8   53 1   
    21    8   54 1   
    22    9   10 1   
    23   10   11 1   
    24   10   12 1   
    25   10   55 1   
    26   11   56 1   
    27   11   57 1   
    28   11   58 1   
    29   12   13 1   
    30   12   59 1   
    31   12   60 1   
    32   13   14 1   
    33   14   15 1   
    34   14   16 1   
    35   14   61 1   
    36   15   62 1   
    37   15   63 1   
    38   15   64 1   
    39   16   17 1   
    40   16   65 1   
    41   16   66 1   
    42   17   18 1   
    43   18   19 1   
    44   18   20 1   
    45   18   67 1   
    46   19   68 1   
    47   19   69 1   
    48   19   70 1   
    49   20   21 1   
    50   20   71 1   
    51   20   72 1   
    52   21   22 1   
    53   22   23 1   
    54   22   24 1   
    55   22   73 1   
    56   23   74 1   
    57   23   75 1   
    58   23   76 1   
    59   24   25 1   
    60   24   77 1   
    61   24   78 1   
    62   25   26 1   
    63   26   27 1   
    64   26   28 1   
    65   26   79 1   
    66   27   80 1   
    67   27   81 1   
    68   27   82 1   
    69   28   29 1   
    70   28   83 1   
    71   28   84 1   
    72   29   30 1   
    73   30   31 1   
    74   30   32 1   
    75   30   85 1   
    76   31   86 1   
    77   31   87 1   
    78   31   88 1   
    79   32   33 1   
    80   32   89 1   
    81   32   90 1   
    82   33   34 1   
    83   34   35 1   
    84   34   36 1   
    85   34   91 1   
    86   35   92 1   
    87   35   93 1   
    88   35   94 1   
    89   36   37 1   
    90   36   95 1   
    91   36   96 1   
    92   37   38 1   
    93   38   39 1   
    94   38   97 1   
    95   38   98 1   
    96   39   40 1   
    97   39   41 1   
    98   39   99 1   
    99   40  100 1   
   100   40  101 1   
   101   40  102 1   
   102   41  103 1   
   103   41  104 1   
   104   41  105 1   
@<TRIPOS>SUBSTRUCTURE
     1 JEF         1 TEMP              0 ****  ****    0 ROOT
