@<TRIPOS>MOLECULE
JEF
  105   104     1     0     0
SMALL
bcc


@<TRIPOS>ATOM
      1 C38         0.8030   -4.0720   -2.0680 c3        1 JEF      0.110700
      2 O12         1.7570   -3.0260   -2.1750 os        1 JEF     -0.444600
      3 C37         2.3810   -2.7250   -0.9270 c3        1 JEF      0.119400
      4 C36         3.5540   -1.7970   -1.2180 c3        1 JEF      0.122400
      5 O11         3.0340   -0.4720   -1.3250 os        1 JEF     -0.439600
      6 C33         3.9990    0.5430   -1.0320 c3        1 JEF      0.136100
      7 C34         5.0260    0.6690   -2.1360 c3        1 JEF     -0.120100
      8 C32         3.2100    1.8360   -0.8080 c3        1 JEF      0.128400
      9 O10         2.6910    2.3090   -2.0530 os        1 JEF     -0.450600
     10 C19         2.1720    3.6450   -1.9390 c3        1 JEF      0.117100
     11 C40         3.2810    4.6540   -2.1520 c3        1 JEF     -0.117100
     12 C20         1.0520    3.7760   -2.9780 c3        1 JEF      0.110400
     13 O           1.6000    3.9870   -4.2750 os        1 JEF     -0.461600
     14 C           1.2160    5.2290   -4.8900 c3        1 JEF      0.148100
     15 C18         0.0340    4.9830   -5.8030 c3        1 JEF     -0.117100
     16 C17         2.4410    5.7740   -5.6330 c3        1 JEF      0.119400
     17 OH          2.5050    5.1610   -6.9150 os        1 JEF     -0.422600
     18 C2          3.5470    5.6850   -7.7470 c3        1 JEF      0.128100
     19 C1          3.0610    5.5530   -9.1780 c3        1 JEF     -0.095100
     20 C3          4.8520    4.9120   -7.5250 c3        1 JEF      0.104400
     21 O2          4.6270    3.5340   -7.8090 os        1 JEF     -0.423600
     22 C5          5.1780    2.6370   -6.8430 c3        1 JEF      0.111100
     23 C6          4.5620    2.8370   -5.4710 c3        1 JEF     -0.137100
     24 C4          4.9210    1.2260   -7.3880 c3        1 JEF      0.136400
     25 O3          3.5400    0.8980   -7.4300 os        1 JEF     -0.458600
     26 C7          2.8700    1.2730   -8.6460 c3        1 JEF      0.120100
     27 C9          2.3450    0.0090   -9.2960 c3        1 JEF     -0.111100
     28 C8          1.7590    2.2660   -8.2940 c3        1 JEF      0.093400
     29 O4          0.7390    1.6550   -7.5120 os        1 JEF     -0.451600
     30 C11        -0.4920    1.4320   -8.2080 c3        1 JEF      0.130100
     31 C12        -1.3120    2.7070   -8.2400 c3        1 JEF     -0.130100
     32 C10        -1.2190    0.3050   -7.4620 c3        1 JEF      0.130400
     33 O5         -0.9460    0.4090   -6.0690 os        1 JEF     -0.446600
     34 C13        -2.0930    0.3100   -5.2180 c3        1 JEF      0.125100
     35 C15        -2.7460    1.6660   -5.0500 c3        1 JEF     -0.119100
     36 C14        -1.5730   -0.2460   -3.8850 c3        1 JEF      0.123400
     37 O6         -0.5460    0.6070   -3.3840 os        1 JEF     -0.431600
     38 C16         0.6550   -0.0420   -3.0060 c3        1 JEF      0.108400
     39 C30         1.6840   -0.1320   -4.1540 c3        1 JEF      0.106500
     40 C31         1.4520   -1.3470   -5.0360 c3        1 JEF     -0.131100
     41 N1          1.7170    1.1340   -4.9470 n4        1 JEF     -0.837600
     42 H381       -0.0190   -3.7820   -1.3680 h1        1 JEF      0.040367
     43 H382        1.2890   -5.0160   -1.7170 h1        1 JEF      0.040367
     44 H383        0.4110   -4.1980   -3.1080 h1        1 JEF      0.040367
     45 H371        1.6330   -2.2300   -0.2530 h1        1 JEF      0.049700
     46 H372        2.7600   -3.6680   -0.4510 h1        1 JEF      0.049700
     47 H361        4.3000   -1.8690   -0.3830 h1        1 JEF      0.049700
     48 H362        4.0440   -2.0660   -2.1910 h1        1 JEF      0.049700
     49 H33         4.5130    0.2950   -0.0580 h1        1 JEF      0.054700
     50 H341        5.5820   -0.2910   -2.2600 hc        1 JEF      0.047367
     51 H342        5.7510    1.4800   -1.8870 hc        1 JEF      0.047367
     52 H343        4.5240    0.9220   -3.1010 hc        1 JEF      0.047367
     53 H321        3.8990    2.6030   -0.3650 h1        1 JEF      0.050700
     54 H322        2.3500    1.6410   -0.1130 h1        1 JEF      0.050700
     55 H19         1.7100    3.7820   -0.9200 h1        1 JEF      0.055700
     56 H401        4.0160    4.6150   -1.3130 hc        1 JEF      0.050033
     57 H402        2.8480    5.6810   -2.2100 hc        1 JEF      0.050033
     58 H403        3.8160    4.4340   -3.1090 hc        1 JEF      0.050033
     59 H201        0.4660    2.8150   -3.0350 h1        1 JEF      0.064700
     60 H202        0.3660    4.6060   -2.6680 h1        1 JEF      0.064700
     61 H           0.9490    5.9840   -4.0960 h1        1 JEF      0.050700
     62 H181        0.2950    4.2090   -6.5700 hc        1 JEF      0.054033
     63 H182       -0.2390    5.9290   -6.3270 hc        1 JEF      0.054033
     64 H183       -0.8410    4.6190   -5.2120 hc        1 JEF      0.054033
     65 H171        3.3770    5.5430   -5.0550 h1        1 JEF      0.042200
     66 H172        2.3310    6.8860   -5.7480 h1        1 JEF      0.042200
     67 H2          3.7360    6.7690   -7.5020 h1        1 JEF      0.050700
     68 H11A        2.9190    4.4740   -9.4320 hc        1 JEF      0.051367
     69 H12         2.0900    6.0850   -9.3070 hc        1 JEF      0.051367
     70 H13A        3.8190    5.9930   -9.8690 hc        1 JEF      0.051367
     71 H31         5.6300    5.2740   -8.2510 h1        1 JEF      0.048200
     72 H32         5.2150    5.0700   -6.4770 h1        1 JEF      0.048200
     73 H5          6.2940    2.7940   -6.7930 h1        1 JEF      0.050700
     74 H61         4.5010    1.8610   -4.9320 hc        1 JEF      0.049033
     75 H62         5.1780    3.5360   -4.8540 hc        1 JEF      0.049033
     76 H63         3.5340    3.2720   -5.5710 hc        1 JEF      0.049033
     77 H41         5.3920    1.1190   -8.4000 h1        1 JEF      0.062700
     78 H42         5.3640    0.4750   -6.6790 h1        1 JEF      0.062700
     79 H7          3.5840    1.8060   -9.3360 h1        1 JEF      0.074700
     80 H91         1.8570    0.2630  -10.2670 hc        1 JEF      0.048367
     81 H92         3.1820   -0.7060   -9.4820 hc        1 JEF      0.048367
     82 H93         1.5960   -0.4840   -8.6300 hc        1 JEF      0.048367
     83 H81         1.3510    2.7130   -9.2370 h1        1 JEF      0.078700
     84 H82         2.1840    3.0810   -7.6390 h1        1 JEF      0.078700
     85 H11        -0.2790    1.0790   -9.2570 h1        1 JEF      0.053700
     86 H121       -1.5540    3.0340   -7.1990 hc        1 JEF      0.051367
     87 H122       -0.7370    3.5230   -8.7400 hc        1 JEF      0.051367
     88 H123       -2.2620    2.5370   -8.8000 hc        1 JEF      0.051367
     89 H101       -2.3150    0.3580   -7.6850 h1        1 JEF      0.052700
     90 H102       -0.8090   -0.6900   -7.7860 h1        1 JEF      0.052700
     91 H13        -2.8290   -0.4290   -5.6420 h1        1 JEF      0.054700
     92 H151       -3.5900    1.5950   -4.3240 hc        1 JEF      0.050700
     93 H152       -2.0000    2.4050   -4.6680 hc        1 JEF      0.050700
     94 H153       -3.1390    2.0280   -6.0300 hc        1 JEF      0.050700
     95 H141       -1.2060   -1.2950   -4.0280 h1        1 JEF      0.057700
     96 H142       -2.4030   -0.2260   -3.1290 h1        1 JEF      0.057700
     97 H161        1.0770    0.6150   -2.1890 h1        1 JEF      0.094700
     98 H162        0.4880   -1.0760   -2.6030 h1        1 JEF      0.094700
     99 H30         2.6990   -0.2350   -3.6510 hx        1 JEF      0.109700
    100 H311        1.4740   -2.2590   -4.3870 hc        1 JEF      0.071033
    101 H312        0.4630   -1.2870   -5.5530 hc        1 JEF      0.071033
    102 H313        2.2550   -1.4390   -5.8090 hc        1 JEF      0.071033
    103 HN11        2.2570    1.0130   -5.8140 hn        1 JEF      0.473133
    104 HN12        2.1290    1.8850   -4.3800 hn        1 JEF      0.473133
    105 H131        0.7550    1.4030   -5.2130 hn        1 JEF      0.473133
@<TRIPOS>BOND
     1    1    2 1   
     2    1   42 1   
     3    1   43 1   
     4    1   44 1   
     5    2    3 1   
     6    3    4 1   
     7    3   45 1   
     8    3   46 1   
     9    4    5 1   
    10    4   47 1   
    11    4   48 1   
    12    5    6 1   
    13    6    7 1   
    14    6    8 1   
    15    6   49 1   
    16    7   50 1   
    17    7   51 1   
    18    7   52 1   
    19    8    9 1   
    20    8   53 1   
    21    8   54 1   
    22    9   10 1   
    23   10   11 1   
    24   10   12 1   
    25   10   55 1   
    26   11   56 1   
    27   11   57 1   
    28   11   58 1   
    29   12   13 1   
    30   12   59 1   
    31   12   60 1   
    32   13   14 1   
    33   14   15 1   
    34   14   16 1   
    35   14   61 1   
    36   15   62 1   
    37   15   63 1   
    38   15   64 1   
    39   16   17 1   
    40   16   65 1   
    41   16   66 1   
    42   17   18 1   
    43   18   19 1   
    44   18   20 1   
    45   18   67 1   
    46   19   68 1   
    47   19   69 1   
    48   19   70 1   
    49   20   21 1   
    50   20   71 1   
    51   20   72 1   
    52   21   22 1   
    53   22   23 1   
    54   22   24 1   
    55   22   73 1   
    56   23   74 1   
    57   23   75 1   
    58   23   76 1   
    59   24   25 1   
    60   24   77 1   
    61   24   78 1   
    62   25   26 1   
    63   26   27 1   
    64   26   28 1   
    65   26   79 1   
    66   27   80 1   
    67   27   81 1   
    68   27   82 1   
    69   28   29 1   
    70   28   83 1   
    71   28   84 1   
    72   29   30 1   
    73   30   31 1   
    74   30   32 1   
    75   30   85 1   
    76   31   86 1   
    77   31   87 1   
    78   31   88 1   
    79   32   33 1   
    80   32   89 1   
    81   32   90 1   
    82   33   34 1   
    83   34   35 1   
    84   34   36 1   
    85   34   91 1   
    86   35   92 1   
    87   35   93 1   
    88   35   94 1   
    89   36   37 1   
    90   36   95 1   
    91   36   96 1   
    92   37   38 1   
    93   38   39 1   
    94   38   97 1   
    95   38   98 1   
    96   39   40 1   
    97   39   41 1   
    98   39   99 1   
    99   40  100 1   
   100   40  101 1   
   101   40  102 1   
   102   41  103 1   
   103   41  104 1   
   104   41  105 1   
@<TRIPOS>SUBSTRUCTURE
     1 JEF         1 TEMP              0 ****  ****    0 ROOT
