@<TRIPOS>MOLECULE
JEF
  104   103     1     0     0
SMALL
bcc


@<TRIPOS>ATOM
      1 C38        -1.4020    6.5500    0.9290 c3        1 JEF      0.115700
      2 O12        -1.1480    5.4540    0.0640 os        1 JEF     -0.434600
      3 C37        -2.1190    4.4180    0.2030 c3        1 JEF      0.125400
      4 C36        -1.7000    3.3180   -0.7690 c3        1 JEF      0.126400
      5 O11        -2.8070    2.4250   -0.8400 os        1 JEF     -0.421600
      6 C33        -2.5960    1.3480   -1.7580 c3        1 JEF      0.147100
      7 C34        -1.6140    0.3340   -1.2100 c3        1 JEF     -0.122100
      8 C32        -3.9800    0.7380   -2.0110 c3        1 JEF      0.130400
      9 O10        -4.2890   -0.1440   -0.9370 os        1 JEF     -0.413600
     10 C19        -5.5370   -0.8220   -1.1200 c3        1 JEF      0.121100
     11 C40        -5.3930   -1.9870   -2.0770 c3        1 JEF     -0.115100
     12 C20        -5.9920   -1.2860    0.2710 c3        1 JEF      0.134400
     13 O          -5.3240   -2.4770    0.6600 os        1 JEF     -0.421600
     14 C          -4.4840   -2.3460    1.8120 c3        1 JEF      0.150100
     15 C18        -3.3340   -1.3890    1.5840 c3        1 JEF     -0.118100
     16 C17        -3.9990   -3.7710    2.1180 c3        1 JEF      0.132400
     17 OH         -2.7950   -3.9790    1.3890 os        1 JEF     -0.426600
     18 C2         -2.3050   -5.3210    1.4340 c3        1 JEF      0.108100
     19 C1         -1.7620   -5.6770    2.8020 c3        1 JEF     -0.118100
     20 C3         -1.2210   -5.3940    0.3480 c3        1 JEF      0.132400
     21 O2          0.0400   -4.9040    0.7650 os        1 JEF     -0.415600
     22 C5          0.1380   -3.4770    0.8520 c3        1 JEF      0.130100
     23 C6          1.2690   -3.1930    1.8220 c3        1 JEF     -0.082100
     24 C4          0.3780   -2.8640   -0.5330 c3        1 JEF      0.105400
     25 O3          1.7800   -2.7210   -0.7310 os        1 JEF     -0.425600
     26 C7          2.1320   -2.3800   -2.0760 c3        1 JEF      0.120100
     27 C9          1.5470   -1.0510   -2.5040 c3        1 JEF     -0.117100
     28 C8          3.6680   -2.3780   -2.1110 c3        1 JEF      0.133400
     29 O4          4.1970   -1.0670   -1.9800 os        1 JEF     -0.420600
     30 C11         4.8640   -0.8020   -0.7420 c3        1 JEF      0.149100
     31 C12         3.9040   -0.7230    0.4250 c3        1 JEF     -0.126100
     32 C10         5.6160    0.5170   -0.9600 c3        1 JEF      0.131400
     33 O5          4.6810    1.5830   -0.8410 os        1 JEF     -0.421600
     34 C13         5.1900    2.8430   -1.2880 c3        1 JEF      0.109100
     35 C15         6.1600    3.4330   -0.2850 c3        1 JEF     -0.119100
     36 C14         3.9640    3.7420   -1.4990 c3        1 JEF      0.135400
     37 O6          3.4780    4.3220   -0.3000 os        1 JEF     -0.425600
     38 C16         2.7010    3.4280    0.4960 c3        1 JEF      0.080400
     39 C30         2.3730    4.1570    1.8190 c3        1 JEF      0.168500
     40 C31         3.6670    4.3510    2.6070 c3        1 JEF     -0.089100
     41 N1          1.6290    5.3920    1.6650 n3        1 JEF     -0.906800
     42 H381       -2.3970    7.0060    0.7030 h1        1 JEF      0.038033
     43 H382       -1.3620    6.2230    1.9980 h1        1 JEF      0.038033
     44 H383       -0.5770    7.2720    0.7110 h1        1 JEF      0.038033
     45 H371       -2.1260    4.0370    1.2570 h1        1 JEF      0.041700
     46 H372       -3.1370    4.8090   -0.0580 h1        1 JEF      0.041700
     47 H361       -1.4820    3.7500   -1.7820 h1        1 JEF      0.039200
     48 H362       -0.7900    2.7810   -0.3930 h1        1 JEF      0.039200
     49 H33        -2.2210    1.7660   -2.7360 h1        1 JEF      0.037700
     50 H341       -1.6990   -0.6190   -1.7870 hc        1 JEF      0.049700
     51 H342       -0.5660    0.7100   -1.2860 hc        1 JEF      0.049700
     52 H343       -1.8500    0.1200   -0.1380 hc        1 JEF      0.049700
     53 H321       -4.7530    1.5490   -2.0670 h1        1 JEF      0.037200
     54 H322       -3.9540    0.1690   -2.9780 h1        1 JEF      0.037200
     55 H19        -6.3040   -0.0920   -1.5080 h1        1 JEF      0.035700
     56 H401       -6.3460   -2.5660   -2.1060 hc        1 JEF      0.046367
     57 H402       -5.1530   -1.6290   -3.1060 hc        1 JEF      0.046367
     58 H403       -4.5750   -2.6630   -1.7270 hc        1 JEF      0.046367
     59 H201       -5.8530   -0.4580    1.0120 h1        1 JEF      0.050200
     60 H202       -7.0800   -1.5650    0.2070 h1        1 JEF      0.050200
     61 H          -5.1180   -1.9980    2.6770 h1        1 JEF      0.031700
     62 H181       -2.7920   -1.6690    0.6460 hc        1 JEF      0.052700
     63 H182       -3.7070   -0.3430    1.4660 hc        1 JEF      0.052700
     64 H183       -2.6250   -1.4400    2.4420 hc        1 JEF      0.052700
     65 H171       -3.7910   -3.8630    3.2170 h1        1 JEF      0.038700
     66 H172       -4.7740   -4.5210    1.8110 h1        1 JEF      0.038700
     67 H2         -3.1380   -6.0270    1.1530 h1        1 JEF      0.039700
     68 H11A       -0.9880   -4.9300    3.1080 hc        1 JEF      0.046033
     69 H12        -2.5780   -5.6880    3.5620 hc        1 JEF      0.046033
     70 H13A       -1.2860   -6.6860    2.7640 hc        1 JEF      0.046033
     71 H31        -1.0190   -6.4740    0.1100 h1        1 JEF      0.055700
     72 H32        -1.5790   -4.8540   -0.5680 h1        1 JEF      0.055700
     73 H5         -0.8300   -3.0530    1.2500 h1        1 JEF      0.072700
     74 H61         2.2010   -3.7090    1.4870 hc        1 JEF      0.045700
     75 H62         1.4580   -2.0940    1.8540 hc        1 JEF      0.045700
     76 H63         0.9990   -3.5610    2.8400 hc        1 JEF      0.045700
     77 H41        -0.0590   -3.5190   -1.3320 h1        1 JEF      0.033700
     78 H42        -0.1040   -1.8490   -0.5820 h1        1 JEF      0.033700
     79 H7          1.7620   -3.2000   -2.7570 h1        1 JEF      0.034700
     80 H91         1.7650   -0.2730   -1.7310 hc        1 JEF      0.046700
     81 H92         2.0140   -0.7320   -3.4660 hc        1 JEF      0.046700
     82 H93         0.4420   -1.1290   -2.6400 hc        1 JEF      0.046700
     83 H81         4.0660   -3.0750   -1.3300 h1        1 JEF      0.054200
     84 H82         3.9990   -2.7160   -3.1320 h1        1 JEF      0.054200
     85 H11         5.6290   -1.6110   -0.5610 h1        1 JEF      0.033700
     86 H121        3.1510    0.0820    0.2470 hc        1 JEF      0.053033
     87 H122        3.3630   -1.6940    0.5510 hc        1 JEF      0.053033
     88 H123        4.4680   -0.4880    1.3580 hc        1 JEF      0.053033
     89 H101        6.4050    0.6260   -0.1690 h1        1 JEF      0.037200
     90 H102        6.0900    0.5240   -1.9770 h1        1 JEF      0.037200
     91 H13         5.7000    2.7060   -2.2850 h1        1 JEF      0.039700
     92 H151        6.4870    4.4430   -0.6290 hc        1 JEF      0.045700
     93 H152        5.6590    3.5390    0.7090 hc        1 JEF      0.045700
     94 H153        7.0560    2.7780   -0.1720 hc        1 JEF      0.045700
     95 H141        4.2670    4.6270   -2.1200 h1        1 JEF      0.056200
     96 H142        3.1560    3.1590   -2.0140 h1        1 JEF      0.056200
     97 H161        1.7600    3.1680   -0.0600 h1        1 JEF      0.042200
     98 H162        3.2810    2.4900    0.7000 h1        1 JEF      0.042200
     99 H30         1.7060    3.4500    2.4010 h1        1 JEF      0.053700
    100 H311        4.1420    3.3560    2.7830 hc        1 JEF      0.040033
    101 H312        4.3810    4.9880    2.0320 hc        1 JEF      0.040033
    102 H313        3.4620    4.8320    3.5920 hc        1 JEF      0.040033
    103 HN11        2.2080    6.0880    1.2370 hn        1 JEF      0.355800
    104 HN12        0.8300    5.2370    1.0770 hn        1 JEF      0.355800
@<TRIPOS>BOND
     1    1    2 1   
     2    1   42 1   
     3    1   43 1   
     4    1   44 1   
     5    2    3 1   
     6    3    4 1   
     7    3   45 1   
     8    3   46 1   
     9    4    5 1   
    10    4   47 1   
    11    4   48 1   
    12    5    6 1   
    13    6    7 1   
    14    6    8 1   
    15    6   49 1   
    16    7   50 1   
    17    7   51 1   
    18    7   52 1   
    19    8    9 1   
    20    8   53 1   
    21    8   54 1   
    22    9   10 1   
    23   10   11 1   
    24   10   12 1   
    25   10   55 1   
    26   11   56 1   
    27   11   57 1   
    28   11   58 1   
    29   12   13 1   
    30   12   59 1   
    31   12   60 1   
    32   13   14 1   
    33   14   15 1   
    34   14   16 1   
    35   14   61 1   
    36   15   62 1   
    37   15   63 1   
    38   15   64 1   
    39   16   17 1   
    40   16   65 1   
    41   16   66 1   
    42   17   18 1   
    43   18   19 1   
    44   18   20 1   
    45   18   67 1   
    46   19   68 1   
    47   19   69 1   
    48   19   70 1   
    49   20   21 1   
    50   20   71 1   
    51   20   72 1   
    52   21   22 1   
    53   22   23 1   
    54   22   24 1   
    55   22   73 1   
    56   23   74 1   
    57   23   75 1   
    58   23   76 1   
    59   24   25 1   
    60   24   77 1   
    61   24   78 1   
    62   25   26 1   
    63   26   27 1   
    64   26   28 1   
    65   26   79 1   
    66   27   80 1   
    67   27   81 1   
    68   27   82 1   
    69   28   29 1   
    70   28   83 1   
    71   28   84 1   
    72   29   30 1   
    73   30   31 1   
    74   30   32 1   
    75   30   85 1   
    76   31   86 1   
    77   31   87 1   
    78   31   88 1   
    79   32   33 1   
    80   32   89 1   
    81   32   90 1   
    82   33   34 1   
    83   34   35 1   
    84   34   36 1   
    85   34   91 1   
    86   35   92 1   
    87   35   93 1   
    88   35   94 1   
    89   36   37 1   
    90   36   95 1   
    91   36   96 1   
    92   37   38 1   
    93   38   39 1   
    94   38   97 1   
    95   38   98 1   
    96   39   40 1   
    97   39   41 1   
    98   39   99 1   
    99   40  100 1   
   100   40  101 1   
   101   40  102 1   
   102   41  103 1   
   103   41  104 1   
@<TRIPOS>SUBSTRUCTURE
     1 JEF         1 TEMP              0 ****  ****    0 ROOT
