@<TRIPOS>MOLECULE
JEN
   41    43     1     0     0
SMALL
bcc


@<TRIPOS>ATOM
      1 C1          0.6030    1.0620    7.0560 c3        1 JEN      0.122700
      2 O2         -0.3170    0.1830    6.4060 os        1 JEN     -0.438100
      3 C3         -0.2220    0.0760    5.0370 ca        1 JEN      0.533600
      4 N4          0.7230    0.7590    4.3020 nb        1 JEN     -0.347000
      5 N5          0.7770    0.6420    3.0430 nb        1 JEN     -0.322000
      6 C6         -0.0890   -0.1850    2.3400 ca        1 JEN      0.511200
      7 C7         -1.0900   -0.9260    3.0450 ca        1 JEN     -0.189300
      8 C8         -1.1600   -0.7940    4.4230 ca        1 JEN     -0.205300
      9 N9          0.0450   -0.3770    0.9350 nh        1 JEN     -0.719300
     10 C10         1.2680    0.1320    0.3270 c3        1 JEN      0.177800
     11 C11         1.3820   -0.2730   -1.1590 c3        1 JEN      0.182300
     12 N12         0.1990    0.0850   -1.9220 nh        1 JEN     -0.636000
     13 C13        -1.0280   -0.4060   -1.3120 c3        1 JEN      0.182300
     14 C14        -1.1450   -0.0070    0.1740 c3        1 JEN      0.177800
     15 C15         0.2810   -0.0850   -3.3300 ca        1 JEN      0.135600
     16 C16        -0.7230    0.4770   -4.1520 ca        1 JEN     -0.155000
     17 C17        -0.6380    0.4010   -5.5420 ca        1 JEN     -0.056300
     18 C18         0.4570   -0.2330   -6.1410 ca        1 JEN     -0.155000
     19 C19         1.4530   -0.7870   -5.3440 ca        1 JEN     -0.103000
     20 C20         1.3730   -0.7250   -3.9550 ca        1 JEN     -0.182000
     21 C21        -1.7100    0.9850   -6.3820 c3        1 JEN     -0.054800
     22 H11         0.4690    2.1090    6.6940 h1        1 JEN      0.052700
     23 H12         0.3150    0.9710    8.1340 h1        1 JEN      0.052700
     24 H13         1.6540    0.7210    6.8940 h1        1 JEN      0.052700
     25 H7         -1.7780   -1.5960    2.5100 ha        1 JEN      0.156000
     26 H8         -1.8970   -1.3330    5.0320 ha        1 JEN      0.164000
     27 H101        1.3380    1.2550    0.4030 h1        1 JEN      0.053700
     28 H102        2.1460   -0.3160    0.8700 h1        1 JEN      0.053700
     29 H111        2.2620    0.2810   -1.5920 h1        1 JEN      0.046700
     30 H112        1.5970   -1.3810   -1.2160 h1        1 JEN      0.046700
     31 H131       -1.9080    0.0430   -1.8510 h1        1 JEN      0.046700
     32 H132       -1.1050   -1.5300   -1.3930 h1        1 JEN      0.046700
     33 H141       -2.0320   -0.5500    0.6040 h1        1 JEN      0.053700
     34 H142       -1.3450    1.1010    0.2390 h1        1 JEN      0.053700
     35 H16        -1.5810    0.9990   -3.7010 ha        1 JEN      0.135000
     36 H18         0.5270   -0.2900   -7.2370 ha        1 JEN      0.132000
     37 H19         2.3150   -1.2850   -5.8130 ha        1 JEN      0.130000
     38 H20         2.1780   -1.1820   -3.3610 ha        1 JEN      0.133000
     39 H211       -2.4950    0.2140   -6.5870 hc        1 JEN      0.044700
     40 H212       -2.1970    1.8510   -5.8700 hc        1 JEN      0.044700
     41 H213       -1.3020    1.3370   -7.3620 hc        1 JEN      0.044700
@<TRIPOS>BOND
     1    1    2 1   
     2    1   22 1   
     3    1   23 1   
     4    1   24 1   
     5    2    3 1   
     6    3    4 ar  
     7    3    8 ar  
     8    4    5 ar  
     9    5    6 ar  
    10    6    7 ar  
    11    6    9 1   
    12    7    8 ar  
    13    7   25 1   
    14    8   26 1   
    15    9   10 1   
    16    9   14 1   
    17   10   11 1   
    18   10   27 1   
    19   10   28 1   
    20   11   12 1   
    21   11   29 1   
    22   11   30 1   
    23   12   13 1   
    24   12   15 1   
    25   13   14 1   
    26   13   31 1   
    27   13   32 1   
    28   14   33 1   
    29   14   34 1   
    30   15   16 ar  
    31   15   20 ar  
    32   16   17 ar  
    33   16   35 1   
    34   17   18 ar  
    35   17   21 1   
    36   18   19 ar  
    37   18   36 1   
    38   19   20 ar  
    39   19   37 1   
    40   20   38 1   
    41   21   39 1   
    42   21   40 1   
    43   21   41 1   
@<TRIPOS>SUBSTRUCTURE
     1 JEN         1 TEMP              0 ****  ****    0 ROOT
