@<TRIPOS>MOLECULE
JEN
   41    39     1     0     0
SMALL
bcc


@<TRIPOS>ATOM
      1 C1         -2.5840    0.6380   -6.8300 c3        1 JEN     -0.067000
      2 O2         -2.1480   -0.6060   -6.3330 os        1 JEN     -0.197000
      3 C3         -1.5320   -0.5310   -5.0730 c2        1 JEN      0.033000
      4 N4         -2.2880   -0.3880   -3.9580 n2        1 JEN     -0.084000
      5 N5         -1.6950   -0.3900   -2.7200 n1        1 JEN     -0.060000
      6 C6         -0.3540   -0.5360   -2.6110 c1        1 JEN     -0.009000
      7 C7          0.4140   -0.6820   -3.7390 c1        1 JEN     -0.125000
      8 C8         -0.1720   -0.6790   -4.9640 c1        1 JEN     -0.139000
      9 N9          0.2630   -0.4830   -1.3380 n3        1 JEN     -0.211000
     10 C10         0.1580    0.8340   -0.8160 c3        1 JEN     -0.057500
     11 C11         0.6630    0.9320    0.6070 c3        1 JEN     -0.068500
     12 N12         0.0770   -0.0430    1.4580 n3        1 JEN     -0.223000
     13 C13         0.1820   -1.3590    0.9360 c3        1 JEN     -0.068500
     14 C14        -0.3240   -1.4570   -0.4860 c3        1 JEN     -0.057500
     15 C15         0.6940    0.0110    2.7340 c2        1 JEN      0.004000
     16 C16        -0.0210    0.4680    3.8300 c2        1 JEN     -0.106000
     17 C17         0.6060    0.6050    5.0580 c1        1 JEN     -0.070000
     18 C18         1.9480    0.2850    5.1910 c1        1 JEN     -0.126500
     19 C19         2.6630   -0.1720    4.0960 c1        1 JEN     -0.126500
     20 C20         2.0360   -0.3090    2.8670 c1        1 JEN     -0.158000
     21 C21        -0.1760    1.0980    6.2560 c3        1 JEN     -0.180000
     22 H11        -1.8170    1.2450   -6.9110 h1        1 JEN      0.091667
     23 H12        -2.9960    0.5110   -7.7130 h1        1 JEN      0.091667
     24 H13        -3.2430    1.0230   -6.2140 h1        1 JEN      0.091667
     25 H7          1.3820   -0.7870   -3.6610 ha        1 JEN      0.155000
     26 H8          0.3740   -0.7830   -5.7680 ha        1 JEN      0.164000
     27 H101        0.6800    1.4410   -1.3800 h1        1 JEN      0.092000
     28 H102       -0.7820    1.1090   -0.8380 h1        1 JEN      0.092000
     29 H111        0.4570    1.8220    0.9550 h1        1 JEN      0.084500
     30 H112        1.6350    0.8090    0.6070 h1        1 JEN      0.084500
     31 H131        1.1220   -1.6350    0.9580 h1        1 JEN      0.084500
     32 H132       -0.3410   -1.9670    1.5010 h1        1 JEN      0.084500
     33 H141       -1.2960   -1.3340   -0.4860 h1        1 JEN      0.092000
     34 H142       -0.1170   -2.3500   -0.8360 h1        1 JEN      0.092000
     35 H16        -0.9660    0.6940    3.7360 ha        1 JEN      0.146000
     36 H18         2.3900    0.3820    6.0570 ha        1 JEN      0.132000
     37 H19         3.6080   -0.3980    4.1890 ha        1 JEN      0.132000
     38 H20         2.5400   -0.6310    2.0950 ha        1 JEN      0.134000
     39 H211       -1.1060    0.7920    6.1880 hc        1 JEN      0.084333
     40 H212       -0.1560    2.0780    6.2790 hc        1 JEN      0.084333
     41 H213        0.2260    0.7430    7.0780 hc        1 JEN      0.084333
@<TRIPOS>BOND
     1    1    2 1   
     2    1   22 1   
     3    1   23 1   
     4    1   24 1   
     5    2    3 1   
     6    3    4 1   
     7    3    8 1   
     8    4    5 1   
     9    6    7 1   
    10    6    9 1   
    11    7   25 1   
    12    8   26 1   
    13    9   10 1   
    14    9   14 1   
    15   10   11 1   
    16   10   27 1   
    17   10   28 1   
    18   11   12 1   
    19   11   29 1   
    20   11   30 1   
    21   12   13 1   
    22   12   15 1   
    23   13   14 1   
    24   13   31 1   
    25   13   32 1   
    26   14   33 1   
    27   14   34 1   
    28   15   16 1   
    29   15   20 1   
    30   16   17 1   
    31   16   35 1   
    32   17   21 1   
    33   18   19 1   
    34   18   36 1   
    35   19   37 1   
    36   20   38 1   
    37   21   39 1   
    38   21   40 1   
    39   21   41 1   
@<TRIPOS>SUBSTRUCTURE
     1 JEN         1 TEMP              0 ****  ****    0 ROOT
