@<TRIPOS>MOLECULE
JEN
   41    43     1     0     0
SMALL
bcc


@<TRIPOS>ATOM
      1 C1          0.0770   -0.1110   -0.6110 c3        1 JEN      0.122700
      2 O2          1.4440   -0.1250   -0.1950 os        1 JEN     -0.438100
      3 C3          1.6910   -0.0010    1.1530 ca        1 JEN      0.533600
      4 N4          0.6830    0.1120    2.0850 nb        1 JEN     -0.347000
      5 N5          0.9470    0.2320    3.3180 nb        1 JEN     -0.322000
      6 C6          2.2510    0.2360    3.7960 ca        1 JEN      0.511200
      7 C7          3.3430    0.1150    2.8810 ca        1 JEN     -0.189300
      8 C8          3.0600   -0.0060    1.5290 ca        1 JEN     -0.205300
      9 N9          2.5280    0.2770    5.1930 nh        1 JEN     -0.719300
     10 C10         1.3930    0.0650    6.0840 c3        1 JEN      0.177800
     11 C11         1.8330   -0.0330    7.5610 c3        1 JEN      0.182300
     12 N12         2.6500    1.0970    7.9710 nh        1 JEN     -0.636000
     13 C13         3.7760    1.3250    7.0770 c3        1 JEN      0.182300
     14 C14         3.3410    1.4190    5.5980 c3        1 JEN      0.177800
     15 C15         2.9530    1.1860    9.3550 ca        1 JEN      0.135600
     16 C16         3.5170    2.3800    9.8620 ca        1 JEN     -0.155000
     17 C17         3.7570    2.5380   11.2270 ca        1 JEN     -0.056300
     18 C18         3.4310    1.5070   12.1160 ca        1 JEN     -0.155000
     19 C19         2.8730    0.3300   11.6310 ca        1 JEN     -0.103000
     20 C20         2.6380    0.1580   10.2700 ca        1 JEN     -0.182000
     21 C21         4.3620    3.7930   11.7320 c3        1 JEN     -0.054800
     22 H11         0.1540   -0.2190   -1.7230 h1        1 JEN      0.052700
     23 H12        -0.4070    0.8570   -0.3370 h1        1 JEN      0.052700
     24 H13        -0.4780   -0.9700   -0.1650 h1        1 JEN      0.052700
     25 H7          4.3820    0.1030    3.2390 ha        1 JEN      0.156000
     26 H8          3.8440   -0.1060    0.7670 ha        1 JEN      0.164000
     27 H101        0.6260    0.8860    5.9880 h1        1 JEN      0.053700
     28 H102        0.9050   -0.9110    5.8080 h1        1 JEN      0.053700
     29 H111        2.3710   -1.0140    7.7130 h1        1 JEN      0.046700
     30 H112        0.8990   -0.0390    8.1900 h1        1 JEN      0.046700
     31 H131        4.2630    2.3020    7.3460 h1        1 JEN      0.046700
     32 H132        4.5490    0.5090    7.1760 h1        1 JEN      0.046700
     33 H141        4.2740    1.4400    4.9710 h1        1 JEN      0.053700
     34 H142        2.7900    2.3910    5.4420 h1        1 JEN      0.053700
     35 H16         3.7600    3.2110    9.1820 ha        1 JEN      0.135000
     36 H18         3.6150    1.6320   13.1930 ha        1 JEN      0.132000
     37 H19         2.6150   -0.4820   12.3290 ha        1 JEN      0.130000
     38 H20         2.2020   -0.7920    9.9260 ha        1 JEN      0.133000
     39 H211        5.4780    3.6970   11.7470 hc        1 JEN      0.044700
     40 H212        4.0160    4.0120   12.7720 hc        1 JEN      0.044700
     41 H213        4.0940    4.6600   11.0800 hc        1 JEN      0.044700
@<TRIPOS>BOND
     1    1    2 1   
     2    1   22 1   
     3    1   23 1   
     4    1   24 1   
     5    2    3 1   
     6    3    4 ar  
     7    3    8 ar  
     8    4    5 ar  
     9    5    6 ar  
    10    6    7 ar  
    11    6    9 1   
    12    7    8 ar  
    13    7   25 1   
    14    8   26 1   
    15    9   10 1   
    16    9   14 1   
    17   10   11 1   
    18   10   27 1   
    19   10   28 1   
    20   11   12 1   
    21   11   29 1   
    22   11   30 1   
    23   12   13 1   
    24   12   15 1   
    25   13   14 1   
    26   13   31 1   
    27   13   32 1   
    28   14   33 1   
    29   14   34 1   
    30   15   16 ar  
    31   15   20 ar  
    32   16   17 ar  
    33   16   35 1   
    34   17   18 ar  
    35   17   21 1   
    36   18   19 ar  
    37   18   36 1   
    38   19   20 ar  
    39   19   37 1   
    40   20   38 1   
    41   21   39 1   
    42   21   40 1   
    43   21   41 1   
@<TRIPOS>SUBSTRUCTURE
     1 JEN         1 TEMP              0 ****  ****    0 ROOT
