@<TRIPOS>MOLECULE
JEN
   41    43     1     0     0
SMALL
bcc


@<TRIPOS>ATOM
      1 C1          0.0810   -0.1100   -0.6130 c3        1 JEN      0.122700
      2 O2          1.4470   -0.1330   -0.1950 os        1 JEN     -0.438100
      3 C3          1.6930   -0.0070    1.1540 ca        1 JEN      0.533600
      4 N4          0.6840    0.1150    2.0840 nb        1 JEN     -0.347000
      5 N5          0.9470    0.2350    3.3170 nb        1 JEN     -0.322000
      6 C6          2.2500    0.2320    3.7970 ca        1 JEN      0.511200
      7 C7          3.3430    0.1020    2.8840 ca        1 JEN     -0.189300
      8 C8          3.0610   -0.0200    1.5320 ca        1 JEN     -0.205300
      9 N9          2.5250    0.2750    5.1940 nh        1 JEN     -0.719300
     10 C10         1.3880    0.0720    6.0840 c3        1 JEN      0.177800
     11 C11         1.8250   -0.0260    7.5620 c3        1 JEN      0.182300
     12 N12         2.6490    1.0990    7.9700 nh        1 JEN     -0.636000
     13 C13         3.7780    1.3180    7.0770 c3        1 JEN      0.182300
     14 C14         3.3460    1.4120    5.5980 c3        1 JEN      0.177800
     15 C15         2.9500    1.1900    9.3550 ca        1 JEN      0.135600
     16 C16         3.5220    2.3820    9.8600 ca        1 JEN     -0.155000
     17 C17         3.7600    2.5410   11.2250 ca        1 JEN     -0.056300
     18 C18         3.4270    1.5150   12.1160 ca        1 JEN     -0.155000
     19 C19         2.8610    0.3400   11.6330 ca        1 JEN     -0.103000
     20 C20         2.6270    0.1670   10.2720 ca        1 JEN     -0.182000
     21 C21         4.3740    3.7930   11.7280 c3        1 JEN     -0.054800
     22 H11        -0.3980    0.8620   -0.3410 h1        1 JEN      0.052700
     23 H12         0.1580   -0.2200   -1.7240 h1        1 JEN      0.052700
     24 H13        -0.4810   -0.9640   -0.1650 h1        1 JEN      0.052700
     25 H7          4.3810    0.0840    3.2430 ha        1 JEN      0.156000
     26 H8          3.8450   -0.1280    0.7710 ha        1 JEN      0.164000
     27 H101        0.6260    0.8980    5.9850 h1        1 JEN      0.053700
     28 H102        0.8940   -0.9010    5.8100 h1        1 JEN      0.053700
     29 H111        0.8900   -0.0240    8.1900 h1        1 JEN      0.046700
     30 H112        2.3560   -1.0100    7.7170 h1        1 JEN      0.046700
     31 H131        4.2710    2.2930    7.3460 h1        1 JEN      0.046700
     32 H132        4.5450    0.4970    7.1800 h1        1 JEN      0.046700
     33 H141        4.2800    1.4240    4.9720 h1        1 JEN      0.053700
     34 H142        2.8010    2.3870    5.4390 h1        1 JEN      0.053700
     35 H16         3.7720    3.2090    9.1780 ha        1 JEN      0.135000
     36 H18         3.6100    1.6410   13.1930 ha        1 JEN      0.132000
     37 H19         2.5960   -0.4680   12.3330 ha        1 JEN      0.130000
     38 H20         2.1850   -0.7810    9.9300 ha        1 JEN      0.133000
     39 H211        5.4890    3.6900   11.7440 hc        1 JEN      0.044700
     40 H212        4.0280    4.0170   12.7670 hc        1 JEN      0.044700
     41 H213        4.1120    4.6610   11.0730 hc        1 JEN      0.044700
@<TRIPOS>BOND
     1    1    2 1   
     2    1   22 1   
     3    1   23 1   
     4    1   24 1   
     5    2    3 1   
     6    3    4 ar  
     7    3    8 ar  
     8    4    5 ar  
     9    5    6 ar  
    10    6    7 ar  
    11    6    9 1   
    12    7    8 ar  
    13    7   25 1   
    14    8   26 1   
    15    9   10 1   
    16    9   14 1   
    17   10   11 1   
    18   10   27 1   
    19   10   28 1   
    20   11   12 1   
    21   11   29 1   
    22   11   30 1   
    23   12   13 1   
    24   12   15 1   
    25   13   14 1   
    26   13   31 1   
    27   13   32 1   
    28   14   33 1   
    29   14   34 1   
    30   15   16 ar  
    31   15   20 ar  
    32   16   17 ar  
    33   16   35 1   
    34   17   18 ar  
    35   17   21 1   
    36   18   19 ar  
    37   18   36 1   
    38   19   20 ar  
    39   19   37 1   
    40   20   38 1   
    41   21   39 1   
    42   21   40 1   
    43   21   41 1   
@<TRIPOS>SUBSTRUCTURE
     1 JEN         1 TEMP              0 ****  ****    0 ROOT
