@<TRIPOS>MOLECULE
JF0
   60    63     1     0     0
SMALL
bcc


@<TRIPOS>ATOM
      1 CAA         0.5470   -1.0180   -0.5740 c3        1 JF0     -0.053800
      2 CAY         1.8620   -0.3910   -0.3080 ca        1 JF0     -0.076300
      3 CAN         2.4180   -0.4350    0.9740 ca        1 JF0     -0.123000
      4 CAF         2.5660    0.2380   -1.3420 ca        1 JF0     -0.130000
      5 CAC         3.8110    0.8120   -1.0920 ca        1 JF0     -0.126000
      6 CAG         4.3650    0.7640    0.1850 ca        1 JF0     -0.126000
      7 CBB         3.6700    0.1390    1.2310 cp        1 JF0     -0.027000
      8 CBA         4.2450    0.0880    2.5730 cp        1 JF0     -0.072000
      9 CAM         5.6150   -0.1650    2.7510 ca        1 JF0     -0.085000
     10 CAK         6.1710   -0.2150    4.0210 ca        1 JF0     -0.182000
     11 CAL         3.4400    0.2910    3.7000 ca        1 JF0     -0.085000
     12 CAJ         3.9800    0.2460    4.9840 ca        1 JF0     -0.182000
     13 CAZ         5.3470   -0.0070    5.1440 ca        1 JF0      0.130100
     14 OAW         6.0000   -0.0790    6.3580 os        1 JF0     -0.330900
     15 CAR         5.1880    0.1420    7.5190 c3        1 JF0      0.129400
     16 CAP         6.1300    0.0280    8.7060 c3        1 JF0     -0.086400
     17 CAO         5.3600    0.1820    9.9990 c3        1 JF0     -0.074400
     18 CAQ         6.2890    0.0980   11.1910 c3        1 JF0     -0.114400
     19 CAS         5.4860    0.2160   12.4860 c3        1 JF0      0.075000
     20 NBD         6.2290    0.1950   13.7210 n         1 JF0     -0.418800
     21 CAX         7.0380    1.3330   14.0490 c         1 JF0      0.781500
     22 OAB         6.7310    2.5070   13.7820 o         1 JF0     -0.612500
     23 CAT         6.9500   -1.0190   14.0950 c3        1 JF0      0.042000
     24 CAU         8.2180   -0.5400   14.8640 c3        1 JF0      0.065000
     25 NBE         8.2200    0.9140   14.7330 n         1 JF0     -0.374000
     26 CBC         8.9880    1.7100   15.5920 ca        1 JF0      0.118600
     27 CAH         8.8260    3.1130   15.6730 ca        1 JF0     -0.290300
     28 CAD         9.6740    3.8400   16.5200 ca        1 JF0      0.414700
     29 NAV        10.6450    3.2930   17.2760 nb        1 JF0     -0.683000
     30 CAE        10.7940    1.9580   17.1930 ca        1 JF0      0.414700
     31 CAI        10.0090    1.1260   16.3830 ca        1 JF0     -0.290300
     32 HAA1        0.6890   -2.0800   -0.8960 hc        1 JF0      0.043700
     33 HAA2        0.0020   -0.4760   -1.3860 hc        1 JF0      0.043700
     34 HAA3       -0.0920   -1.0140    0.3430 hc        1 JF0      0.043700
     35 HAN         1.8700   -0.9330    1.7880 ha        1 JF0      0.133000
     36 HAF         2.1330    0.2800   -2.3520 ha        1 JF0      0.131000
     37 HAC         4.3590    1.3070   -1.9070 ha        1 JF0      0.131000
     38 HAG         5.3450    1.2240    0.3780 ha        1 JF0      0.134000
     39 HAM         6.2550   -0.3310    1.8700 ha        1 JF0      0.137000
     40 HAL         2.3650    0.4960    3.5740 ha        1 JF0      0.137000
     41 HAK         7.2420   -0.4150    4.1670 ha        1 JF0      0.143000
     42 HAJ         3.3270    0.4130    5.8520 ha        1 JF0      0.143000
     43 HAR1        4.3820   -0.6370    7.5650 h1        1 JF0      0.040200
     44 HAR2        4.7260    1.1620    7.4660 h1        1 JF0      0.040200
     45 HAP1        6.6460   -0.9670    8.6760 hc        1 JF0      0.059700
     46 HAP2        6.9220    0.8170    8.6280 hc        1 JF0      0.059700
     47 HAO1        4.5780   -0.6200   10.0710 hc        1 JF0      0.044700
     48 HAO2        4.8270    1.1690   10.0070 hc        1 JF0      0.044700
     49 HAQ1        6.8470   -0.8750   11.1640 hc        1 JF0      0.051200
     50 HAQ2        7.0470    0.9230   11.1370 hc        1 JF0      0.051200
     51 HAS1        4.7470   -0.6330   12.5410 h1        1 JF0      0.071200
     52 HAS2        4.9140    1.1900   12.4700 h1        1 JF0      0.071200
     53 HAT         7.2410   -1.6370   13.2050 h1        1 JF0      0.061700
     54 HAU         9.1520   -0.9570   14.4010 h1        1 JF0      0.062700
     55 HAH         8.0570    3.6390   15.0860 ha        1 JF0      0.160500
     56 HAI        10.2060    0.0460   16.3710 ha        1 JF0      0.160500
     57 HAD         9.5650    4.9380   16.5990 h4        1 JF0      0.023100
     58 HAE        11.5970    1.5250   17.8170 h4        1 JF0      0.023100
     59 HAR         6.2890   -1.6330   14.7620 h1        1 JF0      0.061700
     60 HAS         8.1680   -0.8580   15.9400 h1        1 JF0      0.062700
@<TRIPOS>BOND
     1    1    2 1   
     2    1   32 1   
     3    1   33 1   
     4    1   34 1   
     5    2    3 ar  
     6    2    4 ar  
     7    3    7 ar  
     8    3   35 1   
     9    4    5 ar  
    10    4   36 1   
    11    5    6 ar  
    12    5   37 1   
    13    6    7 ar  
    14    6   38 1   
    15    7    8 1   
    16    8    9 ar  
    17    8   11 ar  
    18    9   10 ar  
    19    9   39 1   
    20   10   13 ar  
    21   10   41 1   
    22   11   12 ar  
    23   11   40 1   
    24   12   13 ar  
    25   12   42 1   
    26   13   14 1   
    27   14   15 1   
    28   15   16 1   
    29   15   43 1   
    30   15   44 1   
    31   16   17 1   
    32   16   45 1   
    33   16   46 1   
    34   17   18 1   
    35   17   47 1   
    36   17   48 1   
    37   18   19 1   
    38   18   49 1   
    39   18   50 1   
    40   19   20 1   
    41   19   51 1   
    42   19   52 1   
    43   20   21 1   
    44   20   23 1   
    45   21   22 2   
    46   21   25 1   
    47   23   24 1   
    48   23   53 1   
    49   23   59 1   
    50   24   25 1   
    51   24   54 1   
    52   24   60 1   
    53   25   26 1   
    54   26   27 ar  
    55   26   31 ar  
    56   27   28 ar  
    57   27   55 1   
    58   28   29 ar  
    59   28   57 1   
    60   29   30 ar  
    61   30   31 ar  
    62   30   58 1   
    63   31   56 1   
@<TRIPOS>SUBSTRUCTURE
     1 JF0         1 TEMP              0 ****  ****    0 ROOT
