@<TRIPOS>MOLECULE
JF0
   60    63     1     0     0
SMALL
bcc


@<TRIPOS>ATOM
      1 CAA         0.5560   -1.0480   -0.5710 c3        1 JF0     -0.053800
      2 CAY         1.8700   -0.4150   -0.3100 ca        1 JF0     -0.076300
      3 CAN         2.4290   -0.4550    0.9710 ca        1 JF0     -0.123000
      4 CAF         2.5560    0.2370   -1.3410 ca        1 JF0     -0.130000
      5 CAC         3.7860    0.8420   -1.0890 ca        1 JF0     -0.126000
      6 CAG         4.3420    0.8010    0.1880 ca        1 JF0     -0.126000
      7 CBB         3.6660    0.1510    1.2300 cp        1 JF0     -0.027000
      8 CBA         4.2440    0.1050    2.5710 cp        1 JF0     -0.072000
      9 CAM         5.6210   -0.1130    2.7440 ca        1 JF0     -0.085000
     10 CAK         6.1800   -0.1590    4.0130 ca        1 JF0     -0.182000
     11 CAL         3.4360    0.2770    3.7010 ca        1 JF0     -0.085000
     12 CAJ         3.9790    0.2370    4.9840 ca        1 JF0     -0.182000
     13 CAZ         5.3530    0.0180    5.1390 ca        1 JF0      0.130100
     14 OAW         6.0090   -0.0450    6.3520 os        1 JF0     -0.330900
     15 CAR         5.1940    0.1430    7.5150 c3        1 JF0      0.129400
     16 CAP         6.1400    0.0430    8.7000 c3        1 JF0     -0.086400
     17 CAO         5.3690    0.1650    9.9960 c3        1 JF0     -0.074400
     18 CAQ         6.3010    0.0900   11.1860 c3        1 JF0     -0.115400
     19 CAS         5.4970    0.1790   12.4830 c3        1 JF0      0.075000
     20 NBD         6.2430    0.1610   13.7170 n         1 JF0     -0.418800
     21 CAX         7.0290    1.3110   14.0550 c         1 JF0      0.782500
     22 OAB         6.6990    2.4820   13.8000 o         1 JF0     -0.612500
     23 CAT         6.9870   -1.0430   14.0780 c3        1 JF0      0.042000
     24 CAU         8.2470   -0.5460   14.8500 c3        1 JF0      0.065000
     25 NBE         8.2200    0.9090   14.7340 n         1 JF0     -0.374000
     26 CBC         8.9730    1.7110   15.6000 ca        1 JF0      0.118600
     27 CAH         8.7830    3.1100   15.6950 ca        1 JF0     -0.290300
     28 CAD         9.6170    3.8450   16.5500 ca        1 JF0      0.414700
     29 NAV        10.6000    3.3100   17.2990 nb        1 JF0     -0.683000
     30 CAE        10.7760    1.9790   17.2020 ca        1 JF0      0.414700
     31 CAI        10.0060    1.1390   16.3840 ca        1 JF0     -0.290300
     32 HAA1       -0.2640   -0.3020   -0.4170 hc        1 JF0      0.044033
     33 HAA2        0.3800   -1.9090    0.1210 hc        1 JF0      0.044033
     34 HAA3        0.4950   -1.4230   -1.6220 hc        1 JF0      0.044033
     35 HAN         1.8970   -0.9750    1.7820 ha        1 JF0      0.133000
     36 HAF         2.1220    0.2710   -2.3510 ha        1 JF0      0.131000
     37 HAC         4.3200    1.3560   -1.9010 ha        1 JF0      0.131000
     38 HAG         5.3100    1.2860    0.3830 ha        1 JF0      0.134000
     39 HAM         6.2630   -0.2560    1.8620 ha        1 JF0      0.137000
     40 HAL         2.3560    0.4550    3.5780 ha        1 JF0      0.137000
     41 HAK         7.2560   -0.3320    4.1560 ha        1 JF0      0.143000
     42 HAJ         3.3240    0.3800    5.8540 ha        1 JF0      0.143000
     43 HAR1        4.4080   -0.6560    7.5560 h1        1 JF0      0.040200
     44 HAR2        4.7050    1.1510    7.4730 h1        1 JF0      0.040200
     45 HAP1        6.6820   -0.9380    8.6610 hc        1 JF0      0.059700
     46 HAP2        6.9120    0.8520    8.6290 hc        1 JF0      0.059700
     47 HAO1        4.8130    1.1400   10.0140 hc        1 JF0      0.044700
     48 HAO2        4.6060   -0.6550   10.0610 hc        1 JF0      0.044700
     49 HAQ1        6.8800   -0.8690   11.1490 hc        1 JF0      0.051200
     50 HAQ2        7.0400    0.9330   11.1390 hc        1 JF0      0.051200
     51 HAS1        4.7760   -0.6860   12.5300 h1        1 JF0      0.071200
     52 HAS2        4.9060    1.1410   12.4770 h1        1 JF0      0.071200
     53 HAT         7.2900   -1.6460   13.1810 h1        1 JF0      0.061700
     54 HAU         8.2050   -0.8760   15.9230 h1        1 JF0      0.062700
     55 HAH         8.0030    3.6260   15.1150 ha        1 JF0      0.160500
     56 HAI        10.2250    0.0640   16.3600 ha        1 JF0      0.160500
     57 HAD         9.4870    4.9390   16.6400 h4        1 JF0      0.023100
     58 HAE        11.5880    1.5550   17.8210 h4        1 JF0      0.023100
     59 HAR         6.3390   -1.6760   14.7400 h1        1 JF0      0.061700
     60 HAS         9.1880   -0.9400   14.3820 h1        1 JF0      0.062700
@<TRIPOS>BOND
     1    1    2 1   
     2    1   32 1   
     3    1   33 1   
     4    1   34 1   
     5    2    3 ar  
     6    2    4 ar  
     7    3    7 ar  
     8    3   35 1   
     9    4    5 ar  
    10    4   36 1   
    11    5    6 ar  
    12    5   37 1   
    13    6    7 ar  
    14    6   38 1   
    15    7    8 1   
    16    8    9 ar  
    17    8   11 ar  
    18    9   10 ar  
    19    9   39 1   
    20   10   13 ar  
    21   10   41 1   
    22   11   12 ar  
    23   11   40 1   
    24   12   13 ar  
    25   12   42 1   
    26   13   14 1   
    27   14   15 1   
    28   15   16 1   
    29   15   43 1   
    30   15   44 1   
    31   16   17 1   
    32   16   45 1   
    33   16   46 1   
    34   17   18 1   
    35   17   47 1   
    36   17   48 1   
    37   18   19 1   
    38   18   49 1   
    39   18   50 1   
    40   19   20 1   
    41   19   51 1   
    42   19   52 1   
    43   20   21 1   
    44   20   23 1   
    45   21   22 2   
    46   21   25 1   
    47   23   24 1   
    48   23   53 1   
    49   23   59 1   
    50   24   25 1   
    51   24   54 1   
    52   24   60 1   
    53   25   26 1   
    54   26   27 ar  
    55   26   31 ar  
    56   27   28 ar  
    57   27   55 1   
    58   28   29 ar  
    59   28   57 1   
    60   29   30 ar  
    61   30   31 ar  
    62   30   58 1   
    63   31   56 1   
@<TRIPOS>SUBSTRUCTURE
     1 JF0         1 TEMP              0 ****  ****    0 ROOT
