@<TRIPOS>MOLECULE
JF0
   60    63     1     0     0
SMALL
bcc


@<TRIPOS>ATOM
      1 CAA         0.5700   -1.0700   -0.5790 c3        1 JF0     -0.053800
      2 CAY         1.8740   -0.4190   -0.3120 ca        1 JF0     -0.076300
      3 CAN         2.4310   -0.4570    0.9700 ca        1 JF0     -0.123000
      4 CAF         2.5650    0.2260   -1.3430 ca        1 JF0     -0.130000
      5 CAC         3.7990    0.8230   -1.0920 ca        1 JF0     -0.126000
      6 CAG         4.3540    0.7810    0.1850 ca        1 JF0     -0.126000
      7 CBB         3.6720    0.1410    1.2290 cp        1 JF0     -0.027000
      8 CBA         4.2470    0.0960    2.5710 cp        1 JF0     -0.072000
      9 CAM         5.6220   -0.1320    2.7470 ca        1 JF0     -0.085000
     10 CAK         6.1800   -0.1760    4.0170 ca        1 JF0     -0.182000
     11 CAL         3.4390    0.2810    3.6990 ca        1 JF0     -0.085000
     12 CAJ         3.9810    0.2430    4.9830 ca        1 JF0     -0.182000
     13 CAZ         5.3520    0.0130    5.1410 ca        1 JF0      0.130100
     14 OAW         6.0060   -0.0500    6.3550 os        1 JF0     -0.330900
     15 CAR         5.1910    0.1500    7.5160 c3        1 JF0      0.129400
     16 CAP         6.1340    0.0470    8.7030 c3        1 JF0     -0.086400
     17 CAO         5.3620    0.1820    9.9970 c3        1 JF0     -0.074400
     18 CAQ         6.2920    0.1040   11.1890 c3        1 JF0     -0.115400
     19 CAS         5.4870    0.2070   12.4840 c3        1 JF0      0.075000
     20 NBD         6.2300    0.1850   13.7190 n         1 JF0     -0.418800
     21 CAX         7.0290    1.3280   14.0540 c         1 JF0      0.782500
     22 OAB         6.7120    2.5010   13.7930 o         1 JF0     -0.612500
     23 CAT         6.9600   -1.0250   14.0870 c3        1 JF0      0.042000
     24 CAU         8.2240   -0.5400   14.8590 c3        1 JF0      0.065000
     25 NBE         8.2140    0.9150   14.7360 n         1 JF0     -0.374000
     26 CBC         8.9750    1.7120   15.6000 ca        1 JF0      0.118600
     27 CAH         8.8010    3.1140   15.6880 ca        1 JF0     -0.290300
     28 CAD         9.6420    3.8430   16.5410 ca        1 JF0      0.414700
     29 NAV        10.6180    3.3000   17.2940 nb        1 JF0     -0.683000
     30 CAE        10.7790    1.9670   17.2030 ca        1 JF0      0.414700
     31 CAI        10.0000    1.1330   16.3880 ca        1 JF0     -0.290300
     32 HAA1        0.7340   -2.1260   -0.9120 hc        1 JF0      0.043700
     33 HAA2       -0.0660   -1.0880    0.3400 hc        1 JF0      0.043700
     34 HAA3        0.0130   -0.5320   -1.3840 hc        1 JF0      0.043700
     35 HAN         1.8920   -0.9670    1.7830 ha        1 JF0      0.133000
     36 HAF         2.1310    0.2620   -2.3530 ha        1 JF0      0.131000
     37 HAC         4.3380    1.3300   -1.9060 ha        1 JF0      0.131000
     38 HAG         5.3260    1.2600    0.3790 ha        1 JF0      0.134000
     39 HAM         6.2650   -0.2840    1.8660 ha        1 JF0      0.137000
     40 HAL         2.3610    0.4670    3.5730 ha        1 JF0      0.137000
     41 HAK         7.2540   -0.3570    4.1620 ha        1 JF0      0.143000
     42 HAJ         3.3250    0.3950    5.8510 ha        1 JF0      0.143000
     43 HAR1        4.7100    1.1630    7.4690 h1        1 JF0      0.040200
     44 HAR2        4.3980   -0.6420    7.5590 h1        1 JF0      0.040200
     45 HAP1        6.6670   -0.9390    8.6690 hc        1 JF0      0.059700
     46 HAP2        6.9140    0.8490    8.6300 hc        1 JF0      0.059700
     47 HAO1        4.8150    1.1620   10.0110 hc        1 JF0      0.044700
     48 HAO2        4.5910   -0.6300   10.0640 hc        1 JF0      0.044700
     49 HAQ1        6.8610   -0.8620   11.1570 hc        1 JF0      0.051200
     50 HAQ2        7.0400    0.9380   11.1390 hc        1 JF0      0.051200
     51 HAS1        4.7560   -0.6500   12.5340 h1        1 JF0      0.071200
     52 HAS2        4.9060    1.1750   12.4730 h1        1 JF0      0.071200
     53 HAT         7.2570   -1.6360   13.1940 h1        1 JF0      0.061700
     54 HAU         9.1610   -0.9460   14.3940 h1        1 JF0      0.062700
     55 HAH         8.0280    3.6370   15.1040 ha        1 JF0      0.160500
     56 HAI        10.2060    0.0550   16.3700 ha        1 JF0      0.160500
     57 HAD         9.5250    4.9390   16.6250 h4        1 JF0      0.023100
     58 HAE        11.5850    1.5370   17.8260 h4        1 JF0      0.023100
     59 HAR         6.3040   -1.6480   14.7510 h1        1 JF0      0.061700
     60 HAS         8.1760   -0.8640   15.9330 h1        1 JF0      0.062700
@<TRIPOS>BOND
     1    1    2 1   
     2    1   32 1   
     3    1   33 1   
     4    1   34 1   
     5    2    3 ar  
     6    2    4 ar  
     7    3    7 ar  
     8    3   35 1   
     9    4    5 ar  
    10    4   36 1   
    11    5    6 ar  
    12    5   37 1   
    13    6    7 ar  
    14    6   38 1   
    15    7    8 1   
    16    8    9 ar  
    17    8   11 ar  
    18    9   10 ar  
    19    9   39 1   
    20   10   13 ar  
    21   10   41 1   
    22   11   12 ar  
    23   11   40 1   
    24   12   13 ar  
    25   12   42 1   
    26   13   14 1   
    27   14   15 1   
    28   15   16 1   
    29   15   43 1   
    30   15   44 1   
    31   16   17 1   
    32   16   45 1   
    33   16   46 1   
    34   17   18 1   
    35   17   47 1   
    36   17   48 1   
    37   18   19 1   
    38   18   49 1   
    39   18   50 1   
    40   19   20 1   
    41   19   51 1   
    42   19   52 1   
    43   20   21 1   
    44   20   23 1   
    45   21   22 2   
    46   21   25 1   
    47   23   24 1   
    48   23   53 1   
    49   23   59 1   
    50   24   25 1   
    51   24   54 1   
    52   24   60 1   
    53   25   26 1   
    54   26   27 ar  
    55   26   31 ar  
    56   27   28 ar  
    57   27   55 1   
    58   28   29 ar  
    59   28   57 1   
    60   29   30 ar  
    61   30   31 ar  
    62   30   58 1   
    63   31   56 1   
@<TRIPOS>SUBSTRUCTURE
     1 JF0         1 TEMP              0 ****  ****    0 ROOT
