@<TRIPOS>MOLECULE
JF1
   41    42     1     0     0
SMALL
bcc


@<TRIPOS>ATOM
      1 CAJ        -0.0030   -0.0800   -0.0530 c3        1 JF1     -0.102400
      2 CAO         1.5400   -0.1190   -0.0340 c3        1 JF1      0.162200
      3 CAD         2.0300   -1.3950   -0.7170 c3        1 JF1     -0.117100
      4 CAM         2.0390   -0.0600    1.4390 c3        1 JF1     -0.076700
      5 CAC         1.6130   -1.2800    2.2300 c3        1 JF1     -0.099100
      6 CAF         3.5530    0.0910    1.5190 c3        1 JF1     -0.098400
      7 CAE         4.0660    1.2640    0.7170 c3        1 JF1     -0.105400
      8 CAH         3.5410    1.2330   -0.7130 c3        1 JF1      0.112800
      9 NAN         2.0510    1.1450   -0.7430 n4        1 JF1     -0.685400
     10 CAI         1.5160    1.2750   -2.1310 c3        1 JF1      0.112800
     11 CAG        -0.0060    1.2990   -2.1480 c3        1 JF1     -0.103400
     12 CAL        -0.5780    0.0700   -1.4570 c3        1 JF1     -0.029500
     13 CAK        -2.0760    0.1170   -1.4050 c2        1 JF1     -0.146400
     14 CAB        -2.8050   -0.9370   -1.7910 c2        1 JF1     -0.177000
     15 CAA        -2.7080    1.3700   -0.9260 c3        1 JF1     -0.062900
     16 H1         -0.3770   -1.0420    0.3890 hc        1 JF1      0.082700
     17 H2         -0.3690    0.7530    0.6040 hc        1 JF1      0.082700
     18 H3          3.1300   -1.5350   -0.5910 hc        1 JF1      0.071367
     19 H4          1.5110   -2.2670   -0.2430 hc        1 JF1      0.071367
     20 H5          1.7870   -1.4100   -1.8070 hc        1 JF1      0.071367
     21 H6          1.5650    0.8440    1.9230 hc        1 JF1      0.062700
     22 H7          2.0830   -2.2090    1.8270 hc        1 JF1      0.059033
     23 H8          0.5040   -1.4000    2.2210 hc        1 JF1      0.059033
     24 H9          1.9410   -1.1590    3.2930 hc        1 JF1      0.059033
     25 H10         3.8420    0.2310    2.5970 hc        1 JF1      0.077700
     26 H11         4.0480   -0.8550    1.1720 hc        1 JF1      0.077700
     27 H12         5.1880    1.2360    0.6710 hc        1 JF1      0.083700
     28 H13         3.7770    2.2290    1.2130 hc        1 JF1      0.083700
     29 H14         3.8470    2.1720   -1.2580 hx        1 JF1      0.099200
     30 H15         3.9580    0.3450   -1.2670 hx        1 JF1      0.099200
     31 H16         1.6800    1.9330   -0.1950 hn        1 JF1      0.439800
     32 H17         1.9190    2.2340   -2.5680 hx        1 JF1      0.098200
     33 H18         1.9060    0.4150   -2.7450 hx        1 JF1      0.098200
     34 H19        -0.3410    1.3220   -3.2200 hc        1 JF1      0.086700
     35 H20        -0.3860    2.2340   -1.6580 hc        1 JF1      0.086700
     36 H21        -0.2710   -0.8370   -2.0560 hc        1 JF1      0.065700
     37 H22        -2.3580   -1.8680   -2.1640 ha        1 JF1      0.128000
     38 H23        -3.9030   -0.9290   -1.7580 ha        1 JF1      0.128000
     39 H24        -2.6760    2.1490   -1.7290 hc        1 JF1      0.048700
     40 H25        -2.1790    1.7700   -0.0260 hc        1 JF1      0.048700
     41 H26        -3.7790    1.2000   -0.6530 hc        1 JF1      0.048700
@<TRIPOS>BOND
     1    1    2 1   
     2    1   12 1   
     3    1   16 1   
     4    1   17 1   
     5    2    3 1   
     6    2    4 1   
     7    2    9 1   
     8    3   18 1   
     9    3   19 1   
    10    3   20 1   
    11    4    5 1   
    12    4    6 1   
    13    4   21 1   
    14    5   22 1   
    15    5   23 1   
    16    5   24 1   
    17    6    7 1   
    18    6   25 1   
    19    6   26 1   
    20    7    8 1   
    21    7   27 1   
    22    7   28 1   
    23    8    9 1   
    24    8   29 1   
    25    8   30 1   
    26    9   10 1   
    27    9   31 1   
    28   10   11 1   
    29   10   32 1   
    30   10   33 1   
    31   11   12 1   
    32   11   34 1   
    33   11   35 1   
    34   12   13 1   
    35   12   36 1   
    36   13   14 2   
    37   13   15 1   
    38   14   37 1   
    39   14   38 1   
    40   15   39 1   
    41   15   40 1   
    42   15   41 1   
@<TRIPOS>SUBSTRUCTURE
     1 JF1         1 TEMP              0 ****  ****    0 ROOT
