@<TRIPOS>MOLECULE
JF1
   41    42     1     0     0
SMALL
bcc


@<TRIPOS>ATOM
      1 CAJ         0.7440    0.7550    0.1220 c3        1 JF1     -0.102400
      2 CAO        -0.6830    0.3210   -0.2730 c3        1 JF1      0.162200
      3 CAD        -0.8390    0.3870   -1.7920 c3        1 JF1     -0.117100
      4 CAM        -1.7180    1.2510    0.4250 c3        1 JF1     -0.076700
      5 CAC        -1.6040    2.6830   -0.0560 c3        1 JF1     -0.099100
      6 CAF        -3.1470    0.7630    0.2240 c3        1 JF1     -0.098400
      7 CAE        -3.3340   -0.6770    0.6400 c3        1 JF1     -0.105400
      8 CAH        -2.2950   -1.5840   -0.0050 c3        1 JF1      0.112800
      9 NAN        -0.9090   -1.1010    0.2660 n4        1 JF1     -0.685400
     10 CAI         0.1210   -2.0660   -0.2240 c3        1 JF1      0.112800
     11 CAG         1.5290   -1.6270    0.1540 c3        1 JF1     -0.103400
     12 CAL         1.8150   -0.2210   -0.3510 c3        1 JF1     -0.029500
     13 CAK         3.1740    0.2490    0.0750 c2        1 JF1     -0.146400
     14 CAB         4.0200    0.7840   -0.8110 c2        1 JF1     -0.177000
     15 CAA         3.5400    0.0850    1.5030 c3        1 JF1     -0.062900
     16 H1          0.9400    1.7570   -0.3440 hc        1 JF1      0.082700
     17 H2          0.8060    0.8860    1.2340 hc        1 JF1      0.082700
     18 H3         -0.1920   -0.3580   -2.3150 hc        1 JF1      0.071367
     19 H4         -1.8990    0.2270   -2.1050 hc        1 JF1      0.071367
     20 H5         -0.5250    1.4060   -2.1310 hc        1 JF1      0.071367
     21 H6         -1.4900    1.2430    1.5310 hc        1 JF1      0.062700
     22 H7         -1.8580    2.7690   -1.1400 hc        1 JF1      0.059033
     23 H8         -2.3210    3.3210    0.5190 hc        1 JF1      0.059033
     24 H9         -0.5760    3.0850    0.1090 hc        1 JF1      0.059033
     25 H10        -3.8340    1.4120    0.8320 hc        1 JF1      0.077700
     26 H11        -3.4450    0.8930   -0.8500 hc        1 JF1      0.077700
     27 H12        -3.2850   -0.7680    1.7580 hc        1 JF1      0.083700
     28 H13        -4.3500   -1.0380    0.3220 hc        1 JF1      0.083700
     29 H14        -2.3870   -2.6310    0.4030 hx        1 JF1      0.099200
     30 H15        -2.4420   -1.6210   -1.1220 hx        1 JF1      0.099200
     31 H16        -0.7990   -1.0260    1.2870 hn        1 JF1      0.439800
     32 H17        -0.1040   -3.0720    0.2350 hx        1 JF1      0.098200
     33 H18         0.0210   -2.1560   -1.3420 hx        1 JF1      0.098200
     34 H19         1.6660   -1.6780    1.2670 hc        1 JF1      0.086700
     35 H20         2.2530   -2.3520   -0.3060 hc        1 JF1      0.086700
     36 H21         1.7870   -0.2480   -1.4800 hc        1 JF1      0.065700
     37 H22         5.0200    1.1390   -0.5230 ha        1 JF1      0.128000
     38 H23         3.7760    0.8990   -1.8760 ha        1 JF1      0.128000
     39 H24         3.8040   -0.9820    1.7140 hc        1 JF1      0.048700
     40 H25         4.4260    0.7170    1.7650 hc        1 JF1      0.048700
     41 H26         2.6940    0.3780    2.1730 hc        1 JF1      0.048700
@<TRIPOS>BOND
     1    1    2 1   
     2    1   12 1   
     3    1   16 1   
     4    1   17 1   
     5    2    3 1   
     6    2    4 1   
     7    2    9 1   
     8    3   18 1   
     9    3   19 1   
    10    3   20 1   
    11    4    5 1   
    12    4    6 1   
    13    4   21 1   
    14    5   22 1   
    15    5   23 1   
    16    5   24 1   
    17    6    7 1   
    18    6   25 1   
    19    6   26 1   
    20    7    8 1   
    21    7   27 1   
    22    7   28 1   
    23    8    9 1   
    24    8   29 1   
    25    8   30 1   
    26    9   10 1   
    27    9   31 1   
    28   10   11 1   
    29   10   32 1   
    30   10   33 1   
    31   11   12 1   
    32   11   34 1   
    33   11   35 1   
    34   12   13 1   
    35   12   36 1   
    36   13   14 2   
    37   13   15 1   
    38   14   37 1   
    39   14   38 1   
    40   15   39 1   
    41   15   40 1   
    42   15   41 1   
@<TRIPOS>SUBSTRUCTURE
     1 JF1         1 TEMP              0 ****  ****    0 ROOT
