@<TRIPOS>MOLECULE
JF1
   41    42     1     0     0
SMALL
bcc


@<TRIPOS>ATOM
      1 CAJ        -0.0180   -0.0400   -0.0750 c3        1 JF1     -0.102400
      2 CAO         1.5230   -0.1090   -0.0260 c3        1 JF1      0.163200
      3 CAD         2.0020   -1.4130   -0.6630 c3        1 JF1     -0.117100
      4 CAM         1.9970   -0.0160    1.4540 c3        1 JF1     -0.076700
      5 CAC         1.5370   -1.2070    2.2690 c3        1 JF1     -0.099100
      6 CAF         3.5110    0.1130    1.5590 c3        1 JF1     -0.098400
      7 CAE         4.0580    1.2540    0.7330 c3        1 JF1     -0.105400
      8 CAH         3.5610    1.1880   -0.7050 c3        1 JF1      0.112800
      9 NAN         2.0710    1.1240   -0.7620 n4        1 JF1     -0.685400
     10 CAI         1.5650    1.2230   -2.1630 c3        1 JF1      0.112800
     11 CAG         0.0440    1.2640   -2.2170 c3        1 JF1     -0.102400
     12 CAL        -0.5610    0.0690   -1.4940 c3        1 JF1     -0.029500
     13 CAK        -2.0580    0.1530   -1.4960 c2        1 JF1     -0.146400
     14 CAB        -2.7840   -0.6330   -2.2990 c2        1 JF1     -0.176000
     15 CAA        -2.6920    1.1270   -0.5760 c3        1 JF1     -0.062900
     16 H1         -0.3760    0.8270    0.5420 hc        1 JF1      0.083200
     17 H2         -0.4220   -0.9760    0.3950 hc        1 JF1      0.083200
     18 H3          3.0960   -1.5720   -0.5030 hc        1 JF1      0.071033
     19 H4          1.4520   -2.2600   -0.1790 hc        1 JF1      0.071033
     20 H5          1.7880   -1.4520   -1.7580 hc        1 JF1      0.071033
     21 H6          1.5280    0.9080    1.9030 hc        1 JF1      0.062700
     22 H7          1.9980   -2.1540    1.9000 hc        1 JF1      0.058700
     23 H8          0.4260   -1.3100    2.2440 hc        1 JF1      0.058700
     24 H9          1.8470   -1.0630    3.3350 hc        1 JF1      0.058700
     25 H10         3.9970   -0.8510    1.2490 hc        1 JF1      0.077700
     26 H11         3.7810    0.2790    2.6380 hc        1 JF1      0.077700
     27 H12         5.1810    1.2060    0.7110 hc        1 JF1      0.083700
     28 H13         3.7760    2.2370    1.1950 hc        1 JF1      0.083700
     29 H14         3.8940    2.1040   -1.2720 hx        1 JF1      0.099200
     30 H15         3.9720    0.2770   -1.2230 hx        1 JF1      0.099200
     31 H16         1.7030    1.9350   -0.2440 hn        1 JF1      0.439800
     32 H17         1.9570    0.3420   -2.7450 hx        1 JF1      0.097700
     33 H18         1.9900    2.1650   -2.6170 hx        1 JF1      0.097700
     34 H19        -0.3370    2.2210   -1.7720 hc        1 JF1      0.086200
     35 H20        -0.2630    1.2510   -3.2970 hc        1 JF1      0.086200
     36 H21        -0.2570   -0.8640   -2.0550 hc        1 JF1      0.065700
     37 H22        -2.3360   -1.3710   -2.9780 ha        1 JF1      0.128500
     38 H23        -3.8820   -0.5850   -2.3250 ha        1 JF1      0.128500
     39 H24        -2.6720    0.7360    0.4730 hc        1 JF1      0.048367
     40 H25        -3.7600    1.3080   -0.8560 hc        1 JF1      0.048367
     41 H26        -2.1570    2.1090   -0.5960 hc        1 JF1      0.048367
@<TRIPOS>BOND
     1    1    2 1   
     2    1   12 1   
     3    1   16 1   
     4    1   17 1   
     5    2    3 1   
     6    2    4 1   
     7    2    9 1   
     8    3   18 1   
     9    3   19 1   
    10    3   20 1   
    11    4    5 1   
    12    4    6 1   
    13    4   21 1   
    14    5   22 1   
    15    5   23 1   
    16    5   24 1   
    17    6    7 1   
    18    6   25 1   
    19    6   26 1   
    20    7    8 1   
    21    7   27 1   
    22    7   28 1   
    23    8    9 1   
    24    8   29 1   
    25    8   30 1   
    26    9   10 1   
    27    9   31 1   
    28   10   11 1   
    29   10   32 1   
    30   10   33 1   
    31   11   12 1   
    32   11   34 1   
    33   11   35 1   
    34   12   13 1   
    35   12   36 1   
    36   13   14 2   
    37   13   15 1   
    38   14   37 1   
    39   14   38 1   
    40   15   39 1   
    41   15   40 1   
    42   15   41 1   
@<TRIPOS>SUBSTRUCTURE
     1 JF1         1 TEMP              0 ****  ****    0 ROOT
