@<TRIPOS>MOLECULE
JF1
   41    42     1     0     0
SMALL
bcc


@<TRIPOS>ATOM
      1 CAJ        -0.0150   -0.0380   -0.0740 c3        1 JF1     -0.102400
      2 CAO         1.5260   -0.1100   -0.0240 c3        1 JF1      0.163200
      3 CAD         2.0030   -1.4140   -0.6590 c3        1 JF1     -0.117100
      4 CAM         1.9990   -0.0160    1.4560 c3        1 JF1     -0.076700
      5 CAC         1.5360   -1.2050    2.2720 c3        1 JF1     -0.099100
      6 CAF         3.5130    0.1110    1.5620 c3        1 JF1     -0.098400
      7 CAE         4.0630    1.2500    0.7360 c3        1 JF1     -0.105400
      8 CAH         3.5660    1.1850   -0.7030 c3        1 JF1      0.112800
      9 NAN         2.0760    1.1230   -0.7600 nx        1 JF1     -0.685400
     10 CAI         1.5710    1.2210   -2.1630 c3        1 JF1      0.112800
     11 CAG         0.0500    1.2640   -2.2170 c3        1 JF1     -0.102400
     12 CAL        -0.5570    0.0700   -1.4930 c3        1 JF1     -0.029500
     13 CAK        -2.0540    0.1560   -1.4970 c2        1 JF1     -0.146400
     14 CAB        -2.7810   -0.6290   -2.2990 c2        1 JF1     -0.176000
     15 CAA        -2.6870    1.1330   -0.5770 c3        1 JF1     -0.062900
     16 H1         -0.4200   -0.9730    0.3970 hc        1 JF1      0.083200
     17 H2         -0.3720    0.8300    0.5420 hc        1 JF1      0.083200
     18 H3          1.7900   -1.4540   -1.7540 hc        1 JF1      0.071033
     19 H4          1.4520   -2.2600   -0.1760 hc        1 JF1      0.071033
     20 H5          3.0960   -1.5750   -0.4990 hc        1 JF1      0.071033
     21 H6          1.5310    0.9090    1.9040 hc        1 JF1      0.062700
     22 H7          0.4250   -1.3060    2.2470 hc        1 JF1      0.058700
     23 H8          1.8470   -1.0610    3.3380 hc        1 JF1      0.058700
     24 H9          1.9960   -2.1540    1.9040 hc        1 JF1      0.058700
     25 H10         3.9980   -0.8540    1.2530 hc        1 JF1      0.077700
     26 H11         3.7830    0.2780    2.6400 hc        1 JF1      0.077700
     27 H12         5.1850    1.2010    0.7140 hc        1 JF1      0.083700
     28 H13         3.7820    2.2340    1.1970 hc        1 JF1      0.083700
     29 H14         3.9760    0.2720   -1.2200 hx        1 JF1      0.099200
     30 H15         3.9010    2.0990   -1.2700 hx        1 JF1      0.099200
     31 H16         1.7090    1.9350   -0.2440 hn        1 JF1      0.439800
     32 H17         1.9970    2.1620   -2.6170 hx        1 JF1      0.097700
     33 H18         1.9620    0.3390   -2.7440 hx        1 JF1      0.097700
     34 H19        -0.3300    2.2220   -1.7740 hc        1 JF1      0.086200
     35 H20        -0.2570    1.2510   -3.2970 hc        1 JF1      0.086200
     36 H21        -0.2540   -0.8640   -2.0530 hc        1 JF1      0.065700
     37 H22        -2.3340   -1.3690   -2.9760 ha        1 JF1      0.128500
     38 H23        -3.8790   -0.5800   -2.3250 ha        1 JF1      0.128500
     39 H24        -3.7550    1.3140   -0.8580 hc        1 JF1      0.048367
     40 H25        -2.1510    2.1140   -0.5990 hc        1 JF1      0.048367
     41 H26        -2.6680    0.7430    0.4720 hc        1 JF1      0.048367
@<TRIPOS>BOND
     1    1    2 1   
     2    1   12 1   
     3    1   16 1   
     4    1   17 1   
     5    2    3 1   
     6    2    4 1   
     7    2    9 1   
     8    3   18 1   
     9    3   19 1   
    10    3   20 1   
    11    4    5 1   
    12    4    6 1   
    13    4   21 1   
    14    5   22 1   
    15    5   23 1   
    16    5   24 1   
    17    6    7 1   
    18    6   25 1   
    19    6   26 1   
    20    7    8 1   
    21    7   27 1   
    22    7   28 1   
    23    8    9 1   
    24    8   29 1   
    25    8   30 1   
    26    9   10 1   
    27    9   31 1   
    28   10   11 1   
    29   10   32 1   
    30   10   33 1   
    31   11   12 1   
    32   11   34 1   
    33   11   35 1   
    34   12   13 1   
    35   12   36 1   
    36   13   14 2   
    37   13   15 1   
    38   14   37 1   
    39   14   38 1   
    40   15   39 1   
    41   15   40 1   
    42   15   41 1   
@<TRIPOS>SUBSTRUCTURE
     1 JF1         1 TEMP              0 ****  ****    0 ROOT
