@<TRIPOS>MOLECULE
JF2
   41    42     1     0     0
SMALL
bcc


@<TRIPOS>ATOM
      1 CAJ        -0.0180    0.0350   -0.0730 c3        1 JF2     -0.102400
      2 CAO         1.5230    0.1140   -0.0280 c3        1 JF2      0.163200
      3 CAD         1.9920    1.4180   -0.6690 c3        1 JF2     -0.117100
      4 CAM         2.0010    0.0280    1.4510 c3        1 JF2     -0.076700
      5 CAC         1.5360    1.2180    2.2640 c3        1 JF2     -0.099100
      6 CAF         3.5150   -0.0920    1.5530 c3        1 JF2     -0.098400
      7 CAE         4.0670   -1.2320    0.7290 c3        1 JF2     -0.105400
      8 CAH         3.5660   -1.1740   -0.7070 c3        1 JF2      0.112800
      9 NAN         2.0750   -1.1190   -0.7610 n4        1 JF2     -0.685400
     10 CAI         1.5670   -1.2250   -2.1610 c3        1 JF2      0.112800
     11 CAG         0.0460   -1.2750   -2.2100 c3        1 JF2     -0.102400
     12 CAL        -0.5640   -0.0810   -1.4890 c3        1 JF2     -0.029500
     13 CAK        -2.0610   -0.1730   -1.4880 c2        1 JF2     -0.146400
     14 CAB        -2.7940    0.6060   -2.2910 c2        1 JF2     -0.176000
     15 CAA        -2.6870   -1.1490   -0.5620 c3        1 JF2     -0.062900
     16 H1         -0.4260    0.9700    0.3960 hc        1 JF2      0.083200
     17 H2         -0.3690   -0.8310    0.5480 hc        1 JF2      0.083200
     18 H3          1.4390    2.2640   -0.1870 hc        1 JF2      0.071033
     19 H4          3.0850    1.5850   -0.5130 hc        1 JF2      0.071033
     20 H5          1.7750    1.4530   -1.7640 hc        1 JF2      0.071033
     21 H6          1.5380   -0.8970    1.9040 hc        1 JF2      0.062700
     22 H7          1.8500    1.0800    3.3290 hc        1 JF2      0.058700
     23 H8          1.9900    2.1670    1.8910 hc        1 JF2      0.058700
     24 H9          0.4240    1.3150    2.2420 hc        1 JF2      0.058700
     25 H10         3.9950    0.8730    1.2390 hc        1 JF2      0.077700
     26 H11         3.7890   -0.2540    2.6310 hc        1 JF2      0.077700
     27 H12         3.7920   -2.2160    1.1950 hc        1 JF2      0.083700
     28 H13         5.1890   -1.1790    0.7040 hc        1 JF2      0.083700
     29 H14         3.9030   -2.0900   -1.2720 hx        1 JF2      0.099200
     30 H15         3.9700   -0.2620   -1.2300 hx        1 JF2      0.099200
     31 H16         1.7140   -1.9300   -0.2400 hn        1 JF2      0.439800
     32 H17         1.9960   -2.1660   -2.6130 hx        1 JF2      0.097700
     33 H18         1.9520   -0.3440   -2.7470 hx        1 JF2      0.097700
     34 H19        -0.2640   -1.2670   -3.2890 hc        1 JF2      0.086200
     35 H20        -0.3290   -2.2330   -1.7620 hc        1 JF2      0.086200
     36 H21        -0.2670    0.8530   -2.0540 hc        1 JF2      0.065700
     37 H22        -2.3520    1.3450   -2.9730 ha        1 JF2      0.128500
     38 H23        -3.8920    0.5520   -2.3130 ha        1 JF2      0.128500
     39 H24        -3.7550   -1.3360   -0.8390 hc        1 JF2      0.048367
     40 H25        -2.6660   -0.7540    0.4850 hc        1 JF2      0.048367
     41 H26        -2.1470   -2.1270   -0.5810 hc        1 JF2      0.048367
@<TRIPOS>BOND
     1    1    2 1   
     2    1   12 1   
     3    1   16 1   
     4    1   17 1   
     5    2    3 1   
     6    2    4 1   
     7    2    9 1   
     8    3   18 1   
     9    3   19 1   
    10    3   20 1   
    11    4    5 1   
    12    4    6 1   
    13    4   21 1   
    14    5   22 1   
    15    5   23 1   
    16    5   24 1   
    17    6    7 1   
    18    6   25 1   
    19    6   26 1   
    20    7    8 1   
    21    7   27 1   
    22    7   28 1   
    23    8    9 1   
    24    8   29 1   
    25    8   30 1   
    26    9   10 1   
    27    9   31 1   
    28   10   11 1   
    29   10   32 1   
    30   10   33 1   
    31   11   12 1   
    32   11   34 1   
    33   11   35 1   
    34   12   13 1   
    35   12   36 1   
    36   13   14 2   
    37   13   15 1   
    38   14   37 1   
    39   14   38 1   
    40   15   39 1   
    41   15   40 1   
    42   15   41 1   
@<TRIPOS>SUBSTRUCTURE
     1 JF2         1 TEMP              0 ****  ****    0 ROOT
