@<TRIPOS>MOLECULE
JF2
   41    42     1     0     0
SMALL
bcc


@<TRIPOS>ATOM
      1 CAJ        -0.7440    0.7550    0.1220 c3        1 JF2     -0.102400
      2 CAO         0.6840    0.3210   -0.2730 c3        1 JF2      0.162200
      3 CAD         0.8400    0.3880   -1.7910 c3        1 JF2     -0.117100
      4 CAM         1.7180    1.2500    0.4260 c3        1 JF2     -0.076700
      5 CAC         1.6050    2.6820   -0.0540 c3        1 JF2     -0.099100
      6 CAF         3.1470    0.7620    0.2250 c3        1 JF2     -0.098400
      7 CAE         3.3340   -0.6800    0.6400 c3        1 JF2     -0.105400
      8 CAH         2.2940   -1.5850   -0.0070 c3        1 JF2      0.112800
      9 NAN         0.9080   -1.1010    0.2650 n4        1 JF2     -0.685400
     10 CAI        -0.1220   -2.0660   -0.2250 c3        1 JF2      0.112800
     11 CAG        -1.5300   -1.6270    0.1520 c3        1 JF2     -0.103400
     12 CAL        -1.8150   -0.2200   -0.3510 c3        1 JF2     -0.029500
     13 CAK        -3.1740    0.2500    0.0750 c2        1 JF2     -0.146400
     14 CAB        -4.0200    0.7860   -0.8110 c2        1 JF2     -0.177000
     15 CAA        -3.5400    0.0860    1.5030 c3        1 JF2     -0.062900
     16 H1         -0.8050    0.8850    1.2350 hc        1 JF2      0.082700
     17 H2         -0.9390    1.7580   -0.3420 hc        1 JF2      0.082700
     18 H3          0.1920   -0.3560   -2.3150 hc        1 JF2      0.071367
     19 H4          0.5260    1.4080   -2.1300 hc        1 JF2      0.071367
     20 H5          1.8990    0.2280   -2.1050 hc        1 JF2      0.071367
     21 H6          1.4900    1.2410    1.5320 hc        1 JF2      0.062700
     22 H7          0.5770    3.0850    0.1120 hc        1 JF2      0.059033
     23 H8          2.3230    3.3190    0.5220 hc        1 JF2      0.059033
     24 H9          1.8590    2.7690   -1.1380 hc        1 JF2      0.059033
     25 H10         3.4460    0.8910   -0.8490 hc        1 JF2      0.077700
     26 H11         3.8350    1.4090    0.8330 hc        1 JF2      0.077700
     27 H12         4.3490   -1.0410    0.3220 hc        1 JF2      0.083700
     28 H13         3.2840   -0.7710    1.7580 hc        1 JF2      0.083700
     29 H14         2.4410   -1.6210   -1.1230 hx        1 JF2      0.099200
     30 H15         2.3860   -2.6320    0.4010 hx        1 JF2      0.099200
     31 H16         0.7980   -1.0270    1.2860 hn        1 JF2      0.439800
     32 H17        -0.0220   -2.1550   -1.3430 hx        1 JF2      0.098200
     33 H18         0.1020   -3.0720    0.2320 hx        1 JF2      0.098200
     34 H19        -2.2540   -2.3510   -0.3080 hc        1 JF2      0.086700
     35 H20        -1.6670   -1.6780    1.2650 hc        1 JF2      0.086700
     36 H21        -1.7870   -0.2460   -1.4810 hc        1 JF2      0.065700
     37 H22        -5.0190    1.1420   -0.5220 ha        1 JF2      0.128000
     38 H23        -3.7760    0.9020   -1.8750 ha        1 JF2      0.128000
     39 H24        -2.6940    0.3780    2.1740 hc        1 JF2      0.048700
     40 H25        -4.4250    0.7180    1.7650 hc        1 JF2      0.048700
     41 H26        -3.8050   -0.9820    1.7130 hc        1 JF2      0.048700
@<TRIPOS>BOND
     1    1    2 1   
     2    1   12 1   
     3    1   16 1   
     4    1   17 1   
     5    2    3 1   
     6    2    4 1   
     7    2    9 1   
     8    3   18 1   
     9    3   19 1   
    10    3   20 1   
    11    4    5 1   
    12    4    6 1   
    13    4   21 1   
    14    5   22 1   
    15    5   23 1   
    16    5   24 1   
    17    6    7 1   
    18    6   25 1   
    19    6   26 1   
    20    7    8 1   
    21    7   27 1   
    22    7   28 1   
    23    8    9 1   
    24    8   29 1   
    25    8   30 1   
    26    9   10 1   
    27    9   31 1   
    28   10   11 1   
    29   10   32 1   
    30   10   33 1   
    31   11   12 1   
    32   11   34 1   
    33   11   35 1   
    34   12   13 1   
    35   12   36 1   
    36   13   14 2   
    37   13   15 1   
    38   14   37 1   
    39   14   38 1   
    40   15   39 1   
    41   15   40 1   
    42   15   41 1   
@<TRIPOS>SUBSTRUCTURE
     1 JF2         1 TEMP              0 ****  ****    0 ROOT
