@<TRIPOS>MOLECULE
JF2
   41    42     1     0     0
SMALL
bcc


@<TRIPOS>ATOM
      1 CAJ        -0.0020    0.0880   -0.0600 c3        1 JF2     -0.102400
      2 CAO         1.5410    0.1210   -0.0370 c3        1 JF2      0.162200
      3 CAD         2.0380    1.3850   -0.7380 c3        1 JF2     -0.117100
      4 CAM         2.0370    0.0820    1.4370 c3        1 JF2     -0.076700
      5 CAC         1.6140    1.3140    2.2090 c3        1 JF2     -0.099100
      6 CAF         3.5500   -0.0740    1.5230 c3        1 JF2     -0.098400
      7 CAE         4.0590   -1.2610    0.7390 c3        1 JF2     -0.105400
      8 CAH         3.5380   -1.2500   -0.6920 c3        1 JF2      0.112800
      9 NAN         2.0490   -1.1550   -0.7270 nx        1 JF2     -0.685400
     10 CAI         1.5160   -1.3040   -2.1140 c3        1 JF2      0.112800
     11 CAG        -0.0070   -1.3210   -2.1350 c3        1 JF2     -0.103400
     12 CAL        -0.5740   -0.0800   -1.4620 c3        1 JF2     -0.029500
     13 CAK        -2.0730   -0.1190   -1.4140 c2        1 JF2     -0.146400
     14 CAB        -2.7960    0.9310   -1.8180 c2        1 JF2     -0.177000
     15 CAA        -2.7110   -1.3620   -0.9170 c3        1 JF2     -0.062900
     16 H1         -0.3740    1.0580    0.3670 hc        1 JF2      0.082700
     17 H2         -0.3730   -0.7340    0.6090 hc        1 JF2      0.082700
     18 H3          3.1380    1.5220   -0.6110 hc        1 JF2      0.071367
     19 H4          1.7980    1.3840   -1.8290 hc        1 JF2      0.071367
     20 H5          1.5220    2.2660   -0.2780 hc        1 JF2      0.071367
     21 H6          1.5570   -0.8130    1.9330 hc        1 JF2      0.062700
     22 H7          1.9380    1.2090    3.2750 hc        1 JF2      0.059033
     23 H8          0.5050    1.4390    2.1960 hc        1 JF2      0.059033
     24 H9          2.0880    2.2360    1.7930 hc        1 JF2      0.059033
     25 H10         4.0490    0.8640    1.1630 hc        1 JF2      0.077700
     26 H11         3.8350   -0.1990    2.6030 hc        1 JF2      0.077700
     27 H12         3.7660   -2.2170    1.2490 hc        1 JF2      0.083700
     28 H13         5.1810   -1.2390    0.6960 hc        1 JF2      0.083700
     29 H14         3.8410   -2.1970   -1.2220 hx        1 JF2      0.099200
     30 H15         3.9590   -0.3720   -1.2580 hx        1 JF2      0.099200
     31 H16         1.6730   -1.9340   -0.1680 hn        1 JF2      0.439800
     32 H17         1.9160   -2.2710   -2.5350 hx        1 JF2      0.098200
     33 H18         1.9110   -0.4550   -2.7400 hx        1 JF2      0.098200
     34 H19        -0.3390   -1.3600   -3.2070 hc        1 JF2      0.086700
     35 H20        -0.3910   -2.2480   -1.6310 hc        1 JF2      0.086700
     36 H21        -0.2620    0.8170   -2.0750 hc        1 JF2      0.065700
     37 H22        -2.3440    1.8540   -2.2050 ha        1 JF2      0.128000
     38 H23        -3.8950    0.9280   -1.7880 ha        1 JF2      0.128000
     39 H24        -3.7830   -1.1830   -0.6500 hc        1 JF2      0.048700
     40 H25        -2.1870   -1.7500   -0.0090 hc        1 JF2      0.048700
     41 H26        -2.6800   -2.1550   -1.7070 hc        1 JF2      0.048700
@<TRIPOS>BOND
     1    1    2 1   
     2    1   12 1   
     3    1   16 1   
     4    1   17 1   
     5    2    3 1   
     6    2    4 1   
     7    2    9 1   
     8    3   18 1   
     9    3   19 1   
    10    3   20 1   
    11    4    5 1   
    12    4    6 1   
    13    4   21 1   
    14    5   22 1   
    15    5   23 1   
    16    5   24 1   
    17    6    7 1   
    18    6   25 1   
    19    6   26 1   
    20    7    8 1   
    21    7   27 1   
    22    7   28 1   
    23    8    9 1   
    24    8   29 1   
    25    8   30 1   
    26    9   10 1   
    27    9   31 1   
    28   10   11 1   
    29   10   32 1   
    30   10   33 1   
    31   11   12 1   
    32   11   34 1   
    33   11   35 1   
    34   12   13 1   
    35   12   36 1   
    36   13   14 2   
    37   13   15 1   
    38   14   37 1   
    39   14   38 1   
    40   15   39 1   
    41   15   40 1   
    42   15   41 1   
@<TRIPOS>SUBSTRUCTURE
     1 JF2         1 TEMP              0 ****  ****    0 ROOT
