@<TRIPOS>MOLECULE
JF2
   41    42     1     0     0
SMALL
bcc


@<TRIPOS>ATOM
      1 CAJ        -0.0130    0.0730   -0.0810 c3        1 JF2     -0.102400
      2 CAO         1.5280    0.1340   -0.0300 c3        1 JF2      0.162200
      3 CAD         2.0170    1.4000   -0.7330 c3        1 JF2     -0.117100
      4 CAM         1.9970    0.1150    1.4540 c3        1 JF2     -0.076700
      5 CAC         1.5390    1.3470    2.2070 c3        1 JF2     -0.099100
      6 CAF         3.5110   -0.0130    1.5700 c3        1 JF2     -0.098400
      7 CAE         4.0550   -1.1980    0.8060 c3        1 JF2     -0.105400
      8 CAH         3.5610   -1.2070   -0.6350 c3        1 JF2      0.112800
      9 NAN         2.0710   -1.1390   -0.6990 n4        1 JF2     -0.685400
     10 CAI         1.5670   -1.3090   -2.0940 c3        1 JF2      0.112800
     11 CAG         0.0460   -1.3530   -2.1430 c3        1 JF2     -0.103400
     12 CAL        -0.5560   -0.1170   -1.4920 c3        1 JF2     -0.029500
     13 CAK        -2.0540   -0.1820   -1.4720 c2        1 JF2     -0.146400
     14 CAB        -2.7870    0.8520   -1.8980 c2        1 JF2     -0.177000
     15 CAA        -2.6800   -1.4310   -0.9750 c3        1 JF2     -0.062900
     16 H1         -0.3820   -0.7490    0.5880 hc        1 JF2      0.082700
     17 H2         -0.4090    1.0400    0.3300 hc        1 JF2      0.082700
     18 H3          1.7970    1.3860   -1.8270 hc        1 JF2      0.071367
     19 H4          1.4770    2.2750   -0.2900 hc        1 JF2      0.071367
     20 H5          3.1120    1.5570   -0.5860 hc        1 JF2      0.071367
     21 H6          1.5240   -0.7830    1.9480 hc        1 JF2      0.062700
     22 H7          0.4280    1.4520    2.1720 hc        1 JF2      0.059033
     23 H8          1.8450    1.2560    3.2790 hc        1 JF2      0.059033
     24 H9          2.0050    2.2730    1.7920 hc        1 JF2      0.059033
     25 H10         4.0010    0.9300    1.2110 hc        1 JF2      0.077700
     26 H11         3.7780   -0.1240    2.6560 hc        1 JF2      0.077700
     27 H12         5.1780   -1.1560    0.7830 hc        1 JF2      0.083700
     28 H13         3.7690   -2.1550    1.3180 hc        1 JF2      0.083700
     29 H14         3.9780   -0.3270   -1.2010 hx        1 JF2      0.099200
     30 H15         3.8910   -2.1540   -1.1510 hx        1 JF2      0.099200
     31 H16         1.6990   -1.9200   -0.1400 hn        1 JF2      0.439800
     32 H17         1.9920   -2.2720   -2.4990 hx        1 JF2      0.098200
     33 H18         1.9590   -0.4590   -2.7200 hx        1 JF2      0.098200
     34 H19        -0.2650   -1.4060   -3.2210 hc        1 JF2      0.086700
     35 H20        -0.3320   -2.2820   -1.6390 hc        1 JF2      0.086700
     36 H21        -0.2470    0.7810   -2.1060 hc        1 JF2      0.065700
     37 H22        -2.3450    1.7800   -2.2840 ha        1 JF2      0.128000
     38 H23        -3.8860    0.8310   -1.8890 ha        1 JF2      0.128000
     39 H24        -2.6200   -2.2290   -1.7580 hc        1 JF2      0.048700
     40 H25        -3.7590   -1.2690   -0.7310 hc        1 JF2      0.048700
     41 H26        -2.1660   -1.8020   -0.0540 hc        1 JF2      0.048700
@<TRIPOS>BOND
     1    1    2 1   
     2    1   12 1   
     3    1   16 1   
     4    1   17 1   
     5    2    3 1   
     6    2    4 1   
     7    2    9 1   
     8    3   18 1   
     9    3   19 1   
    10    3   20 1   
    11    4    5 1   
    12    4    6 1   
    13    4   21 1   
    14    5   22 1   
    15    5   23 1   
    16    5   24 1   
    17    6    7 1   
    18    6   25 1   
    19    6   26 1   
    20    7    8 1   
    21    7   27 1   
    22    7   28 1   
    23    8    9 1   
    24    8   29 1   
    25    8   30 1   
    26    9   10 1   
    27    9   31 1   
    28   10   11 1   
    29   10   32 1   
    30   10   33 1   
    31   11   12 1   
    32   11   34 1   
    33   11   35 1   
    34   12   13 1   
    35   12   36 1   
    36   13   14 2   
    37   13   15 1   
    38   14   37 1   
    39   14   38 1   
    40   15   39 1   
    41   15   40 1   
    42   15   41 1   
@<TRIPOS>SUBSTRUCTURE
     1 JF2         1 TEMP              0 ****  ****    0 ROOT
