@<TRIPOS>MOLECULE
JF2
   41    41     1     0     0
SMALL
bcc


@<TRIPOS>ATOM
      1 CAJ        -0.7640    0.4230    0.1730 c3        1 JF2     -0.172000
      2 CAO         0.7710    0.4160    0.1630 c3        1 JF2      0.000000
      3 CAD         1.2490    1.7430   -0.5030 c3        1 JF2     -0.245000
      4 CAM         1.2570    0.4320    1.6680 c3        1 JF2     -0.121000
      5 CAC         2.9600    0.7590    1.6890 c3        1 JF2     -0.226000
      6 CAF         1.0690   -0.5690    2.2130 c3        1 JF2     -0.173000
      7 CAE         1.4940   -1.5140    1.6370 c3        1 JF2     -0.181000
      8 CAH         1.0330   -1.5930    0.0810 c3        1 JF2     -0.125000
      9 NAN         1.2860   -0.6190   -0.5700 n4        1 JF2      0.000000
     10 CAI         0.9510   -0.7010   -1.4800 c3        1 JF2     -0.123000
     11 CAG        -0.6330   -0.7200   -1.5810 c3        1 JF2     -0.176000
     12 CAL        -1.2260    0.3640   -0.9400 c3        1 JF2     -0.078000
     13 CAK        -3.0640    0.2650   -0.9420 c2        1 JF2     -0.119000
     14 CAB        -3.6830   -0.7860   -0.3750 c1        1 JF2     -0.199000
     15 CAA        -3.8730    1.3580   -1.5800 c3        1 JF2     -0.187000
     16 H1         -1.0710    1.2340    0.6000 hc        1 JF2      0.121000
     17 H2         -1.0770   -0.3370    0.6820 hc        1 JF2      0.121000
     18 H3          1.0940    2.4920    0.1110 hc        1 JF2      0.110667
     19 H4          0.7310    1.8960   -1.3650 hc        1 JF2      0.110667
     20 H5          2.2040    1.6790   -0.7030 hc        1 JF2      0.110667
     21 H6          0.8040    1.1260    2.1330 hc        1 JF2      0.134000
     22 H7          3.4160    0.2240    0.9640 hc        1 JF2      0.091667
     23 H8          3.3200    0.5130    2.5400 hc        1 JF2      0.091667
     24 H9          3.1130    1.7310    1.5300 hc        1 JF2      0.091667
     25 H10         1.5000   -0.5290    3.1120 hc        1 JF2      0.115000
     26 H11         0.0930   -0.6850    2.3360 hc        1 JF2      0.115000
     27 H12         2.5070   -1.4830    1.6710 hc        1 JF2      0.123000
     28 H13         1.1740   -2.3590    2.1180 hc        1 JF2      0.123000
     29 H14         0.0390   -1.7450    0.0520 hx        1 JF2      0.137500
     30 H15         1.4720   -2.3580   -0.3280 hx        1 JF2      0.137500
     31 H16         2.1940   -0.5220   -0.6070 hn        1 JF2      0.236000
     32 H17         1.3060   -1.5540   -1.8750 hx        1 JF2      0.136500
     33 H18         1.2900    0.0530   -2.0050 hx        1 JF2      0.136500
     34 H19        -0.9660   -1.5510   -1.1750 hc        1 JF2      0.124000
     35 H20        -0.8840   -0.7060   -2.5070 hc        1 JF2      0.124000
     36 H21        -1.0790    1.1740   -1.4200 hc        1 JF2      0.109000
     37 H22        -3.1630   -1.4910    0.0350 DU        1 JF2      0.103000
     38 H23        -4.7000   -0.8400   -0.3750 ha        1 JF2      0.141000
     39 H24        -3.5080    2.2240   -1.3270 hc        1 JF2      0.093333
     40 H25        -4.7950    1.2960   -1.2800 hc        1 JF2      0.093333
     41 H26        -3.8390    1.2590   -2.5710 hc        1 JF2      0.093333
@<TRIPOS>BOND
     1    1    2 1   
     2    1   12 1   
     3    1   16 1   
     4    1   17 1   
     5    2    3 1   
     6    2    4 1   
     7    2    9 1   
     8    3   18 1   
     9    3   19 1   
    10    3   20 1   
    11    4    5 1   
    12    4    6 1   
    13    4   21 1   
    14    5   22 1   
    15    5   23 1   
    16    5   24 1   
    17    6    7 1   
    18    6   25 1   
    19    6   26 1   
    20    7    8 1   
    21    7   27 1   
    22    7   28 1   
    23    8    9 1   
    24    8   29 1   
    25    8   30 1   
    26    9   10 1   
    27    9   31 1   
    28   10   11 1   
    29   10   32 1   
    30   10   33 1   
    31   11   12 1   
    32   11   34 1   
    33   11   35 1   
    34   12   13 1   
    35   12   36 1   
    36   13   14 1   
    37   13   15 1   
    38   14   38 1   
    39   15   39 1   
    40   15   40 1   
    41   15   41 1   
@<TRIPOS>SUBSTRUCTURE
     1 JF2         1 TEMP              0 ****  ****    0 ROOT
