@<TRIPOS>MOLECULE
JF4
   41    42     1     0     0
SMALL
bcc


@<TRIPOS>ATOM
      1 CAA        -0.1620   -0.2840    0.1280 c2        1 JF4     -0.167000
      2 CAK         1.1470   -0.0160    0.0510 c2        1 JF4     -0.152400
      3 CAB         1.8060    0.3040   -1.2380 c3        1 JF4     -0.064900
      4 CAL         2.0030   -0.0420    1.2800 c3        1 JF4     -0.033500
      5 CAG         2.9140   -1.2580    1.3130 c3        1 JF4     -0.092400
      6 CAI         3.7950   -1.2300    2.5400 c3        1 JF4     -0.101400
      7 CAO         4.6190    0.0650    2.7080 c3        1 JF4      0.155200
      8 CAD         5.2280    0.0160    4.1180 c3        1 JF4     -0.127100
      9 NAN         3.7100    1.2880    2.5730 n4        1 JF4     -0.678400
     10 CAJ         2.8580    1.2280    1.3460 c3        1 JF4      0.107800
     11 CAH         5.7440    0.1100    1.6600 c3        1 JF4     -0.092400
     12 CAE         6.5170    1.4090    1.6660 c3        1 JF4     -0.096400
     13 CAF         5.6080    2.6140    1.5710 c3        1 JF4     -0.095400
     14 CAM         4.5120    2.5700    2.6370 c3        1 JF4      0.134500
     15 CAC         3.6400    3.8140    2.5500 c3        1 JF4     -0.129100
     16 H1         -0.8080   -0.2910   -0.7610 ha        1 JF4      0.131000
     17 H2         -0.6700   -0.5170    1.0740 ha        1 JF4      0.131000
     18 H3          2.7690   -0.2550   -1.3470 hc        1 JF4      0.050033
     19 H4          1.1490    0.0330   -2.1020 hc        1 JF4      0.050033
     20 H5          2.0230    1.4000   -1.3010 hc        1 JF4      0.050033
     21 H6          1.3310   -0.0760    2.1880 hc        1 JF4      0.064700
     22 H7          2.2900   -2.1920    1.3290 hc        1 JF4      0.078200
     23 H8          3.5390   -1.2980    0.3820 hc        1 JF4      0.078200
     24 H9          3.1650   -1.3820    3.4570 hc        1 JF4      0.079200
     25 H10         4.5260   -2.0820    2.4920 hc        1 JF4      0.079200
     26 H11         5.9780    0.8270    4.2770 hc        1 JF4      0.071367
     27 H12         5.7540   -0.9650    4.2370 hc        1 JF4      0.071367
     28 H13         4.4410    0.0840    4.9080 hc        1 JF4      0.071367
     29 H15         3.5350    1.2770    0.4470 hx        1 JF4      0.102200
     30 H16         2.1840    2.1320    1.3450 hx        1 JF4      0.102200
     31 H17         6.4430   -0.7410    1.8820 hc        1 JF4      0.079200
     32 H18         5.3120   -0.0720    0.6400 hc        1 JF4      0.079200
     33 H19         7.1420    1.4800    2.5950 hc        1 JF4      0.075200
     34 H20         7.2270    1.4140    0.7950 hc        1 JF4      0.075200
     35 H21         6.2030    3.5530    1.7380 hc        1 JF4      0.080700
     36 H22         5.1570    2.6870    0.5470 hc        1 JF4      0.080700
     37 H23         5.0060    2.5570    3.6580 hx        1 JF4      0.097700
     38 H24         4.2620    4.6940    2.8570 hc        1 JF4      0.073367
     39 H25         3.2800    3.9940    1.5080 hc        1 JF4      0.073367
     40 H26         2.7600    3.7570    3.2370 hc        1 JF4      0.073367
     41 H14         3.0810    1.2790    3.3860 hn        1 JF4      0.435800
@<TRIPOS>BOND
     1    1    2 2   
     2    1   16 1   
     3    1   17 1   
     4    2    3 1   
     5    2    4 1   
     6    3   18 1   
     7    3   19 1   
     8    3   20 1   
     9    4    5 1   
    10    4   10 1   
    11    4   21 1   
    12    5    6 1   
    13    5   22 1   
    14    5   23 1   
    15    6    7 1   
    16    6   24 1   
    17    6   25 1   
    18    7    8 1   
    19    7    9 1   
    20    7   11 1   
    21    8   26 1   
    22    8   27 1   
    23    8   28 1   
    24    9   10 1   
    25    9   14 1   
    26    9   41 1   
    27   10   29 1   
    28   10   30 1   
    29   11   12 1   
    30   11   31 1   
    31   11   32 1   
    32   12   13 1   
    33   12   33 1   
    34   12   34 1   
    35   13   14 1   
    36   13   35 1   
    37   13   36 1   
    38   14   15 1   
    39   14   37 1   
    40   15   38 1   
    41   15   39 1   
    42   15   40 1   
@<TRIPOS>SUBSTRUCTURE
     1 JF4         1 TEMP              0 ****  ****    0 ROOT
