@<TRIPOS>MOLECULE
JF4
   41    42     1     0     0
SMALL
bcc


@<TRIPOS>ATOM
      1 CAA         4.1080   -0.3730    0.8300 c2        1 JF4     -0.167000
      2 CAK         3.0360   -0.2890    0.0340 c2        1 JF4     -0.152400
      3 CAB         3.0910   -0.6740   -1.3970 c3        1 JF4     -0.064900
      4 CAL         1.7290    0.2130    0.5670 c3        1 JF4     -0.033500
      5 CAG         1.4070    1.6100    0.0610 c3        1 JF4     -0.092400
      6 CAI         0.0650    2.0680    0.5790 c3        1 JF4     -0.101400
      7 CAO        -1.1030    1.1040    0.2760 c3        1 JF4      0.155200
      8 CAD        -2.3030    1.5980    1.0970 c3        1 JF4     -0.127100
      9 NAN        -0.7310   -0.3200    0.6970 n4        1 JF4     -0.678400
     10 CAJ         0.5990   -0.7400    0.1610 c3        1 JF4      0.107800
     11 CAH        -1.4450    1.1530   -1.2220 c3        1 JF4     -0.092400
     12 CAE        -2.4890    0.1370   -1.6320 c3        1 JF4     -0.096400
     13 CAF        -2.1340   -1.2600   -1.1790 c3        1 JF4     -0.095400
     14 CAM        -1.8220   -1.2990    0.3180 c3        1 JF4      0.134500
     15 CAC        -1.5130   -2.7230    0.7580 c3        1 JF4     -0.129100
     16 H1          4.0860   -0.1000    1.8930 ha        1 JF4      0.131000
     17 H2          5.0830   -0.7190    0.4580 ha        1 JF4      0.131000
     18 H3          2.5870   -1.6610   -1.5540 hc        1 JF4      0.050033
     19 H4          2.5830    0.0890   -2.0390 hc        1 JF4      0.050033
     20 H5          4.1490   -0.7690   -1.7460 hc        1 JF4      0.050033
     21 H6          1.7880    0.2470    1.6940 hc        1 JF4      0.064700
     22 H7          2.2010    2.3250    0.4110 hc        1 JF4      0.078200
     23 H8          1.4220    1.6280   -1.0600 hc        1 JF4      0.078200
     24 H9          0.1260    2.2270    1.6900 hc        1 JF4      0.079200
     25 H10        -0.1950    3.0580    0.1140 hc        1 JF4      0.079200
     26 H11        -2.4470    2.6870    0.8830 hc        1 JF4      0.071367
     27 H12        -3.2450    1.0680    0.8200 hc        1 JF4      0.071367
     28 H13        -2.1270    1.4820    2.1940 hc        1 JF4      0.071367
     29 H15         0.5270   -0.7850   -0.9630 hx        1 JF4      0.102200
     30 H16         0.8240   -1.7720    0.5540 hx        1 JF4      0.102200
     31 H17        -1.8230    2.1870   -1.4460 hc        1 JF4      0.079200
     32 H18        -0.5110    1.0020   -1.8260 hc        1 JF4      0.079200
     33 H19        -3.4900    0.4270   -1.2140 hc        1 JF4      0.075200
     34 H20        -2.5880    0.1480   -2.7510 hc        1 JF4      0.075200
     35 H21        -3.0010   -1.9510   -1.3600 hc        1 JF4      0.080700
     36 H22        -1.2670   -1.6570   -1.7690 hc        1 JF4      0.080700
     37 H23        -2.7410   -0.9470    0.8830 hx        1 JF4      0.097700
     38 H24        -1.1670   -2.7660    1.8200 hc        1 JF4      0.073367
     39 H25        -2.4560   -3.3210    0.6760 hc        1 JF4      0.073367
     40 H26        -0.7440   -3.1980    0.1020 hc        1 JF4      0.073367
     41 H14        -0.6640   -0.3160    1.7220 hn        1 JF4      0.435800
@<TRIPOS>BOND
     1    1    2 2   
     2    1   16 1   
     3    1   17 1   
     4    2    3 1   
     5    2    4 1   
     6    3   18 1   
     7    3   19 1   
     8    3   20 1   
     9    4    5 1   
    10    4   10 1   
    11    4   21 1   
    12    5    6 1   
    13    5   22 1   
    14    5   23 1   
    15    6    7 1   
    16    6   24 1   
    17    6   25 1   
    18    7    8 1   
    19    7    9 1   
    20    7   11 1   
    21    8   26 1   
    22    8   27 1   
    23    8   28 1   
    24    9   10 1   
    25    9   14 1   
    26    9   41 1   
    27   10   29 1   
    28   10   30 1   
    29   11   12 1   
    30   11   31 1   
    31   11   32 1   
    32   12   13 1   
    33   12   33 1   
    34   12   34 1   
    35   13   14 1   
    36   13   35 1   
    37   13   36 1   
    38   14   15 1   
    39   14   37 1   
    40   15   38 1   
    41   15   39 1   
    42   15   40 1   
@<TRIPOS>SUBSTRUCTURE
     1 JF4         1 TEMP              0 ****  ****    0 ROOT
