@<TRIPOS>MOLECULE
JF4
   41    42     1     0     0
SMALL
bcc


@<TRIPOS>ATOM
      1 CAA        -0.1510   -0.3060    0.1170 c2        1 JF4     -0.167000
      2 CAK         1.1550   -0.0260    0.0440 c2        1 JF4     -0.152400
      3 CAB         1.8130    0.3080   -1.2430 c3        1 JF4     -0.064900
      4 CAL         2.0100   -0.0540    1.2730 c3        1 JF4     -0.033500
      5 CAG         2.9320   -1.2620    1.2980 c3        1 JF4     -0.092400
      6 CAI         3.8120   -1.2350    2.5260 c3        1 JF4     -0.101400
      7 CAO         4.6250    0.0660    2.7040 c3        1 JF4      0.155200
      8 CAD         5.2330    0.0120    4.1140 c3        1 JF4     -0.127100
      9 NAN         3.7040    1.2820    2.5770 nx        1 JF4     -0.678400
     10 CAJ         2.8540    1.2240    1.3490 c3        1 JF4      0.107800
     11 CAH         5.7490    0.1280    1.6570 c3        1 JF4     -0.092400
     12 CAE         6.5110    1.4340    1.6720 c3        1 JF4     -0.096400
     13 CAF         5.5930    2.6310    1.5860 c3        1 JF4     -0.095400
     14 CAM         4.4960    2.5700    2.6500 c3        1 JF4      0.134500
     15 CAC         3.6130    3.8080    2.5720 c3        1 JF4     -0.129100
     16 H1         -0.7970   -0.3130   -0.7730 ha        1 JF4      0.131000
     17 H2         -0.6580   -0.5500    1.0610 ha        1 JF4      0.131000
     18 H3          2.0200    1.4070   -1.2980 hc        1 JF4      0.050033
     19 H4          1.1590    0.0380   -2.1090 hc        1 JF4      0.050033
     20 H5          2.7800   -0.2410   -1.3550 hc        1 JF4      0.050033
     21 H6          1.3380   -0.1000    2.1790 hc        1 JF4      0.064700
     22 H7          3.5580   -1.2900    0.3670 hc        1 JF4      0.078200
     23 H8          2.3160   -2.2010    1.3070 hc        1 JF4      0.078200
     24 H9          3.1820   -1.3990    3.4420 hc        1 JF4      0.079200
     25 H10         4.5500   -2.0810    2.4720 hc        1 JF4      0.079200
     26 H11         5.7670   -0.9650    4.2260 hc        1 JF4      0.071367
     27 H12         4.4450    0.0680    4.9040 hc        1 JF4      0.071367
     28 H13         5.9760    0.8290    4.2790 hc        1 JF4      0.071367
     29 H15         2.1720    2.1210    1.3530 hx        1 JF4      0.102200
     30 H16         3.5320    1.2850    0.4500 hx        1 JF4      0.102200
     31 H17         6.4560   -0.7190    1.8740 hc        1 JF4      0.079200
     32 H18         5.3200   -0.0510    0.6350 hc        1 JF4      0.079200
     33 H19         7.2220    1.4510    0.8020 hc        1 JF4      0.075200
     34 H20         7.1350    1.5030    2.6030 hc        1 JF4      0.075200
     35 H21         6.1790    3.5740    1.7600 hc        1 JF4      0.080700
     36 H22         5.1410    2.7080    0.5620 hc        1 JF4      0.080700
     37 H23         4.9890    2.5540    3.6720 hx        1 JF4      0.097700
     38 H24         4.2270    4.6900    2.8860 hc        1 JF4      0.073367
     39 H25         3.2530    3.9910    1.5310 hc        1 JF4      0.073367
     40 H26         2.7330    3.7370    3.2570 hc        1 JF4      0.073367
     41 H14         3.0750    1.2610    3.3890 hn        1 JF4      0.435800
@<TRIPOS>BOND
     1    1    2 2   
     2    1   16 1   
     3    1   17 1   
     4    2    3 1   
     5    2    4 1   
     6    3   18 1   
     7    3   19 1   
     8    3   20 1   
     9    4    5 1   
    10    4   10 1   
    11    4   21 1   
    12    5    6 1   
    13    5   22 1   
    14    5   23 1   
    15    6    7 1   
    16    6   24 1   
    17    6   25 1   
    18    7    8 1   
    19    7    9 1   
    20    7   11 1   
    21    8   26 1   
    22    8   27 1   
    23    8   28 1   
    24    9   10 1   
    25    9   14 1   
    26    9   41 1   
    27   10   29 1   
    28   10   30 1   
    29   11   12 1   
    30   11   31 1   
    31   11   32 1   
    32   12   13 1   
    33   12   33 1   
    34   12   34 1   
    35   13   14 1   
    36   13   35 1   
    37   13   36 1   
    38   14   15 1   
    39   14   37 1   
    40   15   38 1   
    41   15   39 1   
    42   15   40 1   
@<TRIPOS>SUBSTRUCTURE
     1 JF4         1 TEMP              0 ****  ****    0 ROOT
