@<TRIPOS>MOLECULE
JF4
   41    42     1     0     0
SMALL
bcc


@<TRIPOS>ATOM
      1 CAA        -0.1430   -0.3260    0.1000 c2        1 JF4     -0.167000
      2 CAK         1.1620   -0.0420    0.0320 c2        1 JF4     -0.152400
      3 CAB         1.8260    0.2880   -1.2530 c3        1 JF4     -0.064900
      4 CAL         2.0120   -0.0610    1.2650 c3        1 JF4     -0.033500
      5 CAG         2.9370   -1.2660    1.3020 c3        1 JF4     -0.092400
      6 CAI         3.8110   -1.2310    2.5330 c3        1 JF4     -0.101400
      7 CAO         4.6190    0.0740    2.7090 c3        1 JF4      0.155200
      8 CAD         5.2200    0.0290    4.1220 c3        1 JF4     -0.127100
      9 NAN         3.6960    1.2870    2.5710 n4        1 JF4     -0.678400
     10 CAJ         2.8520    1.2200    1.3390 c3        1 JF4      0.107800
     11 CAH         5.7480    0.1340    1.6670 c3        1 JF4     -0.092400
     12 CAE         6.5060    1.4420    1.6800 c3        1 JF4     -0.096400
     13 CAF         5.5850    2.6360    1.5830 c3        1 JF4     -0.095400
     14 CAM         4.4830    2.5780    2.6420 c3        1 JF4      0.134500
     15 CAC         3.5960    3.8120    2.5530 c3        1 JF4     -0.129100
     16 H1         -0.7840   -0.3390   -0.7930 ha        1 JF4      0.131000
     17 H2         -0.6540   -0.5660    1.0420 ha        1 JF4      0.131000
     18 H3          2.7960   -0.2590   -1.3570 hc        1 JF4      0.050033
     19 H4          1.1770    0.0110   -2.1210 hc        1 JF4      0.050033
     20 H5          2.0300    1.3870   -1.3130 hc        1 JF4      0.050033
     21 H6          1.3350   -0.1040    2.1690 hc        1 JF4      0.064700
     22 H7          3.5680   -1.2970    0.3740 hc        1 JF4      0.078200
     23 H8          2.3230   -2.2070    1.3120 hc        1 JF4      0.078200
     24 H9          4.5510   -2.0740    2.4880 hc        1 JF4      0.079200
     25 H10         3.1770   -1.3910    3.4470 hc        1 JF4      0.079200
     26 H11         5.9590    0.8490    4.2870 hc        1 JF4      0.071367
     27 H12         5.7560   -0.9460    4.2420 hc        1 JF4      0.071367
     28 H13         4.4280    0.0860    4.9080 hc        1 JF4      0.071367
     29 H15         3.5340    1.2780    0.4440 hx        1 JF4      0.102200
     30 H16         2.1670    2.1150    1.3360 hx        1 JF4      0.102200
     31 H17         6.4560   -0.7090    1.8920 hc        1 JF4      0.079200
     32 H18         5.3250   -0.0510    0.6440 hc        1 JF4      0.079200
     33 H19         7.1250    1.5180    2.6140 hc        1 JF4      0.075200
     34 H20         7.2220    1.4570    0.8140 hc        1 JF4      0.075200
     35 H21         6.1670    3.5820    1.7550 hc        1 JF4      0.080700
     36 H22         5.1380    2.7070    0.5560 hc        1 JF4      0.080700
     37 H23         4.9710    2.5680    3.6660 hx        1 JF4      0.097700
     38 H24         4.2070    4.6970    2.8650 hc        1 JF4      0.073367
     39 H25         2.7140    3.7430    3.2340 hc        1 JF4      0.073367
     40 H26         3.2410    3.9890    1.5090 hc        1 JF4      0.073367
     41 H14         3.0620    1.2680    3.3800 hn        1 JF4      0.435800
@<TRIPOS>BOND
     1    1    2 2   
     2    1   16 1   
     3    1   17 1   
     4    2    3 1   
     5    2    4 1   
     6    3   18 1   
     7    3   19 1   
     8    3   20 1   
     9    4    5 1   
    10    4   10 1   
    11    4   21 1   
    12    5    6 1   
    13    5   22 1   
    14    5   23 1   
    15    6    7 1   
    16    6   24 1   
    17    6   25 1   
    18    7    8 1   
    19    7    9 1   
    20    7   11 1   
    21    8   26 1   
    22    8   27 1   
    23    8   28 1   
    24    9   10 1   
    25    9   14 1   
    26    9   41 1   
    27   10   29 1   
    28   10   30 1   
    29   11   12 1   
    30   11   31 1   
    31   11   32 1   
    32   12   13 1   
    33   12   33 1   
    34   12   34 1   
    35   13   14 1   
    36   13   35 1   
    37   13   36 1   
    38   14   15 1   
    39   14   37 1   
    40   15   38 1   
    41   15   39 1   
    42   15   40 1   
@<TRIPOS>SUBSTRUCTURE
     1 JF4         1 TEMP              0 ****  ****    0 ROOT
