@<TRIPOS>MOLECULE
JF6
   19    20     1     0     0
SMALL
bcc


@<TRIPOS>ATOM
      1 C1          0.0050    0.0450   -0.0210 ca        1 JF6     -0.113000
      2 C2          1.3960    0.1440    0.0150 ca        1 JF6     -0.133500
      3 C6         -0.7130   -0.1080    1.1650 ca        1 JF6     -0.133500
      4 C3          2.0710    0.0970    1.2340 ca        1 JF6     -0.103000
      5 C5         -0.0480   -0.1550    2.3880 ca        1 JF6     -0.103000
      6 C4          1.3490   -0.0440    2.4280 ca        1 JF6     -0.143500
      7 C7          2.0490   -0.0780    3.6970 cc        1 JF6      0.259500
      8 C8          1.6670    0.6770    4.9450 cc        1 JF6      0.442900
      9 N11         3.1650   -0.7550    4.0110 nd        1 JF6     -0.318300
     10 N9          2.6170    0.3630    5.8680 nd        1 JF6     -0.413300
     11 N12         0.5240    1.4370    5.0940 nv        1 JF6     -0.901500
     12 O10         3.4660   -0.4840    5.2760 os        1 JF6      0.117600
     13 H1         -0.5240    0.0820   -0.9850 ha        1 JF6      0.137000
     14 H2          1.9660    0.2560   -0.9190 ha        1 JF6      0.138500
     15 H6         -1.8090   -0.1980    1.1360 ha        1 JF6      0.138500
     16 H3          3.1690    0.1660    1.2600 ha        1 JF6      0.148000
     17 H5         -0.6190   -0.3020    3.3180 ha        1 JF6      0.148000
     18 H121        0.5200    2.0630    5.8700 hn        1 JF6      0.416300
     19 H122        0.1980    1.8320    4.2380 hn        1 JF6      0.416300
@<TRIPOS>BOND
     1    1    2 ar  
     2    1    3 ar  
     3    1   13 1   
     4    2    4 ar  
     5    2   14 1   
     6    3    5 ar  
     7    3   15 1   
     8    4    6 ar  
     9    4   16 1   
    10    5    6 ar  
    11    5   17 1   
    12    6    7 1   
    13    7    8 1   
    14    7    9 2   
    15    8   10 2   
    16    8   11 1   
    17    9   12 1   
    18   10   12 1   
    19   11   18 1   
    20   11   19 1   
@<TRIPOS>SUBSTRUCTURE
     1 JF6         1 TEMP              0 ****  ****    0 ROOT
