@<TRIPOS>MOLECULE
JFD
   15    15     1     0     0
SMALL
bcc


@<TRIPOS>ATOM
      1 BR         -0.0100    0.0040    0.0050 br        1 JFD      0.072300
      2 C5          1.8460    0.0010   -0.0020 cc        1 JFD     -0.174500
      3 C4          2.5670    0.0050    1.3090 c         1 JFD      0.722700
      4 O8          2.0000    0.0100    2.4030 o         1 JFD     -0.495500
      5 N3          3.9680    0.0020    1.2550 n         1 JFD     -0.567500
      6 C2          4.6980   -0.0040    0.0680 c         1 JFD      0.825500
      7 O9          5.9340   -0.0060    0.0030 o         1 JFD     -0.537500
      8 N1          3.9710   -0.0080   -1.1680 n         1 JFD     -0.488100
      9 C6          2.5860   -0.0050   -1.1620 cd        1 JFD      0.158600
     10 N7          1.8780   -0.0090   -2.4690 n4        1 JFD     -0.736400
     11 HN3         4.4890    0.0050    2.1140 hn        1 JFD      0.393500
     12 HN1         4.5190   -0.0120   -2.0030 hn        1 JFD      0.372500
     13 HN7         1.2830    0.8320   -2.5260 hn        1 JFD      0.484467
     14 HN7A        2.5270   -0.0140   -3.2650 hn        1 JFD      0.484467
     15 H73         1.2790   -0.8480   -2.5180 hn        1 JFD      0.484467
@<TRIPOS>BOND
     1    1    2 1   
     2    2    3 1   
     3    2    9 2   
     4    3    4 2   
     5    3    5 1   
     6    5    6 1   
     7    5   11 1   
     8    6    7 2   
     9    6    8 1   
    10    8    9 1   
    11    8   12 1   
    12    9   10 1   
    13   10   13 1   
    14   10   14 1   
    15   10   15 1   
@<TRIPOS>SUBSTRUCTURE
     1 JFD         1 TEMP              0 ****  ****    0 ROOT
