@<TRIPOS>MOLECULE
JFD
   15    15     1     0     0
SMALL
bcc


@<TRIPOS>ATOM
      1 Br         -0.0100   -0.0010    0.0030 br        1 JFD      0.072300
      2 C5          1.8460   -0.0010   -0.0030 cc        1 JFD     -0.174500
      3 C4          2.5660    0.0030    1.3080 c         1 JFD      0.722700
      4 O8          1.9990    0.0060    2.4030 o         1 JFD     -0.495500
      5 N3          3.9670    0.0020    1.2560 ns        1 JFD     -0.567500
      6 C2          4.6970   -0.0010    0.0690 c         1 JFD      0.825500
      7 O9          5.9340   -0.0020    0.0050 o         1 JFD     -0.537500
      8 N1          3.9710   -0.0050   -1.1670 ns        1 JFD     -0.488100
      9 C6          2.5860   -0.0050   -1.1620 cd        1 JFD      0.158600
     10 N7          1.8790   -0.0090   -2.4700 nz        1 JFD     -0.736400
     11 HN3         4.4870    0.0050    2.1150 hn        1 JFD      0.393500
     12 HN1         4.5190   -0.0080   -2.0020 hn        1 JFD      0.372500
     13 HN7         1.2920    0.8370   -2.5310 hn        1 JFD      0.484467
     14 HN7A        2.5290   -0.0240   -3.2650 hn        1 JFD      0.484467
     15 H73         1.2730   -0.8430   -2.5150 hn        1 JFD      0.484467
@<TRIPOS>BOND
     1    1    2 1   
     2    2    3 1   
     3    2    9 2   
     4    3    4 2   
     5    3    5 1   
     6    5    6 1   
     7    5   11 1   
     8    6    7 2   
     9    6    8 1   
    10    8    9 1   
    11    8   12 1   
    12    9   10 1   
    13   10   13 1   
    14   10   14 1   
    15   10   15 1   
@<TRIPOS>SUBSTRUCTURE
     1 JFD         1 TEMP              0 ****  ****    0 ROOT
