@<TRIPOS>MOLECULE
JFD
   14    14     1     0     0
SMALL
bcc


@<TRIPOS>ATOM
      1 BR         -2.2990    1.1820   -0.1830 br        1 JFD     -0.023700
      2 C5         -0.3910    1.1820   -0.1830 cc        1 JFD     -0.343500
      3 C4          0.2350    1.1820    1.2030 c         1 JFD      0.748700
      4 O8          1.4390    1.3090    1.1970 o         1 JFD     -0.596500
      5 N3         -0.1030    0.2020    1.9230 n         1 JFD     -0.584500
      6 C2         -0.0560   -1.1140    1.2730 c         1 JFD      0.818500
      7 O9          0.1990   -2.1050    1.9270 o         1 JFD     -0.634500
      8 N1          0.4100   -1.1310   -0.2390 n         1 JFD     -0.492100
      9 C6          0.0880    0.1880   -0.9630 cd        1 JFD      0.371600
     10 N7         -0.0760    0.2480   -2.3700 nh        1 JFD     -0.863600
     11 HN3         0.2210    0.2090    2.7750 hn        1 JFD      0.358500
     12 HN1         0.5990   -1.8860   -0.7150 hn        1 JFD      0.351500
     13 HN7        -0.3000    1.0370   -2.7700 hn        1 JFD      0.444800
     14 HN7A        0.0330   -0.5040   -2.8750 hn        1 JFD      0.444800
@<TRIPOS>BOND
     1    1    2 1   
     2    2    3 1   
     3    2    9 2   
     4    3    4 2   
     5    3    5 1   
     6    5    6 1   
     7    5   11 1   
     8    6    7 2   
     9    6    8 1   
    10    8    9 1   
    11    8   12 1   
    12    9   10 1   
    13   10   13 1   
    14   10   14 1   
@<TRIPOS>SUBSTRUCTURE
     1 JFD         1 TEMP              0 ****  ****    0 ROOT
