@<TRIPOS>MOLECULE
JFD
   14    14     1     0     0
SMALL
bcc


@<TRIPOS>ATOM
      1 BR         -2.0420    0.0440    0.0000 br        1 JFD     -0.023700
      2 C5         -0.1830    0.0020   -0.0020 cc        1 JFD     -0.343500
      3 C4          0.5390    1.2720    0.0060 c         1 JFD      0.748700
      4 O8          0.0380    2.4080    0.0130 o         1 JFD     -0.596500
      5 N3          1.9500    1.2010    0.0070 n         1 JFD     -0.584500
      6 C2          2.6490   -0.0010    0.0020 c         1 JFD      0.818500
      7 O9          3.8970   -0.0630   -0.0060 o         1 JFD     -0.634500
      8 N1          1.9110   -1.2080    0.0180 n         1 JFD     -0.492100
      9 C6          0.5110   -1.2120   -0.0160 cd        1 JFD      0.371600
     10 N7         -0.1410   -2.4300   -0.0990 nh        1 JFD     -0.863600
     11 HN3         2.4830    2.0450    0.0070 hn        1 JFD      0.358500
     12 HN1         2.4390   -2.0510   -0.0440 hn        1 JFD      0.351500
     13 HN7        -1.1290   -2.4250    0.0150 hn        1 JFD      0.444800
     14 HN7A        0.3410   -3.2690    0.1140 hn        1 JFD      0.444800
@<TRIPOS>BOND
     1    1    2 1   
     2    2    3 1   
     3    2    9 2   
     4    3    4 2   
     5    3    5 1   
     6    5    6 1   
     7    5   11 1   
     8    6    7 2   
     9    6    8 1   
    10    8    9 1   
    11    8   12 1   
    12    9   10 1   
    13   10   13 1   
    14   10   14 1   
@<TRIPOS>SUBSTRUCTURE
     1 JFD         1 TEMP              0 ****  ****    0 ROOT
