@<TRIPOS>MOLECULE
JFK
   66    70     1     0     0
SMALL
bcc


@<TRIPOS>ATOM
      1 C           1.0370    0.3710    0.7320 c         1 JFK      0.675500
      2 N           2.1040    2.0100   -0.8450 n3        1 JFK     -0.808500
      3 O           1.2070   -0.7360    1.2840 o         1 JFK     -0.644500
      4 CA          2.3080    1.1250    0.2670 c3        1 JFK      0.193500
      5 CB          2.9070    1.8160    1.5120 c3        1 JFK     -0.079400
      6 CAA        -3.6620   -3.0670   -6.8930 c3        1 JFK      0.110700
      7 CAB        -1.1970    1.5900   -5.5110 c3        1 JFK      0.103700
      8 OAD         6.5420   -4.6420   -3.0150 o         1 JFK     -0.561500
      9 OAE         0.9450    1.7150   -3.0340 o         1 JFK     -0.666800
     10 OAF         3.1680    2.5440   -3.0390 o         1 JFK     -0.666800
     11 CAG        -2.5020   -2.5130   -2.8950 ca        1 JFK     -0.141000
     12 CAH        -2.9000   -2.7250   -4.2170 ca        1 JFK     -0.177000
     13 CAI         1.9370   -0.9880   -2.4680 ca        1 JFK      0.031000
     14 CAJ         2.3920   -2.2960   -2.5640 ca        1 JFK     -0.171000
     15 CAK        -1.5870   -0.3330   -3.5170 ca        1 JFK     -0.209000
     16 CAL         4.1920   -0.1210   -2.6290 ca        1 JFK      0.055000
     17 CAM         3.6430    3.0900    1.1630 c3        1 JFK     -0.070400
     18 CAN        -2.1760   -0.3130   -0.4620 c3        1 JFK      0.106400
     19 CAO         2.7780    4.0600    0.3820 c3        1 JFK     -0.088400
     20 CAQ         0.3660    3.3390    0.3390 c3        1 JFK     -0.104400
     21 CAR        -1.3740    0.0280    0.8010 c3        1 JFK      0.078000
     22 CAS        -0.5480    2.1730   -0.0220 c3        1 JFK      0.094000
     23 NAT         4.4120   -3.7490   -2.7950 ns        1 JFK     -0.464100
     24 OAU        -3.0110   -1.8590   -6.5170 os        1 JFK     -0.301900
     25 OAV        -1.7850    0.3410   -5.8680 os        1 JFK     -0.307900
     26 OAW        -1.3550   -1.1710   -1.2670 os        1 JFK     -0.349900
     27 SAX         6.2900   -1.9450   -2.8960 ss        1 JFK     -0.046500
     28 CAZ        -1.8480   -1.3280   -2.5600 ca        1 JFK      0.072100
     29 CBA         2.8150    0.1100   -2.4910 ca        1 JFK     -0.430500
     30 CBB        -2.6550   -1.7540   -5.1880 ca        1 JFK      0.094100
     31 CBC        -1.9890   -0.5450   -4.8340 ca        1 JFK      0.122100
     32 CBD         5.8120   -3.6510   -2.9140 c         1 JFK      0.694100
     33 CBE         3.7730   -2.5190   -2.6900 ca        1 JFK      0.115600
     34 CBF         4.6790   -1.4110   -2.7270 ca        1 JFK     -0.124100
     35 CBG         1.6920    3.3440   -0.4460 c3        1 JFK      0.236500
     36 NBI        -0.2370    0.9010    0.5940 n         1 JFK     -0.458800
     37 SBK         2.2300    1.6770   -2.4450 sy        1 JFK      1.531200
     38 HA          3.0260    0.3090   -0.0590 h1        1 JFK      0.088700
     39 HB          3.6030    1.0900    2.0060 hc        1 JFK      0.059700
     40 HBA         2.0900    2.0450    2.2450 hc        1 JFK      0.059700
     41 HAA        -3.8440   -2.9310   -7.9890 h1        1 JFK      0.043367
     42 HAAA       -4.6290   -3.1840   -6.3450 h1        1 JFK      0.043367
     43 HAAB       -3.0010   -3.9480   -6.7100 h1        1 JFK      0.043367
     44 HAB        -1.8660    2.1500   -4.8140 h1        1 JFK      0.053367
     45 HABA       -0.1890    1.4450   -5.0480 h1        1 JFK      0.053367
     46 HABB       -1.1140    2.1210   -6.4930 h1        1 JFK      0.053367
     47 HAG        -2.6920   -3.2750   -2.1270 ha        1 JFK      0.145000
     48 HAH        -3.4100   -3.6630   -4.4800 ha        1 JFK      0.141000
     49 HAI         0.8440   -0.8100   -2.3780 ha        1 JFK      0.179000
     50 HAJ         1.6820   -3.1360   -2.5350 ha        1 JFK      0.161000
     51 HAK        -1.0520    0.5850   -3.2200 ha        1 JFK      0.183000
     52 HAL         4.8840    0.7410   -2.6770 ha        1 JFK      0.168000
     53 HAM         4.0000    3.5800    2.1070 hc        1 JFK      0.048200
     54 HAMA        4.5550    2.8360    0.5590 hc        1 JFK      0.048200
     55 HAN        -3.1020   -0.8750   -0.1690 h1        1 JFK      0.043200
     56 HANA       -2.4610    0.6030   -1.0410 h1        1 JFK      0.043200
     57 HAO         3.4280    4.6560   -0.3110 hc        1 JFK      0.053200
     58 HAOA        2.2800    4.7850    1.0770 hc        1 JFK      0.053200
     59 HAQ        -0.1780    4.2900    0.0970 hc        1 JFK      0.060200
     60 HAQA        0.5710    3.3400    1.4410 hc        1 JFK      0.060200
     61 HAR        -1.0190   -0.9360    1.2690 h1        1 JFK      0.076200
     62 HARA       -2.0840    0.5340    1.5170 h1        1 JFK      0.076200
     63 HAS        -1.5910    2.4530    0.3140 h1        1 JFK      0.052700
     64 HASA       -0.5790    2.0570   -1.1480 h1        1 JFK      0.052700
     65 HNAT        3.9280   -4.6140   -2.7740 hn        1 JFK      0.354500
     66 HBG         1.5280    3.9380   -1.3980 h1        1 JFK      0.060700
@<TRIPOS>BOND
     1    1    3 2   
     2    1    4 1   
     3    1   36 1   
     4    2    4 1   
     5    2   35 1   
     6    2   37 1   
     7    4    5 1   
     8    4   38 1   
     9    5   17 1   
    10    5   39 1   
    11    5   40 1   
    12    6   24 1   
    13    6   41 1   
    14    6   42 1   
    15    6   43 1   
    16    7   25 1   
    17    7   44 1   
    18    7   45 1   
    19    7   46 1   
    20    8   32 2   
    21    9   37 2   
    22   10   37 2   
    23   11   12 ar  
    24   11   28 ar  
    25   11   47 1   
    26   12   30 ar  
    27   12   48 1   
    28   13   14 ar  
    29   13   29 ar  
    30   13   49 1   
    31   14   33 ar  
    32   14   50 1   
    33   15   28 ar  
    34   15   31 ar  
    35   15   51 1   
    36   16   29 ar  
    37   16   34 ar  
    38   16   52 1   
    39   17   19 1   
    40   17   53 1   
    41   17   54 1   
    42   18   21 1   
    43   18   26 1   
    44   18   55 1   
    45   18   56 1   
    46   19   35 1   
    47   19   57 1   
    48   19   58 1   
    49   20   22 1   
    50   20   35 1   
    51   20   59 1   
    52   20   60 1   
    53   21   36 1   
    54   21   61 1   
    55   21   62 1   
    56   22   36 1   
    57   22   63 1   
    58   22   64 1   
    59   23   32 1   
    60   23   33 1   
    61   23   65 1   
    62   24   30 1   
    63   25   31 1   
    64   26   28 1   
    65   27   32 1   
    66   27   34 1   
    67   29   37 1   
    68   30   31 ar  
    69   33   34 ar  
    70   35   66 1   
@<TRIPOS>SUBSTRUCTURE
     1 JFK         1 TEMP              0 ****  ****    0 ROOT
