@<TRIPOS>MOLECULE
JFK
   66    70     1     0     0
SMALL
bcc


@<TRIPOS>ATOM
      1 C           0.2290    2.7060    1.2550 c         1 JFK      0.675500
      2 N           1.3980    1.7850   -0.7680 n3        1 JFK     -0.808500
      3 O           0.2060    2.6540    2.5030 o         1 JFK     -0.644500
      4 CA          1.5540    2.3040    0.5620 c3        1 JFK      0.193500
      5 CB          2.5000    3.5210    0.6490 c3        1 JFK     -0.079400
      6 CAA        -6.3580   -4.1330   -0.1190 c3        1 JFK      0.110700
      7 CAB        -2.6180   -1.5540   -3.1260 c3        1 JFK      0.103700
      8 OAD         3.6240   -4.1420    4.5770 o         1 JFK     -0.561500
      9 OAE        -0.1380    0.0740   -1.7330 o         1 JFK     -0.666800
     10 OAF         2.1900   -0.1490   -2.1330 o         1 JFK     -0.666800
     11 CAG        -4.4600   -0.7510    1.4950 ca        1 JFK     -0.141000
     12 CAH        -5.1090   -1.8790    0.9840 ca        1 JFK     -0.177000
     13 CAI         0.2280   -0.8770    1.0190 ca        1 JFK      0.031000
     14 CAJ         0.3200   -1.6490    2.1700 ca        1 JFK     -0.171000
     15 CAK        -3.1450   -0.5750   -0.5580 ca        1 JFK     -0.209000
     16 CAL         2.5700   -1.2250    0.5160 ca        1 JFK      0.055000
     17 CAM         3.4640    3.5850   -0.5150 c3        1 JFK     -0.070400
     18 CAN        -3.2040    2.2180    0.8130 c3        1 JFK      0.106400
     19 CAO         2.7510    3.5600   -1.8540 c3        1 JFK     -0.088400
     20 CAQ         0.2620    3.8380   -1.5960 c3        1 JFK     -0.104400
     21 CAR        -2.1470    3.2450    1.2410 c3        1 JFK      0.078000
     22 CAS        -0.9590    3.2570   -0.8920 c3        1 JFK      0.094000
     23 NAT         1.8490   -3.0080    3.6040 n         1 JFK     -0.464100
     24 OAU        -5.3740   -3.4520   -0.8880 os        1 JFK     -0.301900
     25 OAV        -3.5490   -2.2540   -2.3010 os        1 JFK     -0.307900
     26 OAW        -2.7650    0.9360    1.2830 os        1 JFK     -0.349900
     27 SAX         4.0750   -2.7980    2.2660 ss        1 JFK     -0.046500
     28 CAZ        -3.4860   -0.1170    0.7250 ca        1 JFK      0.072100
     29 CBA         1.3350   -0.6470    0.1850 ca        1 JFK     -0.430500
     30 CBB        -4.7910   -2.3550   -0.2870 ca        1 JFK      0.094100
     31 CBC        -3.7960   -1.6970   -1.0670 ca        1 JFK      0.122100
     32 CBD         3.1910   -3.4330    3.6640 c         1 JFK      0.694100
     33 CBE         1.5620   -2.2140    2.5000 ca        1 JFK      0.115600
     34 CBF         2.6980   -1.9990    1.6540 ca        1 JFK     -0.124100
     35 CBG         1.4010    2.8190   -1.7880 c3        1 JFK      0.236500
     36 NBI        -0.8780    3.1510    0.5490 n         1 JFK     -0.458800
     37 SBK         1.1750    0.2290   -1.2320 sy        1 JFK      1.531200
     38 HA          1.9840    1.4790    1.2140 h1        1 JFK      0.088700
     39 HB          1.8970    4.4650    0.6870 hc        1 JFK      0.059700
     40 HBA         3.0650    3.4480    1.6150 hc        1 JFK      0.059700
     41 HAA        -6.6770   -4.9700   -0.7910 h1        1 JFK      0.043367
     42 HAAA       -5.9170   -4.5330    0.8260 h1        1 JFK      0.043367
     43 HAAB       -7.2210   -3.4590    0.1070 h1        1 JFK      0.043367
     44 HAB        -3.0030   -0.5350   -3.3690 h1        1 JFK      0.053367
     45 HABA       -1.6170   -1.4830   -2.6320 h1        1 JFK      0.053367
     46 HABB       -2.5660   -2.1900   -4.0460 h1        1 JFK      0.053367
     47 HAG        -4.7060   -0.3730    2.4970 ha        1 JFK      0.145000
     48 HAH        -5.8720   -2.3810    1.5950 ha        1 JFK      0.141000
     49 HAI        -0.7560   -0.4370    0.7510 ha        1 JFK      0.179000
     50 HAJ        -0.5620   -1.8060    2.8080 ha        1 JFK      0.161000
     51 HAK        -2.3560   -0.0580   -1.1310 ha        1 JFK      0.183000
     52 HAL         3.4380   -1.0710   -0.1530 ha        1 JFK      0.168000
     53 HAM         4.0800    4.5190   -0.4340 hc        1 JFK      0.048200
     54 HAMA        4.1720    2.7160   -0.4550 hc        1 JFK      0.048200
     55 HAN        -4.1800    2.4670    1.3070 h1        1 JFK      0.043200
     56 HANA       -3.3430    2.1940   -0.2990 h1        1 JFK      0.043200
     57 HAO         2.5700    4.6050   -2.2170 hc        1 JFK      0.053200
     58 HAOA        3.4080    3.0550   -2.6100 hc        1 JFK      0.053200
     59 HAQ        -0.0600    4.1860   -2.6120 hc        1 JFK      0.060200
     60 HAQA        0.6380    4.7340   -1.0370 hc        1 JFK      0.060200
     61 HAR        -2.5830    4.2680    1.0460 h1        1 JFK      0.076200
     62 HARA       -1.9720    3.1340    2.3500 h1        1 JFK      0.076200
     63 HAS        -1.8310    3.9400   -1.1220 h1        1 JFK      0.052700
     64 HASA       -1.2010    2.2450   -1.3390 h1        1 JFK      0.052700
     65 HNAT        1.1750   -3.2410    4.2930 hn        1 JFK      0.354500
     66 HBG         1.2380    2.3010   -2.7840 h1        1 JFK      0.060700
@<TRIPOS>BOND
     1    1    3 2   
     2    1    4 1   
     3    1   36 1   
     4    2    4 1   
     5    2   35 1   
     6    2   37 1   
     7    4    5 1   
     8    4   38 1   
     9    5   17 1   
    10    5   39 1   
    11    5   40 1   
    12    6   24 1   
    13    6   41 1   
    14    6   42 1   
    15    6   43 1   
    16    7   25 1   
    17    7   44 1   
    18    7   45 1   
    19    7   46 1   
    20    8   32 2   
    21    9   37 2   
    22   10   37 2   
    23   11   12 ar  
    24   11   28 ar  
    25   11   47 1   
    26   12   30 ar  
    27   12   48 1   
    28   13   14 ar  
    29   13   29 ar  
    30   13   49 1   
    31   14   33 ar  
    32   14   50 1   
    33   15   28 ar  
    34   15   31 ar  
    35   15   51 1   
    36   16   29 ar  
    37   16   34 ar  
    38   16   52 1   
    39   17   19 1   
    40   17   53 1   
    41   17   54 1   
    42   18   21 1   
    43   18   26 1   
    44   18   55 1   
    45   18   56 1   
    46   19   35 1   
    47   19   57 1   
    48   19   58 1   
    49   20   22 1   
    50   20   35 1   
    51   20   59 1   
    52   20   60 1   
    53   21   36 1   
    54   21   61 1   
    55   21   62 1   
    56   22   36 1   
    57   22   63 1   
    58   22   64 1   
    59   23   32 1   
    60   23   33 1   
    61   23   65 1   
    62   24   30 1   
    63   25   31 1   
    64   26   28 1   
    65   27   32 1   
    66   27   34 1   
    67   29   37 1   
    68   30   31 ar  
    69   33   34 ar  
    70   35   66 1   
@<TRIPOS>SUBSTRUCTURE
     1 JFK         1 TEMP              0 ****  ****    0 ROOT
