@<TRIPOS>MOLECULE
JFK
   66    65     1     0     0
SMALL
bcc


@<TRIPOS>ATOM
      1 C          -0.1780   -1.0990    1.9670 c1        1 JFK      0.286000
      2 N           1.5130   -0.8380    2.0840 n3        1 JFK     -0.840000
      3 O          -0.8180   -0.9860    2.9230 o         1 JFK     -0.370000
      4 CA          1.3500   -1.1610    2.2270 c3        1 JFK      0.039000
      5 CB          1.5370   -1.2170    3.8460 c3        1 JFK     -0.160000
      6 CAA        -5.5860    0.4690   -6.4850 c3        1 JFK     -0.078500
      7 CAB        -7.6150   -0.2910   -2.6940 c3        1 JFK     -0.078500
      8 OAD         9.3810    3.3270    0.3350 o         1 JFK     -0.287000
      9 OAE         1.4790   -0.3490   -0.5700 o         1 JFK     -0.929000
     10 OAF         2.7200   -2.1190    0.0240 o         1 JFK     -0.929000
     11 CAG        -2.7220    0.6390   -3.2710 c1        1 JFK     -0.161000
     12 CAH        -3.6420    1.1000   -4.2320 c1        1 JFK     -0.150500
     13 CAI         4.8290   -0.7950    0.8590 c1        1 JFK      0.016000
     14 CAJ         6.2110   -0.6120    1.0550 c1        1 JFK     -0.179000
     15 CAK        -4.4280   -0.6670   -2.3060 c1        1 JFK     -0.150500
     16 CAL         4.5230    1.6720    0.5510 c1        1 JFK      0.056000
     17 CAM         1.0810    0.2570    4.5930 c3        1 JFK     -0.114000
     18 CAN        -1.6870   -1.3770   -0.8440 c3        1 JFK     -0.054000
     19 CAO         1.0180    0.2790    4.5690 c3        1 JFK     -0.206000
     20 CAQ        -0.4390    0.7330    2.2690 c3        1 JFK     -0.181000
     21 CAR        -0.2020   -1.1710   -0.0710 c3        1 JFK     -0.058000
     22 CAS        -0.8590   -0.2940    1.3600 c3        1 JFK     -0.017000
     23 NAT         8.3790    1.1740    0.8290 n         1 JFK     -0.320000
     24 OAU        -5.8580    1.0610   -5.2790 os        1 JFK     -0.227500
     25 OAV        -6.5090   -1.0070   -3.1250 os        1 JFK     -0.227500
     26 OAW        -2.1490   -0.1230   -1.3260 os        1 JFK     -0.218000
     27 SAX         6.8550    3.1510    0.4530 ss        1 JFK      0.363000
     28 CAZ        -3.1140   -0.2240   -2.3340 c1        1 JFK      0.080000
     29 CBA         3.9620    0.3630    0.6010 c1        1 JFK     -0.854000
     30 CBB        -4.9270    0.6670   -4.2050 c2        1 JFK      0.028000
     31 CBC        -5.3280   -0.2160   -3.2460 c2        1 JFK      0.028000
     32 CBD         8.3940    2.6510    0.5610 c2        1 JFK      0.168000
     33 CBE         6.7640    0.6820    1.0050 c2        1 JFK      0.113000
     34 CBF         5.8890    1.8530    0.7450 c2        1 JFK     -0.349000
     35 CBG         0.9940    0.4090    2.7640 c3        1 JFK      0.040000
     36 NBI        -0.4310   -0.6300    1.2840 n2        1 JFK     -0.304000
     37 SBK         2.3680   -0.7860    0.4830 s6        1 JFK      2.868000
     38 HA          1.7330   -1.9540    1.8110 h1        1 JFK      0.127000
     39 HB          2.4470   -1.3900    4.0490 hc        1 JFK      0.101000
     40 HBA         0.9570   -1.9850    4.2350 hc        1 JFK      0.101000
     41 HAA        -4.7950    0.9550   -6.9360 h1        1 JFK      0.085500
     42 HAAA       -6.4290    0.5240   -7.1010 h1        1 JFK      0.085500
     43 HAAB       -5.3740   -0.3780   -6.3530 h1        1 JFK      0.085500
     44 HAB        -8.2330   -0.8850   -2.2640 h1        1 JFK      0.085500
     45 HABA       -8.0610    0.1440   -3.4830 h1        1 JFK      0.085500
     46 HABB       -7.3380    0.3720   -2.0830 h1        1 JFK      0.085500
     47 HAG        -1.7570    0.9640   -3.2910 ha        1 JFK      0.151000
     48 HAH        -3.3720    1.6940   -4.8760 ha        1 JFK      0.153000
     49 HAI         4.4870   -1.5980    0.8910 ha        1 JFK      0.168000
     50 HAJ         6.8020   -1.4040    1.2310 ha        1 JFK      0.154000
     51 HAK        -4.7220   -1.3100   -1.6070 ha        1 JFK      0.153000
     52 HAL         3.9180    2.4830    0.3720 ha        1 JFK      0.166000
     53 HAM         1.0350    0.1200    5.6110 hc        1 JFK      0.088000
     54 HAMA        1.8290    1.0150    4.3650 hc        1 JFK      0.088000
     55 HAN        -2.3640   -1.7560   -0.1820 h1        1 JFK      0.111500
     56 HANA       -1.5850   -1.9870   -1.5820 h1        1 JFK      0.111500
     57 HAO         0.2490   -0.4310    4.8860 hc        1 JFK      0.081000
     58 HAOA        0.7990    1.2850    5.0120 hc        1 JFK      0.081000
     59 HAQ        -1.0360    0.7700    3.0130 hc        1 JFK      0.101500
     60 HAQA       -0.4340    1.6190    1.7930 hc        1 JFK      0.101500
     61 HAR         0.4220   -0.4690   -0.6520 h1        1 JFK      0.116000
     62 HARA        0.2500   -2.0300   -0.0050 h1        1 JFK      0.116000
     63 HAS        -1.6540   -0.8170    1.7630 h1        1 JFK      0.092000
     64 HASA       -1.1290    0.1140    0.4820 h1        1 JFK      0.092000
     65 HNAT        9.0580    0.6940    0.9730 hn        1 JFK      0.267000
     66 HBG         1.5410    1.1120    2.5260 h1        1 JFK      0.124000
@<TRIPOS>BOND
     1    1    3 1   
     2    1    4 1   
     3    2    4 1   
     4    2   35 1   
     5    2   37 1   
     6    4    5 1   
     7    4   38 1   
     8    5   17 1   
     9    5   39 1   
    10    5   40 1   
    11    6   24 1   
    12    6   41 1   
    13    6   42 1   
    14    6   43 1   
    15    7   25 1   
    16    7   44 1   
    17    7   45 1   
    18    7   46 1   
    19    8   32 1   
    20    9   37 1   
    21   10   37 1   
    22   11   28 1   
    23   11   47 1   
    24   12   30 1   
    25   12   48 1   
    26   13   29 1   
    27   13   49 1   
    28   14   33 1   
    29   14   50 1   
    30   15   31 1   
    31   15   51 1   
    32   16   34 1   
    33   16   52 1   
    34   17   19 1   
    35   17   53 1   
    36   17   54 1   
    37   18   21 1   
    38   18   26 1   
    39   18   55 1   
    40   18   56 1   
    41   19   35 1   
    42   19   57 1   
    43   19   58 1   
    44   20   22 1   
    45   20   35 1   
    46   20   59 1   
    47   20   60 1   
    48   21   36 1   
    49   21   61 1   
    50   21   62 1   
    51   22   36 1   
    52   22   63 1   
    53   22   64 1   
    54   23   32 1   
    55   23   33 1   
    56   23   65 1   
    57   24   30 1   
    58   25   31 1   
    59   26   28 1   
    60   27   32 1   
    61   27   34 1   
    62   29   37 1   
    63   30   31 1   
    64   33   34 1   
    65   35   66 1   
@<TRIPOS>SUBSTRUCTURE
     1 JFK         1 TEMP              0 ****  ****    0 ROOT
