@<TRIPOS>MOLECULE
JFK
   66    70     1     0     0
SMALL
bcc


@<TRIPOS>ATOM
      1 C           1.0290    0.3100    0.7380 c         1 JFK      0.675500
      2 N           2.1250    1.9660   -0.8000 n3        1 JFK     -0.808500
      3 O           1.1820   -0.8110    1.2670 o         1 JFK     -0.644500
      4 CA          2.3130    1.0550    0.2940 c3        1 JFK      0.193500
      5 CB          2.9150    1.7120    1.5550 c3        1 JFK     -0.079400
      6 CAA        -3.6860   -2.9020   -6.9760 c3        1 JFK      0.110700
      7 CAB        -1.1600    1.6900   -5.4880 c3        1 JFK      0.103700
      8 OAD         6.4800   -4.7020   -3.0870 o         1 JFK     -0.561500
      9 OAE         0.9720    1.7330   -2.9990 o         1 JFK     -0.666800
     10 OAF         3.2070    2.5300   -2.9780 o         1 JFK     -0.666800
     11 CAG        -2.5340   -2.4480   -2.9630 ca        1 JFK     -0.141000
     12 CAH        -2.9300   -2.6270   -4.2910 ca        1 JFK     -0.177000
     13 CAI         1.9240   -0.9960   -2.4860 ca        1 JFK      0.031000
     14 CAJ         2.3610   -2.3080   -2.6060 ca        1 JFK     -0.171000
     15 CAK        -1.5860   -0.2690   -3.5360 ca        1 JFK     -0.209000
     16 CAL         4.1910   -0.1570   -2.6190 ca        1 JFK      0.055000
     17 CAM         3.6700    2.9830    1.2360 c3        1 JFK     -0.070400
     18 CAN        -2.1880   -0.3050   -0.4830 c3        1 JFK      0.106400
     19 CAO         2.8210    3.9810    0.4710 c3        1 JFK     -0.088400
     20 CAQ         0.4000    3.2940    0.4040 c3        1 JFK     -0.104400
     21 CAR        -1.3870   -0.0020    0.7900 c3        1 JFK      0.078000
     22 CAS        -0.5280    2.1480    0.0150 c3        1 JFK      0.094000
     23 NAT         4.3610   -3.7840   -2.8580 n         1 JFK     -0.464100
     24 OAU        -3.0190   -1.7120   -6.5730 os        1 JFK     -0.301900
     25 OAV        -1.7640    0.4570   -5.8730 os        1 JFK     -0.307900
     26 OAW        -1.3760   -1.1570   -1.3030 os        1 JFK     -0.349900
     27 SAX         6.2650   -2.0050   -2.9140 ss        1 JFK     -0.046500
     28 CAZ        -1.8650   -1.2800   -2.6010 ca        1 JFK      0.072100
     29 CBA         2.8170    0.0900   -2.4820 ca        1 JFK     -0.430500
     30 CBB        -2.6670   -1.6400   -5.2400 ca        1 JFK      0.094100
     31 CBC        -1.9860   -0.4480   -4.8590 ca        1 JFK      0.122100
     32 CBD         5.7630   -3.7040   -2.9700 c         1 JFK      0.694100
     33 CBE         3.7390   -2.5480   -2.7310 ca        1 JFK      0.115600
     34 CBF         4.6610   -1.4520   -2.7410 ca        1 JFK     -0.124100
     35 CBG         1.7290    3.2970   -0.3750 c3        1 JFK      0.236500
     36 NBI        -0.2370    0.8600    0.6050 n         1 JFK     -0.458800
     37 SBK         2.2540    1.6640   -2.4060 sy        1 JFK      1.531200
     38 HA          3.0210    0.2360   -0.0460 h1        1 JFK      0.088700
     39 HB          3.5990    0.9670    2.0370 hc        1 JFK      0.059700
     40 HBA         2.0980    1.9370    2.2900 hc        1 JFK      0.059700
     41 HAA        -3.8610   -2.7400   -8.0700 h1        1 JFK      0.043367
     42 HAAA       -3.0370   -3.7960   -6.8090 h1        1 JFK      0.043367
     43 HAAB       -4.6560   -3.0160   -6.4350 h1        1 JFK      0.043367
     44 HAB        -1.0660    2.2400   -6.4580 h1        1 JFK      0.053367
     45 HABA       -0.1570    1.5200   -5.0240 h1        1 JFK      0.053367
     46 HABB       -1.8240    2.2440   -4.7810 h1        1 JFK      0.053367
     47 HAG        -2.7380   -3.2240   -2.2120 ha        1 JFK      0.145000
     48 HAH        -3.4520   -3.5510   -4.5750 ha        1 JFK      0.141000
     49 HAI         0.8330   -0.8030   -2.3970 ha        1 JFK      0.179000
     50 HAJ         1.6390   -3.1380   -2.5990 ha        1 JFK      0.161000
     51 HAK        -1.0390    0.6350   -3.2170 ha        1 JFK      0.183000
     52 HAL         4.8960    0.6960   -2.6460 ha        1 JFK      0.168000
     53 HAM         4.5810    2.7280    0.6310 hc        1 JFK      0.048200
     54 HAMA        4.0290    3.4490    2.1910 hc        1 JFK      0.048200
     55 HAN        -3.1230   -0.8610   -0.2050 h1        1 JFK      0.043200
     56 HANA       -2.4580    0.6270   -1.0440 h1        1 JFK      0.043200
     57 HAO         2.3310    4.6970    1.1790 hc        1 JFK      0.053200
     58 HAOA        3.4830    4.5820   -0.2060 hc        1 JFK      0.053200
     59 HAQ         0.6010    3.2690    1.5060 hc        1 JFK      0.060200
     60 HAQA       -0.1300    4.2570    0.1790 hc        1 JFK      0.060200
     61 HAR        -1.0470   -0.9800    1.2380 h1        1 JFK      0.076200
     62 HARA       -2.0930    0.4990    1.5130 h1        1 JFK      0.076200
     63 HAS        -0.5550    2.0560   -1.1130 h1        1 JFK      0.052700
     64 HASA       -1.5690    2.4360    0.3520 h1        1 JFK      0.052700
     65 HNAT        3.8650   -4.6420   -2.8570 hn        1 JFK      0.354500
     66 HBG         1.5780    3.9130   -1.3150 h1        1 JFK      0.060700
@<TRIPOS>BOND
     1    1    3 2   
     2    1    4 1   
     3    1   36 1   
     4    2    4 1   
     5    2   35 1   
     6    2   37 1   
     7    4    5 1   
     8    4   38 1   
     9    5   17 1   
    10    5   39 1   
    11    5   40 1   
    12    6   24 1   
    13    6   41 1   
    14    6   42 1   
    15    6   43 1   
    16    7   25 1   
    17    7   44 1   
    18    7   45 1   
    19    7   46 1   
    20    8   32 2   
    21    9   37 2   
    22   10   37 2   
    23   11   12 ar  
    24   11   28 ar  
    25   11   47 1   
    26   12   30 ar  
    27   12   48 1   
    28   13   14 ar  
    29   13   29 ar  
    30   13   49 1   
    31   14   33 ar  
    32   14   50 1   
    33   15   28 ar  
    34   15   31 ar  
    35   15   51 1   
    36   16   29 ar  
    37   16   34 ar  
    38   16   52 1   
    39   17   19 1   
    40   17   53 1   
    41   17   54 1   
    42   18   21 1   
    43   18   26 1   
    44   18   55 1   
    45   18   56 1   
    46   19   35 1   
    47   19   57 1   
    48   19   58 1   
    49   20   22 1   
    50   20   35 1   
    51   20   59 1   
    52   20   60 1   
    53   21   36 1   
    54   21   61 1   
    55   21   62 1   
    56   22   36 1   
    57   22   63 1   
    58   22   64 1   
    59   23   32 1   
    60   23   33 1   
    61   23   65 1   
    62   24   30 1   
    63   25   31 1   
    64   26   28 1   
    65   27   32 1   
    66   27   34 1   
    67   29   37 1   
    68   30   31 ar  
    69   33   34 ar  
    70   35   66 1   
@<TRIPOS>SUBSTRUCTURE
     1 JFK         1 TEMP              0 ****  ****    0 ROOT
