@<TRIPOS>MOLECULE
JFQ
   33    33     1     0     0
SMALL
bcc


@<TRIPOS>ATOM
      1 C1         -4.3320    0.5150   -0.4190 c3        1 JFQ      0.159800
      2 N1         -5.6550    0.3230    0.1240 n3        1 JFQ     -0.916800
      3 C2         -3.2620   -0.3090    0.2950 c3        1 JFQ     -0.088400
      4 N2         -0.8260   -0.7730    0.2680 n3        1 JFQ     -0.822200
      5 C3         -1.8950    0.0210   -0.3030 c3        1 JFQ      0.165800
      6 N3          4.7200    0.5620   -0.2740 n3        1 JFQ     -0.913800
      7 C4          0.5090   -0.3670   -0.1500 c3        1 JFQ      0.175500
      8 C5          1.5350   -1.4690    0.1660 c3        1 JFQ     -0.092400
      9 C6          2.8950   -1.1070   -0.3870 c3        1 JFQ     -0.073900
     10 C7          3.3960    0.2140    0.2190 c3        1 JFQ      0.170500
     11 C8          2.3730    1.3200   -0.0830 c3        1 JFQ     -0.073900
     12 C9          1.0120    0.9520    0.4640 c3        1 JFQ     -0.092400
     13 H1         -4.2780    0.2740   -1.5240 h1        1 JFQ      0.025200
     14 H1A        -4.0830    1.6100   -0.3110 h1        1 JFQ      0.025200
     15 HN1        -6.3360    0.7720   -0.4540 hn        1 JFQ      0.348800
     16 HN1A       -5.8770   -0.6500    0.2000 hn        1 JFQ      0.348800
     17 H2         -3.2700   -0.0770    1.3920 hc        1 JFQ      0.053200
     18 H2A        -3.4770   -1.4030    0.1790 hc        1 JFQ      0.053200
     19 HN2        -0.8890   -0.7900    1.2680 hn        1 JFQ      0.356800
     20 H3         -1.9160   -0.1940   -1.4100 h1        1 JFQ      0.029200
     21 H3A        -1.7180    1.1320   -0.1850 h1        1 JFQ      0.029200
     22 HN3A        5.3670   -0.1730   -0.0720 hn        1 JFQ      0.349300
     23 H4          0.4800   -0.2360   -1.2730 h1        1 JFQ      0.059700
     24 H5          1.6010   -1.6180    1.2760 hc        1 JFQ      0.044450
     25 H5A         1.1990   -2.4390   -0.2870 hc        1 JFQ      0.044450
     26 H6          3.6180   -1.9310   -0.1510 hc        1 JFQ      0.047450
     27 H6A         2.8410   -1.0120   -1.5020 hc        1 JFQ      0.047450
     28 H7          3.4100    0.0750    1.3480 h1        1 JFQ      0.006700
     29 H8          2.7080    2.2840    0.3800 hc        1 JFQ      0.047450
     30 H8A         2.3080    1.4790   -1.1910 hc        1 JFQ      0.047450
     31 H9          0.2920    1.7800    0.2330 hc        1 JFQ      0.044450
     32 H9A         1.0640    0.8510    1.5790 hc        1 JFQ      0.044450
     33 HN3         5.0340    1.4100    0.1530 hn        1 JFQ      0.349300
@<TRIPOS>BOND
     1    1    2 1   
     2    1    3 1   
     3    1   13 1   
     4    1   14 1   
     5    2   15 1   
     6    2   16 1   
     7    3    5 1   
     8    3   17 1   
     9    3   18 1   
    10    4    5 1   
    11    4    7 1   
    12    4   19 1   
    13    5   20 1   
    14    5   21 1   
    15    6   10 1   
    16    6   22 1   
    17    6   33 1   
    18    7    8 1   
    19    7   12 1   
    20    7   23 1   
    21    8    9 1   
    22    8   24 1   
    23    8   25 1   
    24    9   10 1   
    25    9   26 1   
    26    9   27 1   
    27   10   11 1   
    28   10   28 1   
    29   11   12 1   
    30   11   29 1   
    31   11   30 1   
    32   12   31 1   
    33   12   32 1   
@<TRIPOS>SUBSTRUCTURE
     1 JFQ         1 TEMP              0 ****  ****    0 ROOT
