@<TRIPOS>MOLECULE
JFQ
   33    33     1     0     0
SMALL
bcc


@<TRIPOS>ATOM
      1 C1          3.6220   -0.2570   -2.3660 c3        1 JFQ      0.159800
      2 N1          5.0440   -0.4810   -2.2920 n3        1 JFQ     -0.915800
      3 C2          3.0270   -0.2840   -0.9530 c3        1 JFQ     -0.087400
      4 N2          0.9660   -0.0160    0.3100 n3        1 JFQ     -0.821200
      5 C3          1.5280    0.0100   -1.0240 c3        1 JFQ      0.165800
      6 N3         -4.4600    0.2090    1.5670 n3        1 JFQ     -0.913800
      7 C4         -0.4640    0.0880    0.2270 c3        1 JFQ      0.176500
      8 C5         -0.9150    1.3080    1.0100 c3        1 JFQ     -0.092400
      9 C6         -2.4170    1.3940    1.1280 c3        1 JFQ     -0.073400
     10 C7         -3.0310    0.1080    1.6500 c3        1 JFQ      0.170500
     11 C8         -2.5800   -1.1100    0.8670 c3        1 JFQ     -0.073400
     12 C9         -1.0790   -1.1960    0.7490 c3        1 JFQ     -0.092400
     13 H1          3.2090   -0.9580   -2.9080 h1        1 JFQ      0.024700
     14 H1A         3.4500    0.6160   -2.7760 h1        1 JFQ      0.024700
     15 HN1         5.2620   -1.2060   -2.7920 hn        1 JFQ      0.348800
     16 HN1A        5.4880    0.2580   -2.6120 hn        1 JFQ      0.348800
     17 H2          3.4650    0.3910   -0.4030 hc        1 JFQ      0.053200
     18 H2A         3.1680   -1.1710   -0.5560 hc        1 JFQ      0.053200
     19 HN2         1.2960    0.6860    0.7930 hn        1 JFQ      0.355800
     20 H3          1.0850   -0.6720   -1.5800 h1        1 JFQ      0.028700
     21 H3A         1.3880    0.8960   -1.4200 h1        1 JFQ      0.028700
     22 HN3        -4.7420    0.9440    2.0380 hn        1 JFQ      0.349300
     23 HN3A       -4.8420   -0.5480    1.9230 hn        1 JFQ      0.349300
     24 H4         -0.7170    0.2020   -0.7040 h1        1 JFQ      0.059700
     25 H5         -0.5870    2.1100    0.5610 hc        1 JFQ      0.043950
     26 H5A        -0.5260    1.2680    1.9130 hc        1 JFQ      0.043950
     27 H6         -2.7910    1.5880    0.2500 hc        1 JFQ      0.047700
     28 H6A        -2.6450    2.1230    1.7370 hc        1 JFQ      0.047700
     29 H7         -2.7750   -0.0060    2.5910 h1        1 JFQ      0.005700
     30 H8         -2.9090   -1.9130    1.3160 hc        1 JFQ      0.047700
     31 H8A        -2.9630   -1.0690   -0.0240 hc        1 JFQ      0.047700
     32 H9         -0.8530   -1.9210    0.1430 hc        1 JFQ      0.043950
     33 H9A        -0.7010   -1.3920    1.6370 hc        1 JFQ      0.043950
@<TRIPOS>BOND
     1    1    2 1   
     2    1    3 1   
     3    1   13 1   
     4    1   14 1   
     5    2   15 1   
     6    2   16 1   
     7    3    5 1   
     8    3   17 1   
     9    3   18 1   
    10    4    5 1   
    11    4    7 1   
    12    4   19 1   
    13    5   20 1   
    14    5   21 1   
    15    6   10 1   
    16    6   22 1   
    17    6   23 1   
    18    7    8 1   
    19    7   12 1   
    20    7   24 1   
    21    8    9 1   
    22    8   25 1   
    23    8   26 1   
    24    9   10 1   
    25    9   27 1   
    26    9   28 1   
    27   10   11 1   
    28   10   29 1   
    29   11   12 1   
    30   11   30 1   
    31   11   31 1   
    32   12   32 1   
    33   12   33 1   
@<TRIPOS>SUBSTRUCTURE
     1 JFQ         1 TEMP              0 ****  ****    0 ROOT
