@<TRIPOS>MOLECULE
JFQ
   36    36     1     0     0
SMALL
bcc


@<TRIPOS>ATOM
      1 C1          0.0730   -0.0230    0.0090 c3        1 JFQ      0.105800
      2 N1          1.5550    0.0320   -0.1350 n4        1 JFQ     -0.837600
      3 C2         -0.4020   -0.0020    1.4630 c3        1 JFQ     -0.139400
      4 N2         -2.4990    0.0040    2.8630 n4        1 JFQ     -0.767000
      5 C3         -1.9330   -0.0510    1.4810 c3        1 JFQ      0.107800
      6 N3         -8.0910   -0.8280    4.1950 n4        1 JFQ     -0.837600
      7 C4         -4.0160   -0.0360    2.8900 c3        1 JFQ      0.121500
      8 C5         -4.5500    0.6620    4.1520 c3        1 JFQ     -0.102900
      9 C6         -6.0660    0.6570    4.1590 c3        1 JFQ     -0.104400
     10 C7         -6.5920   -0.7830    4.1160 c3        1 JFQ      0.114500
     11 C8         -6.0690   -1.4750    2.8510 c3        1 JFQ     -0.104400
     12 C9         -4.5510   -1.4730    2.8390 c3        1 JFQ     -0.102900
     13 H1         -0.2810   -0.9700   -0.4990 hx        1 JFQ      0.130200
     14 H1A        -0.3540    0.8630   -0.5500 hx        1 JFQ      0.130200
     15 HN1         1.8020    0.0140   -1.1380 hn        1 JFQ      0.484133
     16 HN1A        2.0010   -0.7730    0.3240 hn        1 JFQ      0.484133
     17 H2         -0.0380    0.9330    1.9720 hc        1 JFQ      0.097700
     18 H2A         0.0200   -0.8840    2.0190 hc        1 JFQ      0.097700
     19 HN2        -2.1910    0.8760    3.3180 hn        1 JFQ      0.464800
     20 H3         -2.2950   -1.0060    0.9980 hx        1 JFQ      0.123200
     21 H3A        -2.3500    0.8260    0.9010 hx        1 JFQ      0.123200
     22 H4         -4.3720    0.5320    1.9770 hx        1 JFQ      0.120700
     23 H5         -4.1660    0.1460    5.0740 hc        1 JFQ      0.094200
     24 H5A        -4.2070    1.7330    4.1890 hc        1 JFQ      0.094200
     25 H6         -6.4110    1.1780    5.0960 hc        1 JFQ      0.100700
     26 H6A        -6.4560    1.2420    3.2820 hc        1 JFQ      0.100700
     27 H7         -6.2170   -1.3440    5.0290 hx        1 JFQ      0.126700
     28 H8         -6.4160   -2.5460    2.8120 hc        1 JFQ      0.100700
     29 H8A        -6.4600   -0.9570    1.9340 hc        1 JFQ      0.100700
     30 H9         -4.1680   -2.0630    3.7160 hc        1 JFQ      0.094200
     31 H9A        -4.2090   -1.9890    1.9010 hc        1 JFQ      0.094200
     32 HN3        -8.5130   -0.3360    3.3980 hn        1 JFQ      0.478467
     33 H13         1.9340    0.8950    0.2760 hn        1 JFQ      0.484133
     34 H22        -2.1360   -0.7850    3.4140 hn        1 JFQ      0.464800
     35 H32        -8.4140   -1.8050    4.1890 hn        1 JFQ      0.478467
     36 HN3A       -8.4090   -0.3790    5.0650 hn        1 JFQ      0.478467
@<TRIPOS>BOND
     1    1    2 1   
     2    1    3 1   
     3    1   13 1   
     4    1   14 1   
     5    2   15 1   
     6    2   16 1   
     7    2   33 1   
     8    3    5 1   
     9    3   17 1   
    10    3   18 1   
    11    4    5 1   
    12    4    7 1   
    13    4   19 1   
    14    4   34 1   
    15    5   20 1   
    16    5   21 1   
    17    6   10 1   
    18    6   32 1   
    19    6   35 1   
    20    6   36 1   
    21    7    8 1   
    22    7   12 1   
    23    7   22 1   
    24    8    9 1   
    25    8   23 1   
    26    8   24 1   
    27    9   10 1   
    28    9   25 1   
    29    9   26 1   
    30   10   11 1   
    31   10   27 1   
    32   11   12 1   
    33   11   28 1   
    34   11   29 1   
    35   12   30 1   
    36   12   31 1   
@<TRIPOS>SUBSTRUCTURE
     1 JFQ         1 TEMP              0 ****  ****    0 ROOT
