@<TRIPOS>MOLECULE
JFQ
   36    36     1     0     0
SMALL
bcc


@<TRIPOS>ATOM
      1 C1          0.0720    0.0220    0.0120 c3        1 JFQ      0.105800
      2 N1          1.5540    0.0570   -0.1340 n4        1 JFQ     -0.837600
      3 C2         -0.3990   -0.0140    1.4680 c3        1 JFQ     -0.139400
      4 N2         -2.4930   -0.0330    2.8730 n4        1 JFQ     -0.767000
      5 C3         -1.9310   -0.0350    1.4880 c3        1 JFQ      0.107800
      6 N3         -8.0980   -0.8170    4.1820 n4        1 JFQ     -0.837600
      7 C4         -4.0110   -0.0440    2.9030 c3        1 JFQ      0.121500
      8 C5         -4.5270    0.6020    4.1990 c3        1 JFQ     -0.102900
      9 C6         -6.0430    0.6270    4.2110 c3        1 JFQ     -0.104400
     10 C7         -6.5980   -0.7990    4.1000 c3        1 JFQ      0.114500
     11 C8         -6.0920   -1.4390    2.8010 c3        1 JFQ     -0.104400
     12 C9         -4.5740   -1.4660    2.7840 c3        1 JFQ     -0.102900
     13 H1         -0.3010   -0.8940   -0.5370 hx        1 JFQ      0.130200
     14 H1A        -0.3410    0.9400   -0.5050 hx        1 JFQ      0.130200
     15 HN1         1.9870   -0.7760    0.2870 hn        1 JFQ      0.484133
     16 HN1A        1.7990    0.0790   -1.1370 hn        1 JFQ      0.484133
     17 H2          0.0070   -0.9280    1.9820 hc        1 JFQ      0.097700
     18 H2A        -0.0170    0.8900    2.0180 hc        1 JFQ      0.097700
     19 HN2        -2.1660    0.8100    3.3680 hn        1 JFQ      0.464800
     20 H3         -2.3130   -0.9590    0.9620 hx        1 JFQ      0.123200
     21 H3A        -2.3320    0.8760    0.9510 hx        1 JFQ      0.123200
     22 H4         -4.3560    0.5740    2.0190 hx        1 JFQ      0.120700
     23 H5         -4.1520    0.0340    5.0940 hc        1 JFQ      0.094200
     24 H5A        -4.1620    1.6630    4.2870 hc        1 JFQ      0.094200
     25 H6         -6.4230    1.2620    3.3650 hc        1 JFQ      0.100700
     26 H6A        -6.3750    1.1090    5.1730 hc        1 JFQ      0.100700
     27 H7         -6.2320   -1.4100    4.9840 hx        1 JFQ      0.126700
     28 H8         -6.4740   -0.8690    1.9110 hc        1 JFQ      0.100700
     29 H8A        -6.4600   -2.4980    2.7120 hc        1 JFQ      0.100700
     30 H9         -4.2010   -2.1060    3.6300 hc        1 JFQ      0.094200
     31 H9A        -4.2450   -1.9420    1.8210 hc        1 JFQ      0.094200
     32 HN3        -8.4400   -1.7860    4.1290 hn        1 JFQ      0.478467
     33 H13         1.9500    0.8940    0.3150 hn        1 JFQ      0.484133
     34 H22        -2.1440   -0.8540    3.3850 hn        1 JFQ      0.464800
     35 H32        -8.4030   -0.4040    5.0740 hn        1 JFQ      0.478467
     36 HN3A       -8.5110   -0.2780    3.4110 hn        1 JFQ      0.478467
@<TRIPOS>BOND
     1    1    2 1   
     2    1    3 1   
     3    1   13 1   
     4    1   14 1   
     5    2   15 1   
     6    2   16 1   
     7    2   33 1   
     8    3    5 1   
     9    3   17 1   
    10    3   18 1   
    11    4    5 1   
    12    4    7 1   
    13    4   19 1   
    14    4   34 1   
    15    5   20 1   
    16    5   21 1   
    17    6   10 1   
    18    6   32 1   
    19    6   35 1   
    20    6   36 1   
    21    7    8 1   
    22    7   12 1   
    23    7   22 1   
    24    8    9 1   
    25    8   23 1   
    26    8   24 1   
    27    9   10 1   
    28    9   25 1   
    29    9   26 1   
    30   10   11 1   
    31   10   27 1   
    32   11   12 1   
    33   11   28 1   
    34   11   29 1   
    35   12   30 1   
    36   12   31 1   
@<TRIPOS>SUBSTRUCTURE
     1 JFQ         1 TEMP              0 ****  ****    0 ROOT
