@<TRIPOS>MOLECULE
JFQ
   36    36     1     0     0
SMALL
bcc


@<TRIPOS>ATOM
      1 C1          0.0700    0.0220    0.0090 c3        1 JFQ      0.105800
      2 N1          1.5520    0.0560   -0.1380 nz        1 JFQ     -0.837600
      3 C2         -0.4000   -0.0140    1.4650 c3        1 JFQ     -0.139400
      4 N2         -2.4930   -0.0330    2.8720 ny        1 JFQ     -0.767000
      5 C3         -1.9320   -0.0350    1.4860 c3        1 JFQ      0.107800
      6 N3         -8.0960   -0.8160    4.1860 nz        1 JFQ     -0.837600
      7 C4         -4.0100   -0.0440    2.9030 c3        1 JFQ      0.121500
      8 C5         -4.5260    0.6030    4.1990 c3        1 JFQ     -0.102900
      9 C6         -6.0420    0.6290    4.2120 c3        1 JFQ     -0.104400
     10 C7         -6.5960   -0.7970    4.1030 c3        1 JFQ      0.114500
     11 C8         -6.0910   -1.4390    2.8040 c3        1 JFQ     -0.104400
     12 C9         -4.5740   -1.4660    2.7870 c3        1 JFQ     -0.102900
     13 H1         -0.3430    0.9400   -0.5070 hx        1 JFQ      0.130200
     14 H1A        -0.3040   -0.8940   -0.5400 hx        1 JFQ      0.130200
     15 HN1         1.9840   -0.7770    0.2820 hn        1 JFQ      0.484133
     16 HN1A        1.9480    0.8930    0.3110 hn        1 JFQ      0.484133
     17 H2         -0.0170    0.8890    2.0150 hc        1 JFQ      0.097700
     18 H2A         0.0070   -0.9290    1.9780 hc        1 JFQ      0.097700
     19 HN2        -2.1430   -0.8540    3.3840 hn        1 JFQ      0.464800
     20 H3         -2.3140   -0.9590    0.9610 hx        1 JFQ      0.123200
     21 H3A        -2.3330    0.8750    0.9490 hx        1 JFQ      0.123200
     22 H4         -4.3570    0.5730    2.0190 hx        1 JFQ      0.120700
     23 H5         -4.1490    0.0370    5.0940 hc        1 JFQ      0.094200
     24 H5A        -4.1610    1.6650    4.2840 hc        1 JFQ      0.094200
     25 H6         -6.3730    1.1120    5.1730 hc        1 JFQ      0.100700
     26 H6A        -6.4230    1.2620    3.3650 hc        1 JFQ      0.100700
     27 H7         -6.2300   -1.4080    4.9870 hx        1 JFQ      0.126700
     28 H8         -6.4750   -0.8710    1.9140 hc        1 JFQ      0.100700
     29 H8A        -6.4600   -2.4990    2.7170 hc        1 JFQ      0.100700
     30 H9         -4.2000   -2.1050    3.6330 hc        1 JFQ      0.094200
     31 H9A        -4.2450   -1.9440    1.8240 hc        1 JFQ      0.094200
     32 HN3        -8.5100   -0.2790    3.4150 hn        1 JFQ      0.478467
     33 H13         1.7960    0.0790   -1.1420 hn        1 JFQ      0.484133
     34 H22        -2.1660    0.8100    3.3660 hn        1 JFQ      0.464800
     35 H32        -8.4380   -1.7850    4.1350 hn        1 JFQ      0.478467
     36 HN3A       -8.4020   -0.4020    5.0770 hn        1 JFQ      0.478467
@<TRIPOS>BOND
     1    1    2 1   
     2    1    3 1   
     3    1   13 1   
     4    1   14 1   
     5    2   15 1   
     6    2   16 1   
     7    2   33 1   
     8    3    5 1   
     9    3   17 1   
    10    3   18 1   
    11    4    5 1   
    12    4    7 1   
    13    4   19 1   
    14    4   34 1   
    15    5   20 1   
    16    5   21 1   
    17    6   10 1   
    18    6   32 1   
    19    6   35 1   
    20    6   36 1   
    21    7    8 1   
    22    7   12 1   
    23    7   22 1   
    24    8    9 1   
    25    8   23 1   
    26    8   24 1   
    27    9   10 1   
    28    9   25 1   
    29    9   26 1   
    30   10   11 1   
    31   10   27 1   
    32   11   12 1   
    33   11   28 1   
    34   11   29 1   
    35   12   30 1   
    36   12   31 1   
@<TRIPOS>SUBSTRUCTURE
     1 JFQ         1 TEMP              0 ****  ****    0 ROOT
