@<TRIPOS>MOLECULE
JG1
   46    48     1     0     0
SMALL
bcc


@<TRIPOS>ATOM
      1 N1          0.0340   -0.0120   -0.1170 nb        1 JG1     -0.625000
      2 C2          1.3910    0.0410   -0.0160 ca        1 JG1      0.351300
      3 C3          2.0690    0.0940    1.2220 ca        1 JG1     -0.191300
      4 C4          1.3100    0.0910    2.3960 ca        1 JG1     -0.102000
      5 C5         -0.0780    0.0370    2.3080 ca        1 JG1     -0.221300
      6 C6         -0.6650   -0.0130    1.0260 ca        1 JG1      0.394200
      7 C7          2.1950    0.0440   -1.2370 cc        1 JG1      0.425400
      8 N8          3.5430    0.0940   -1.4090 nd        1 JG1     -0.353000
      9 N9          3.8120    0.0740   -2.6950 nd        1 JG1     -0.313000
     10 C10         2.6530    0.0110   -3.3900 cc        1 JG1      0.358900
     11 O11         1.5790   -0.0110   -2.4910 os        1 JG1     -0.309800
     12 C12         2.3640   -0.0350   -4.8420 c         1 JG1      0.512600
     13 C13         3.5890   -0.0080   -5.7040 c3        1 JG1     -0.166400
     14 O14         1.2070   -0.0900   -5.2540 o         1 JG1     -0.479100
     15 C15         3.2490   -0.0550   -7.1780 c3        1 JG1     -0.078400
     16 C16         4.5040   -0.0270   -8.0220 c3        1 JG1     -0.078400
     17 C17         4.1680   -0.0740   -9.4970 c3        1 JG1     -0.079400
     18 C18         5.4230   -0.0450  -10.3440 c3        1 JG1     -0.076400
     19 C19         5.0830   -0.0960  -11.8220 c3        1 JG1     -0.037100
     20 C20         6.3050   -0.0360  -12.6700 ca        1 JG1     -0.077300
     21 C21         7.0030    1.1700  -12.8140 ca        1 JG1     -0.127500
     22 C22         8.1430    1.2320  -13.6130 ca        1 JG1     -0.128000
     23 C23         8.5960    0.0920  -14.2770 ca        1 JG1     -0.133000
     24 C24         7.9050   -1.1110  -14.1390 ca        1 JG1     -0.128000
     25 C25         6.7640   -1.1760  -13.3390 ca        1 JG1     -0.127500
     26 H3          3.1670    0.1360    1.2630 ha        1 JG1      0.170000
     27 H4          1.8110    0.1320    3.3750 ha        1 JG1      0.148000
     28 H5         -0.7100    0.0340    3.2070 ha        1 JG1      0.151000
     29 H6         -1.7640   -0.0560    0.9070 h4        1 JG1      0.033100
     30 H13         4.2400   -0.8810   -5.4270 hc        1 JG1      0.085700
     31 H13A        4.1700    0.9260   -5.4690 hc        1 JG1      0.085700
     32 H15         2.5910    0.8150   -7.4390 hc        1 JG1      0.055700
     33 H15A        2.6600   -0.9850   -7.3960 hc        1 JG1      0.055700
     34 H16         5.1580   -0.8990   -7.7570 hc        1 JG1      0.042200
     35 H16A        5.0890    0.9050   -7.7990 hc        1 JG1      0.042200
     36 H17         3.5840   -1.0060   -9.7200 hc        1 JG1      0.042700
     37 H17A        3.5140    0.7980   -9.7620 hc        1 JG1      0.042700
     38 H18         6.0060    0.8880  -10.1260 hc        1 JG1      0.045200
     39 H18A        6.0780   -0.9160  -10.0780 hc        1 JG1      0.045200
     40 H19         4.4120    0.7680  -12.0780 hc        1 JG1      0.048200
     41 H19A        4.5100   -1.0360  -12.0390 hc        1 JG1      0.048200
     42 H21         6.6460    2.0700  -12.2910 ha        1 JG1      0.131000
     43 H22         8.6850    2.1830  -13.7210 ha        1 JG1      0.130000
     44 H23         9.4950    0.1420  -14.9080 ha        1 JG1      0.130000
     45 H24         8.2580   -2.0120  -14.6610 ha        1 JG1      0.130000
     46 H25         6.2220   -2.1270  -13.2340 ha        1 JG1      0.131000
@<TRIPOS>BOND
     1    1    2 ar  
     2    1    6 ar  
     3    2    3 ar  
     4    2    7 1   
     5    3    4 ar  
     6    3   26 1   
     7    4    5 ar  
     8    4   27 1   
     9    5    6 ar  
    10    5   28 1   
    11    6   29 1   
    12    7    8 2   
    13    7   11 1   
    14    8    9 1   
    15    9   10 2   
    16   10   11 1   
    17   10   12 1   
    18   12   13 1   
    19   12   14 2   
    20   13   15 1   
    21   13   30 1   
    22   13   31 1   
    23   15   16 1   
    24   15   32 1   
    25   15   33 1   
    26   16   17 1   
    27   16   34 1   
    28   16   35 1   
    29   17   18 1   
    30   17   36 1   
    31   17   37 1   
    32   18   19 1   
    33   18   38 1   
    34   18   39 1   
    35   19   20 1   
    36   19   40 1   
    37   19   41 1   
    38   20   21 ar  
    39   20   25 ar  
    40   21   22 ar  
    41   21   42 1   
    42   22   23 ar  
    43   22   43 1   
    44   23   24 ar  
    45   23   44 1   
    46   24   25 ar  
    47   24   45 1   
    48   25   46 1   
@<TRIPOS>SUBSTRUCTURE
     1 JG1         1 TEMP              0 ****  ****    0 ROOT
