@<TRIPOS>MOLECULE
JG1
   46    48     1     0     0
SMALL
bcc


@<TRIPOS>ATOM
      1 N1          6.7590    0.9640    0.0140 nb        1 JG1     -0.625000
      2 C2          6.3030   -0.3180   -0.0410 ca        1 JG1      0.351300
      3 C3          7.1630   -1.4380   -0.0950 ca        1 JG1     -0.191300
      4 C4          8.5440   -1.2170   -0.0920 ca        1 JG1     -0.102000
      5 C5          9.0230    0.0880   -0.0370 ca        1 JG1     -0.221300
      6 C6          8.0870    1.1430    0.0150 ca        1 JG1      0.394200
      7 C7          4.8620   -0.5600   -0.0450 cc        1 JG1      0.425400
      8 N8          4.1610   -1.7250   -0.0970 nd        1 JG1     -0.353000
      9 N9          2.8760   -1.4520   -0.0760 nd        1 JG1     -0.313000
     10 C10         2.7070   -0.1110   -0.0100 cc        1 JG1      0.358900
     11 O11         3.9630    0.5090    0.0130 os        1 JG1     -0.309800
     12 C12         1.4960    0.7390    0.0380 c         1 JG1      0.512600
     13 C13         0.2130   -0.0340    0.0090 c3        1 JG1     -0.166400
     14 O14         1.5860    1.9640    0.0970 o         1 JG1     -0.479100
     15 C15        -0.9980    0.8730    0.0590 c3        1 JG1     -0.078400
     16 C16        -2.2780    0.0650    0.0280 c3        1 JG1     -0.078400
     17 C17        -3.4920    0.9670    0.0780 c3        1 JG1     -0.079400
     18 C18        -4.7730    0.1610    0.0470 c3        1 JG1     -0.076400
     19 C19        -5.9880    1.0680    0.1000 c3        1 JG1     -0.037100
     20 C20        -7.2570    0.2930    0.0380 ca        1 JG1     -0.077300
     21 C21        -7.6700   -0.2850   -1.1690 ca        1 JG1     -0.127500
     22 C22        -8.8610   -1.0050   -1.2340 ca        1 JG1     -0.128000
     23 C23        -9.6520   -1.1540   -0.0940 ca        1 JG1     -0.133000
     24 C24        -9.2470   -0.5800    1.1110 ca        1 JG1     -0.128000
     25 C25        -8.0550    0.1410    1.1770 ca        1 JG1     -0.127500
     26 H3          6.7570   -2.4590   -0.1390 ha        1 JG1      0.170000
     27 H4          9.2370   -2.0710   -0.1340 ha        1 JG1      0.148000
     28 H5         10.1000    0.3030   -0.0330 ha        1 JG1      0.151000
     29 H6          8.4220    2.1960    0.0600 h4        1 JG1      0.033100
     30 H13         0.1930   -0.6570   -0.9260 hc        1 JG1      0.085700
     31 H13A        0.2030   -0.7430    0.8810 hc        1 JG1      0.085700
     32 H15        -0.9610    1.4970    0.9900 hc        1 JG1      0.055700
     33 H15A       -0.9720    1.5820   -0.8100 hc        1 JG1      0.055700
     34 H16        -2.3090   -0.5580   -0.9040 hc        1 JG1      0.042200
     35 H16A       -2.2990   -0.6430    0.8990 hc        1 JG1      0.042200
     36 H17        -3.4600    1.5900    1.0110 hc        1 JG1      0.042700
     37 H17A       -3.4700    1.6750   -0.7930 hc        1 JG1      0.042700
     38 H18        -4.8090   -0.4580   -0.8870 hc        1 JG1      0.045200
     39 H18A       -4.7940   -0.5470    0.9160 hc        1 JG1      0.045200
     40 H19        -5.9550    1.6790    1.0410 hc        1 JG1      0.048200
     41 H19A       -5.9510    1.7880   -0.7630 hc        1 JG1      0.048200
     42 H21        -7.0480   -0.1680   -2.0690 ha        1 JG1      0.131000
     43 H22        -9.1790   -1.4560   -2.1850 ha        1 JG1      0.130000
     44 H23       -10.5920   -1.7210   -0.1450 ha        1 JG1      0.130000
     45 H24        -9.8680   -0.6940    2.0110 ha        1 JG1      0.130000
     46 H25        -7.7400    0.5920    2.1300 ha        1 JG1      0.131000
@<TRIPOS>BOND
     1    1    2 ar  
     2    1    6 ar  
     3    2    3 ar  
     4    2    7 1   
     5    3    4 ar  
     6    3   26 1   
     7    4    5 ar  
     8    4   27 1   
     9    5    6 ar  
    10    5   28 1   
    11    6   29 1   
    12    7    8 2   
    13    7   11 1   
    14    8    9 1   
    15    9   10 2   
    16   10   11 1   
    17   10   12 1   
    18   12   13 1   
    19   12   14 2   
    20   13   15 1   
    21   13   30 1   
    22   13   31 1   
    23   15   16 1   
    24   15   32 1   
    25   15   33 1   
    26   16   17 1   
    27   16   34 1   
    28   16   35 1   
    29   17   18 1   
    30   17   36 1   
    31   17   37 1   
    32   18   19 1   
    33   18   38 1   
    34   18   39 1   
    35   19   20 1   
    36   19   40 1   
    37   19   41 1   
    38   20   21 ar  
    39   20   25 ar  
    40   21   22 ar  
    41   21   42 1   
    42   22   23 ar  
    43   22   43 1   
    44   23   24 ar  
    45   23   44 1   
    46   24   25 ar  
    47   24   45 1   
    48   25   46 1   
@<TRIPOS>SUBSTRUCTURE
     1 JG1         1 TEMP              0 ****  ****    0 ROOT
