@<TRIPOS>MOLECULE
JG1
   46    41     1     0     0
SMALL
bcc


@<TRIPOS>ATOM
      1 N1         -3.2490   -6.2980   -0.4490 n1        1 JG1     -0.099000
      2 C2         -2.7830   -5.7190    0.6930 c1        1 JG1      0.023000
      3 C3         -3.4770   -5.8760    1.8830 c1        1 JG1     -0.127000
      4 C4         -4.6270   -6.6100    1.9100 c1        1 JG1     -0.130000
      5 C5         -5.0920   -7.1890    0.7650 c1        1 JG1     -0.130000
      6 C6         -4.3970   -7.0310   -0.4230 c1        1 JG1     -0.071000
      7 C7         -1.6180   -4.9680    0.6640 c1        1 JG1     -0.042500
      8 N8         -0.3900   -5.4030    0.9940 n2        1 JG1     -0.069500
      9 N9          0.4790   -4.3850    0.8030 n2        1 JG1     -0.069500
     10 C10        -0.2150   -3.3240    0.3570 c1        1 JG1     -0.042500
     11 O11        -1.5130   -3.6820    0.2700 os        1 JG1     -0.053000
     12 C12         0.3620   -1.9730   -0.0100 c1        1 JG1      0.314000
     13 C13         1.8480   -1.7270    0.1150 c3        1 JG1     -0.194000
     14 O14        -0.3660   -1.0970   -0.4340 o         1 JG1     -0.241000
     15 C15         2.0840   -0.4100    0.8200 c3        1 JG1     -0.152000
     16 C16         2.7210    0.5710   -0.1420 c3        1 JG1     -0.166000
     17 C17         2.8090    1.9340    0.5120 c3        1 JG1     -0.157000
     18 C18         2.2860    2.9880   -0.4450 c3        1 JG1     -0.155000
     19 C19         1.7980    4.1870    0.3430 c3        1 JG1     -0.123000
     20 C20         1.1230    5.1680   -0.5960 c2        1 JG1     -0.070000
     21 C21        -0.0730    4.8280   -1.2080 c2        1 JG1     -0.128000
     22 C22        -0.7500    5.7640   -1.9750 c1        1 JG1     -0.128000
     23 C23        -0.2310    7.0390   -2.1310 c1        1 JG1     -0.130000
     24 C24         0.9660    7.3800   -1.5200 c1        1 JG1     -0.130000
     25 C25         1.6430    6.4440   -0.7520 c1        1 JG1     -0.128000
     26 H3         -3.1430   -5.4610    2.7010 ha        1 JG1      0.169000
     27 H4         -5.1160   -6.7210    2.7470 ha        1 JG1      0.139750
     28 H5         -5.9150   -7.7150    0.7830 ha        1 JG1      0.139750
     29 H6         -4.7300   -7.4450   -1.2420 ha        1 JG1      0.170000
     30 H13         2.2560   -2.4500    0.6310 hc        1 JG1      0.120000
     31 H13A        2.2500   -1.6960   -0.7760 hc        1 JG1      0.120000
     32 H15         2.6790   -0.5500    1.5840 hc        1 JG1      0.094000
     33 H15A        1.2290   -0.0500    1.1340 hc        1 JG1      0.094000
     34 H16         2.1770    0.6330   -0.9530 hc        1 JG1      0.087000
     35 H16A        3.6200    0.2620   -0.3750 hc        1 JG1      0.087000
     36 H17         2.2710    1.9390    1.3290 hc        1 JG1      0.080000
     37 H17A        3.7420    2.1290    0.7340 hc        1 JG1      0.080000
     38 H18         1.5470    2.6170   -0.9660 hc        1 JG1      0.086000
     39 H18A        3.0040    3.2650   -1.0490 hc        1 JG1      0.086000
     40 H19         1.1590    3.8930    1.0210 hc        1 JG1      0.086500
     41 H19A        2.5580    4.6220    0.7780 hc        1 JG1      0.086500
     42 H21        -0.4400    3.9300   -1.0980 ha        1 JG1      0.132000
     43 H22        -1.5930    5.5250   -2.4060 ha        1 JG1      0.130000
     44 H23        -0.7080    7.6980   -2.6710 ha        1 JG1      0.139750
     45 H24         1.3310    8.2780   -1.6300 ha        1 JG1      0.139750
     46 H25         2.4850    6.6840   -0.3220 ha        1 JG1      0.130000
@<TRIPOS>BOND
     1    1    6 1   
     2    2    3 1   
     3    3   26 1   
     4    4    5 1   
     5    4   27 1   
     6    5   28 1   
     7    6   29 1   
     8    7    8 1   
     9    7   11 1   
    10    8    9 1   
    11    9   10 1   
    12   10   11 1   
    13   12   13 1   
    14   12   14 1   
    15   13   15 1   
    16   13   30 1   
    17   13   31 1   
    18   15   16 1   
    19   15   32 1   
    20   15   33 1   
    21   16   17 1   
    22   16   34 1   
    23   16   35 1   
    24   17   18 1   
    25   17   36 1   
    26   17   37 1   
    27   18   19 1   
    28   18   38 1   
    29   18   39 1   
    30   19   20 1   
    31   19   40 1   
    32   19   41 1   
    33   20   21 1   
    34   20   25 1   
    35   21   22 1   
    36   21   42 1   
    37   22   43 1   
    38   23   24 1   
    39   23   44 1   
    40   24   45 1   
    41   25   46 1   
@<TRIPOS>SUBSTRUCTURE
     1 JG1         1 TEMP              0 ****  ****    0 ROOT
