@<TRIPOS>MOLECULE
JG2
   49    45     1     0     0
SMALL
bcc


@<TRIPOS>ATOM
      1 N1         -2.6690   -0.4390   -6.9010 n1        1 JG2     -0.091000
      2 O1          0.8110   -1.9630   -1.9240 oh        1 JG2     -0.321000
      3 C2         -3.1990   -0.9960   -5.7760 c1        1 JG2      0.032000
      4 C3         -4.4070   -1.6740   -5.8400 c1        1 JG2     -0.142000
      5 C4         -5.0650   -1.7830   -7.0310 c1        1 JG2     -0.129750
      6 C5         -4.5330   -1.2260   -8.1570 c1        1 JG2     -0.129750
      7 C6         -3.3250   -0.5480   -8.0910 c1        1 JG2     -0.071000
      8 C7         -2.4970   -0.8250   -4.4430 c2        1 JG2      0.015000
      9 N8         -2.2420    0.3420   -3.8300 n2        1 JG2     -0.037000
     10 N9         -1.5350    0.0800   -2.7070 n2        1 JG2     -0.086000
     11 C10        -1.3550   -1.2490   -2.6300 c1        1 JG2     -0.097000
     12 O11        -1.9490   -1.8130   -3.7030 os        1 JG2     -0.115000
     13 C12        -0.5510   -1.9790   -1.5720 c2        1 JG2      0.303000
     14 C13        -0.7350   -1.2920   -0.2340 c3        1 JG2     -0.171000
     15 O14        -0.9960   -3.3110   -1.4800 oh        1 JG2     -0.321000
     16 C15         0.5130   -1.4780    0.6050 c3        1 JG2     -0.159000
     17 C16         0.7060   -0.2690    1.5000 c3        1 JG2     -0.158000
     18 C17         2.1860   -0.0400    1.7270 c3        1 JG2     -0.157000
     19 C18         2.3800    1.1760    2.6120 c3        1 JG2     -0.154000
     20 C19         2.9510    0.7430    3.9460 c3        1 JG2     -0.124000
     21 C20         2.7200    1.8350    4.9730 c2        1 JG2     -0.071000
     22 C21         1.4670    1.9900    5.5470 c2        1 JG2     -0.127000
     23 C22         1.2790    2.9150    6.5620 c1        1 JG2     -0.128000
     24 C23         2.3440    3.6840    7.0050 c1        1 JG2     -0.129750
     25 C24         3.5970    3.5280    6.4320 c1        1 JG2     -0.129750
     26 C25         3.7850    2.6040    5.4170 c1        1 JG2     -0.129000
     27 HO1         1.0190   -1.1710   -2.2700 ho        1 JG2      0.235000
     28 H3         -4.7870   -2.0730   -5.0340 ha        1 JG2      0.162000
     29 H4         -5.9150   -2.2610   -7.0780 ha        1 JG2      0.139250
     30 H5         -5.0020   -1.3030   -9.0100 ha        1 JG2      0.139250
     31 H6         -2.9440   -0.1490   -8.8960 ha        1 JG2      0.170000
     32 H13        -1.5020   -1.6820    0.2300 hc        1 JG2      0.110500
     33 H13A       -0.8920   -0.3370   -0.3770 hc        1 JG2      0.110500
     34 HO14       -0.4280   -3.8440   -1.9080 ho        1 JG2      0.235000
     35 H15         0.4180   -2.2810    1.1570 hc        1 JG2      0.094000
     36 H15A        1.2890   -1.5760    0.0180 hc        1 JG2      0.094000
     37 H16         0.2650   -0.4260    2.3590 hc        1 JG2      0.081000
     38 H16A        0.3160    0.5180    1.0720 hc        1 JG2      0.081000
     39 H17         2.5750   -0.8250    2.1620 hc        1 JG2      0.081000
     40 H17A        2.6290    0.1090    0.8670 hc        1 JG2      0.081000
     41 H18         2.9970    1.7990    2.1790 hc        1 JG2      0.084500
     42 H18A        1.5180    1.6160    2.7540 hc        1 JG2      0.084500
     43 H19         2.5090   -0.0790    4.2390 hc        1 JG2      0.087000
     44 H19A        3.9110    0.5810    3.8530 hc        1 JG2      0.087000
     45 H21         0.7170    1.4490    5.2350 ha        1 JG2      0.130000
     46 H22         0.3970    3.0240    6.9660 ha        1 JG2      0.130000
     47 H23         2.2120    4.3350    7.7210 ha        1 JG2      0.139250
     48 H24         4.3470    4.0700    6.7440 ha        1 JG2      0.139250
     49 H25         4.6670    2.4950    5.0130 ha        1 JG2      0.130000
@<TRIPOS>BOND
     1    1    7 1   
     2    2   13 1   
     3    2   27 1   
     4    3    4 1   
     5    3    8 1   
     6    4   28 1   
     7    5    6 1   
     8    5   29 1   
     9    6   30 1   
    10    7   31 1   
    11    8    9 1   
    12    8   12 1   
    13    9   10 1   
    14   10   11 1   
    15   11   12 1   
    16   13   14 1   
    17   13   15 1   
    18   14   16 1   
    19   14   32 1   
    20   14   33 1   
    21   15   34 1   
    22   16   17 1   
    23   16   35 1   
    24   16   36 1   
    25   17   18 1   
    26   17   37 1   
    27   17   38 1   
    28   18   19 1   
    29   18   39 1   
    30   18   40 1   
    31   19   20 1   
    32   19   41 1   
    33   19   42 1   
    34   20   21 1   
    35   20   43 1   
    36   20   44 1   
    37   21   22 1   
    38   21   26 1   
    39   22   23 1   
    40   22   45 1   
    41   23   46 1   
    42   24   25 1   
    43   24   47 1   
    44   25   48 1   
    45   26   49 1   
@<TRIPOS>SUBSTRUCTURE
     1 JG2         1 TEMP              0 ****  ****    0 ROOT
