@<TRIPOS>MOLECULE
JG2
   49    51     1     0     0
SMALL
bcc


@<TRIPOS>ATOM
      1 N1          5.5960   -1.3910   -1.0290 nb        1 JG2     -0.635000
      2 O1          1.3020    3.0970    0.4770 oh        1 JG2     -0.552300
      3 C2          5.7500   -0.7470    0.1610 ca        1 JG2      0.358300
      4 C3          6.9300   -0.8280    0.9330 ca        1 JG2     -0.194300
      5 C4          7.9890   -1.6030    0.4510 ca        1 JG2     -0.099000
      6 C5          7.8470   -2.2640   -0.7660 ca        1 JG2     -0.224300
      7 C6          6.6300   -2.1260   -1.4650 ca        1 JG2      0.395200
      8 C7          4.6500    0.0640    0.6770 cc        1 JG2      0.413400
      9 N8          4.4150    0.5680    1.9110 nd        1 JG2     -0.340000
     10 N9          3.2800    1.2440    1.8930 nd        1 JG2     -0.342000
     11 C10         2.7600    1.1930    0.6510 cc        1 JG2      0.383700
     12 O11         3.6000    0.4450   -0.1780 os        1 JG2     -0.352800
     13 C12         1.4990    1.7720    0.0440 c3        1 JG2      0.348300
     14 C13         0.3270    0.8360    0.3820 c3        1 JG2     -0.132400
     15 O14         1.6570    1.9880   -1.3390 oh        1 JG2     -0.552300
     16 C15        -0.9680    1.3640   -0.1920 c3        1 JG2     -0.079400
     17 C16        -2.1230    0.4420    0.1310 c3        1 JG2     -0.078400
     18 C17        -3.4200    0.9720   -0.4430 c3        1 JG2     -0.079400
     19 C18        -4.5770    0.0500   -0.1220 c3        1 JG2     -0.076400
     20 C19        -5.8740    0.5830   -0.7010 c3        1 JG2     -0.037100
     21 C20        -7.0280   -0.2970   -0.3680 ca        1 JG2     -0.077300
     22 C21        -7.6110   -1.1080   -1.3480 ca        1 JG2     -0.127500
     23 C22        -8.6970   -1.9230   -1.0320 ca        1 JG2     -0.128000
     24 C23        -9.2090   -1.9360    0.2650 ca        1 JG2     -0.133000
     25 C24        -8.6330   -1.1300    1.2460 ca        1 JG2     -0.128000
     26 C25        -7.5480   -0.3140    0.9320 ca        1 JG2     -0.127500
     27 HO1         1.1020    3.0550    1.4220 ho        1 JG2      0.426500
     28 H3          7.0130   -0.2930    1.8910 ha        1 JG2      0.169000
     29 H4          8.9210   -1.6840    1.0300 ha        1 JG2      0.148000
     30 H5          8.6560   -2.8820   -1.1800 ha        1 JG2      0.151000
     31 H6          6.4720   -2.6340   -2.4340 h4        1 JG2      0.031100
     32 H13         0.5500   -0.1810   -0.0340 hc        1 JG2      0.063200
     33 H13A        0.2490    0.7420    1.4960 hc        1 JG2      0.063200
     34 HO14        1.8530    1.1270   -1.7340 ho        1 JG2      0.426500
     35 H15        -1.1660    2.3890    0.2210 hc        1 JG2      0.057700
     36 H15A       -0.8620    1.4750   -1.3040 hc        1 JG2      0.057700
     37 H16        -1.9190   -0.5800   -0.2850 hc        1 JG2      0.040700
     38 H16A       -2.2210    0.3330    1.2430 hc        1 JG2      0.040700
     39 H17        -3.6250    1.9940   -0.0270 hc        1 JG2      0.042700
     40 H17A       -3.3220    1.0820   -1.5550 hc        1 JG2      0.042700
     41 H18        -4.3720   -0.9720   -0.5370 hc        1 JG2      0.044700
     42 H18A       -4.6800   -0.0580    0.9900 hc        1 JG2      0.044700
     43 H19        -6.0660    1.6130   -0.2950 hc        1 JG2      0.048700
     44 H19A       -5.7720    0.6790   -1.8150 hc        1 JG2      0.048700
     45 H21        -7.2120   -1.1000   -2.3730 ha        1 JG2      0.131000
     46 H22        -9.1500   -2.5570   -1.8090 ha        1 JG2      0.130000
     47 H23       -10.0660   -2.5790    0.5130 ha        1 JG2      0.130000
     48 H24        -9.0350   -1.1370    2.2700 ha        1 JG2      0.130000
     49 H25        -7.0940    0.3220    1.7070 ha        1 JG2      0.131000
@<TRIPOS>BOND
     1    1    3 ar  
     2    1    7 ar  
     3    2   13 1   
     4    2   27 1   
     5    3    4 ar  
     6    3    8 1   
     7    4    5 ar  
     8    4   28 1   
     9    5    6 ar  
    10    5   29 1   
    11    6    7 ar  
    12    6   30 1   
    13    7   31 1   
    14    8    9 2   
    15    8   12 1   
    16    9   10 1   
    17   10   11 2   
    18   11   12 1   
    19   11   13 1   
    20   13   14 1   
    21   13   15 1   
    22   14   16 1   
    23   14   32 1   
    24   14   33 1   
    25   15   34 1   
    26   16   17 1   
    27   16   35 1   
    28   16   36 1   
    29   17   18 1   
    30   17   37 1   
    31   17   38 1   
    32   18   19 1   
    33   18   39 1   
    34   18   40 1   
    35   19   20 1   
    36   19   41 1   
    37   19   42 1   
    38   20   21 1   
    39   20   43 1   
    40   20   44 1   
    41   21   22 ar  
    42   21   26 ar  
    43   22   23 ar  
    44   22   45 1   
    45   23   24 ar  
    46   23   46 1   
    47   24   25 ar  
    48   24   47 1   
    49   25   26 ar  
    50   25   48 1   
    51   26   49 1   
@<TRIPOS>SUBSTRUCTURE
     1 JG2         1 TEMP              0 ****  ****    0 ROOT
