@<TRIPOS>MOLECULE
JG2
   49    51     1     0     0
SMALL
bcc


@<TRIPOS>ATOM
      1 N1          0.4130   -1.2800   -0.1160 nb        1 JG2     -0.637000
      2 O1          2.1860   -0.3190   -5.0970 oh        1 JG2     -0.596800
      3 C2          1.4480   -0.4270    0.1250 ca        1 JG2      0.355300
      4 C3          1.9780   -0.2070    1.4150 ca        1 JG2     -0.192300
      5 C4          1.4130   -0.8970    2.4930 ca        1 JG2     -0.100000
      6 C5          0.3560   -1.7710    2.2610 ca        1 JG2     -0.222300
      7 C6         -0.1060   -1.9260    0.9370 ca        1 JG2      0.395200
      8 C7          2.0450    0.2980   -0.9940 cc        1 JG2      0.422400
      9 N8          3.0640    1.1880   -1.0370 nd        1 JG2     -0.344000
     10 N9          3.2480    1.5800   -2.2850 nd        1 JG2     -0.314000
     11 C10         2.3570    0.9580   -3.0760 cc        1 JG2      0.380700
     12 O11         1.5510    0.1150   -2.2960 os        1 JG2     -0.377800
     13 C12         2.0590    0.9760   -4.5590 c3        1 JG2      0.347300
     14 C13         3.0010    1.9300   -5.3010 c3        1 JG2     -0.045400
     15 O14         0.7250    1.3700   -4.7820 oh        1 JG2     -0.596800
     16 C15         2.7070    1.9530   -6.7850 c3        1 JG2     -0.079400
     17 C16         3.6460    2.8970   -7.5050 c3        1 JG2     -0.078400
     18 C17         3.3570    2.9240   -8.9900 c3        1 JG2     -0.079400
     19 C18         4.2950    3.8660   -9.7130 c3        1 JG2     -0.076400
     20 C19         4.0010    3.8930  -11.2010 c3        1 JG2     -0.037100
     21 C20         4.9380    4.7890  -11.9330 ca        1 JG2     -0.076300
     22 C21         4.5020    6.0220  -12.4300 ca        1 JG2     -0.128000
     23 C22         5.3830    6.8530  -13.1220 ca        1 JG2     -0.128500
     24 C23         6.7050    6.4590  -13.3240 ca        1 JG2     -0.134000
     25 C24         7.1450    5.2300  -12.8320 ca        1 JG2     -0.128500
     26 C25         6.2670    4.3990  -12.1400 ca        1 JG2     -0.128000
     27 HO1         1.6190   -0.9200   -4.5960 ho        1 JG2      0.418000
     28 H3          2.8140    0.4900    1.5690 ha        1 JG2      0.171000
     29 H4          1.8060   -0.7450    3.5100 ha        1 JG2      0.149000
     30 H5         -0.1150   -2.3310    3.0800 ha        1 JG2      0.152000
     31 H6         -0.9440   -2.6100    0.7060 h4        1 JG2      0.032100
     32 H13         2.8720    2.9530   -4.8620 hc        1 JG2      0.071700
     33 H13A        4.0520    1.5880   -5.1160 hc        1 JG2      0.071700
     34 HO14        0.1410    0.7890   -4.2770 ho        1 JG2      0.418000
     35 H15         2.8120    0.9150   -7.2000 hc        1 JG2      0.058700
     36 H15A        1.6430    2.2690   -6.9470 hc        1 JG2      0.058700
     37 H16         4.7080    2.5770   -7.3340 hc        1 JG2      0.040700
     38 H16A        3.5390    3.9310   -7.0820 hc        1 JG2      0.040700
     39 H17         2.2950    3.2450   -9.1610 hc        1 JG2      0.041200
     40 H17A        3.4610    1.8900   -9.4120 hc        1 JG2      0.041200
     41 H18         4.1920    4.9000   -9.2900 hc        1 JG2      0.044700
     42 H18A        5.3570    3.5450   -9.5480 hc        1 JG2      0.044700
     43 H19         2.9410    4.2280  -11.3630 hc        1 JG2      0.047700
     44 H19A        4.0850    2.8520  -11.6150 hc        1 JG2      0.047700
     45 H21         3.4600    6.3380  -12.2740 ha        1 JG2      0.131000
     46 H22         5.0320    7.8210  -13.5090 ha        1 JG2      0.130000
     47 H23         7.3980    7.1140  -13.8700 ha        1 JG2      0.130000
     48 H24         8.1870    4.9160  -12.9900 ha        1 JG2      0.130000
     49 H25         6.6150    3.4300  -11.7520 ha        1 JG2      0.131000
@<TRIPOS>BOND
     1    1    3 ar  
     2    1    7 ar  
     3    2   13 1   
     4    2   27 1   
     5    3    4 ar  
     6    3    8 1   
     7    4    5 ar  
     8    4   28 1   
     9    5    6 ar  
    10    5   29 1   
    11    6    7 ar  
    12    6   30 1   
    13    7   31 1   
    14    8    9 2   
    15    8   12 1   
    16    9   10 1   
    17   10   11 2   
    18   11   12 1   
    19   11   13 1   
    20   13   14 1   
    21   13   15 1   
    22   14   16 1   
    23   14   32 1   
    24   14   33 1   
    25   15   34 1   
    26   16   17 1   
    27   16   35 1   
    28   16   36 1   
    29   17   18 1   
    30   17   37 1   
    31   17   38 1   
    32   18   19 1   
    33   18   39 1   
    34   18   40 1   
    35   19   20 1   
    36   19   41 1   
    37   19   42 1   
    38   20   21 1   
    39   20   43 1   
    40   20   44 1   
    41   21   22 ar  
    42   21   26 ar  
    43   22   23 ar  
    44   22   45 1   
    45   23   24 ar  
    46   23   46 1   
    47   24   25 ar  
    48   24   47 1   
    49   25   26 ar  
    50   25   48 1   
    51   26   49 1   
@<TRIPOS>SUBSTRUCTURE
     1 JG2         1 TEMP              0 ****  ****    0 ROOT
