@<TRIPOS>MOLECULE
JG2
   49    51     1     0     0
SMALL
bcc


@<TRIPOS>ATOM
      1 N1          0.4740   -1.3410   -0.1250 nb        1 JG2     -0.637000
      2 O1          2.3740   -0.3680   -5.0570 oh        1 JG2     -0.596800
      3 C2          1.4170   -0.3920    0.1310 ca        1 JG2      0.355300
      4 C3          1.8670   -0.0880    1.4340 ca        1 JG2     -0.192300
      5 C4          1.3200   -0.7940    2.5100 ca        1 JG2     -0.100000
      6 C5          0.3550   -1.7670    2.2630 ca        1 JG2     -0.222300
      7 C6         -0.0320   -2.0010    0.9270 ca        1 JG2      0.395200
      8 C7          1.9960    0.3520   -0.9850 cc        1 JG2      0.422400
      9 N8          2.9320    1.3290   -1.0150 nd        1 JG2     -0.344000
     10 N9          3.1350    1.7000   -2.2670 nd        1 JG2     -0.314000
     11 C10         2.3400    0.9760   -3.0730 cc        1 JG2      0.380700
     12 O11         1.5790    0.0860   -2.3000 os        1 JG2     -0.377800
     13 C12         2.1070    0.9250   -4.5670 c3        1 JG2      0.347300
     14 C13         2.9910    1.9390   -5.3000 c3        1 JG2     -0.045400
     15 O14         0.7540    1.1880   -4.8580 oh        1 JG2     -0.596800
     16 C15         2.7620    1.8920   -6.7950 c3        1 JG2     -0.079400
     17 C16         3.6420    2.8980   -7.5060 c3        1 JG2     -0.078400
     18 C17         3.4170    2.8560   -9.0020 c3        1 JG2     -0.079400
     19 C18         4.2970    3.8590   -9.7160 c3        1 JG2     -0.076400
     20 C19         4.0680    3.8160  -11.2150 c3        1 JG2     -0.037100
     21 C20         4.9500    4.7730  -11.9360 ca        1 JG2     -0.076300
     22 C21         4.4260    5.9470  -12.4890 ca        1 JG2     -0.128000
     23 C22         5.2570    6.8360  -13.1710 ca        1 JG2     -0.128500
     24 C23         6.6170    6.5600  -13.3060 ca        1 JG2     -0.134000
     25 C24         7.1450    5.3910  -12.7580 ca        1 JG2     -0.128500
     26 C25         6.3170    4.5020  -12.0760 ca        1 JG2     -0.128000
     27 HO1         1.8420   -1.0050   -4.5600 ho        1 JG2      0.418000
     28 H3          2.6310    0.6870    1.6000 ha        1 JG2      0.171000
     29 H4          1.6520   -0.5780    3.5360 ha        1 JG2      0.149000
     30 H5         -0.0990   -2.3430    3.0800 ha        1 JG2      0.152000
     31 H6         -0.7950   -2.7640    0.6840 h4        1 JG2      0.032100
     32 H13         2.7510    2.9580   -4.9000 hc        1 JG2      0.071700
     33 H13A        4.0590    1.7000   -5.0610 hc        1 JG2      0.071700
     34 HO14        0.2030    0.5700   -4.3590 ho        1 JG2      0.418000
     35 H15         2.9790    0.8570   -7.1710 hc        1 JG2      0.058700
     36 H15A        1.6820    2.1050   -7.0120 hc        1 JG2      0.058700
     37 H16         4.7200    2.6830   -7.2810 hc        1 JG2      0.040700
     38 H16A        3.4230    3.9290   -7.1210 hc        1 JG2      0.040700
     39 H17         2.3400    3.0720   -9.2260 hc        1 JG2      0.041200
     40 H17A        3.6340    1.8240   -9.3850 hc        1 JG2      0.041200
     41 H18         4.0820    4.8910   -9.3320 hc        1 JG2      0.044700
     42 H18A        5.3760    3.6420   -9.4960 hc        1 JG2      0.044700
     43 H19         2.9900    4.0470  -11.4320 hc        1 JG2      0.047700
     44 H19A        4.2650    2.7760  -11.5900 hc        1 JG2      0.047700
     45 H21         3.3540    6.1700  -12.3860 ha        1 JG2      0.131000
     46 H22         4.8370    7.7560  -13.6030 ha        1 JG2      0.130000
     47 H23         7.2710    7.2610  -13.8440 ha        1 JG2      0.130000
     48 H24         8.2180    5.1700  -12.8630 ha        1 JG2      0.130000
     49 H25         6.7340    3.5800  -11.6440 ha        1 JG2      0.131000
@<TRIPOS>BOND
     1    1    3 ar  
     2    1    7 ar  
     3    2   13 1   
     4    2   27 1   
     5    3    4 ar  
     6    3    8 1   
     7    4    5 ar  
     8    4   28 1   
     9    5    6 ar  
    10    5   29 1   
    11    6    7 ar  
    12    6   30 1   
    13    7   31 1   
    14    8    9 2   
    15    8   12 1   
    16    9   10 1   
    17   10   11 2   
    18   11   12 1   
    19   11   13 1   
    20   13   14 1   
    21   13   15 1   
    22   14   16 1   
    23   14   32 1   
    24   14   33 1   
    25   15   34 1   
    26   16   17 1   
    27   16   35 1   
    28   16   36 1   
    29   17   18 1   
    30   17   37 1   
    31   17   38 1   
    32   18   19 1   
    33   18   39 1   
    34   18   40 1   
    35   19   20 1   
    36   19   41 1   
    37   19   42 1   
    38   20   21 1   
    39   20   43 1   
    40   20   44 1   
    41   21   22 ar  
    42   21   26 ar  
    43   22   23 ar  
    44   22   45 1   
    45   23   24 ar  
    46   23   46 1   
    47   24   25 ar  
    48   24   47 1   
    49   25   26 ar  
    50   25   48 1   
    51   26   49 1   
@<TRIPOS>SUBSTRUCTURE
     1 JG2         1 TEMP              0 ****  ****    0 ROOT
