@<TRIPOS>MOLECULE
JG3
   41    38     1     0     0
SMALL
bcc


@<TRIPOS>ATOM
      1 C1         -1.0360    0.3290    0.0380 c3        1 JG3     -0.021000
      2 N          -1.1480   -2.0220   -0.4320 n3        1 JG3     -0.335000
      3 O1         -2.3920    0.1630    0.1280 oh        1 JG3     -0.331000
      4 C           1.5990    1.1270    2.7620 c1        1 JG3      0.325000
      5 N2         -0.6450    1.6160    2.0310 n3        1 JG3     -0.235000
      6 O           1.5220    0.3200    3.6440 o         1 JG3     -0.573000
      7 C3         -1.4840    1.5010    2.9920 c3        1 JG3     -0.080000
      8 C4         -0.4100    0.3950    1.4830 c3        1 JG3     -0.069000
      9 C5          1.9750   -2.6110   -5.0500 c1        1 JG3     -0.142000
     10 C6         -0.0080   -2.4790   -3.7430 c1        1 JG3     -0.121000
     11 C7          1.7820   -0.9710   -3.1880 c1        1 JG3     -0.132000
     12 C8         -0.4280   -0.8500   -0.7270 c3        1 JG3     -0.064000
     13 CA          0.6540    2.1540    2.6660 c2        1 JG3     -0.102000
     14 C10        -0.4960   -0.5790   -2.2200 c3        1 JG3     -0.124000
     15 C11         0.1760    2.5700    4.0970 c3        1 JG3     -0.163000
     16 C12         0.7500   -3.0500   -4.7970 c1        1 JG3     -0.121000
     17 C13         2.5440   -1.5450   -4.2480 c2        1 JG3     -0.137000
     18 C14         0.5550   -1.4150   -2.9390 c1        1 JG3     -0.052000
     19 C15        -1.0930    2.5390    4.0600 c3        1 JG3     -0.170000
     20 H1         -0.8330    1.1980   -0.4600 h1        1 JG3      0.082000
     21 H2         -0.8140   -2.4140    0.4570 hn        1 JG3      0.153500
     22 H3         -2.8360    0.8130   -0.4370 ho        1 JG3      0.179000
     23 H4         -2.3890    1.6810    2.6700 h1        1 JG3      0.069000
     24 H5         -1.4360    0.5890    3.3780 h1        1 JG3      0.069000
     25 H6         -0.8060   -0.2860    2.0410 h1        1 JG3      0.111000
     26 H7          0.5060    0.2530    1.4280 h1        1 JG3      0.111000
     27 H8          2.5050   -3.0120   -5.8040 ha        1 JG3      0.119000
     28 H9         -0.8740   -2.7920   -3.5680 ha        1 JG3      0.134500
     29 H10         2.1810   -0.2160   -2.6180 DU        1 JG3      0.128000
     30 H11         0.5610   -0.9710   -0.4450 h1        1 JG3      0.115000
     31 H12         1.1300    2.7820    2.1780 h4        1 JG3      0.090000
     32 H13        -1.3760   -0.8160   -2.5500 hc        1 JG3      0.080000
     33 H14        -0.3070    0.4950   -2.4100 hc        1 JG3      0.080000
     34 H15         0.5200    3.5550    4.3290 hc        1 JG3      0.083000
     35 H16         0.5120    1.9260    4.7670 hc        1 JG3      0.083000
     36 H17         0.3630   -3.7780   -5.3450 ha        1 JG3      0.134500
     37 H18         3.4190   -1.1670   -4.4820 ha        1 JG3      0.121000
     38 H19        -1.4290    2.2770    4.8990 hc        1 JG3      0.061000
     39 H20        -1.4530    3.4370    3.8120 hc        1 JG3      0.061000
     40 H21        -2.0870   -1.8110   -0.3590 hn        1 JG3      0.153500
     41 OXT         2.5270    1.0700    1.9620 o         1 JG3     -0.573000
@<TRIPOS>BOND
     1    1    3 1   
     2    1    8 1   
     3    1   12 1   
     4    1   20 1   
     5    2   12 1   
     6    2   21 1   
     7    2   40 1   
     8    3   22 1   
     9    4    6 1   
    10    4   41 1   
    11    5    7 1   
    12    5    8 1   
    13    5   13 1   
    14    7   19 1   
    15    7   23 1   
    16    7   24 1   
    17    8   25 1   
    18    8   26 1   
    19    9   17 1   
    20    9   27 1   
    21   10   16 1   
    22   10   28 1   
    23   11   17 1   
    24   11   18 1   
    25   12   14 1   
    26   12   30 1   
    27   13   15 1   
    28   13   31 1   
    29   14   18 1   
    30   14   32 1   
    31   14   33 1   
    32   15   19 1   
    33   15   34 1   
    34   15   35 1   
    35   16   36 1   
    36   17   37 1   
    37   19   38 1   
    38   19   39 1   
@<TRIPOS>SUBSTRUCTURE
     1 JG3         1 TEMP              0 ****  ****    0 ROOT
