@<TRIPOS>MOLECULE
JG3
   41    42     1     0     0
SMALL
bcc


@<TRIPOS>ATOM
      1 C1         -0.1720   -1.0460   -0.1780 c3        1 JG3      0.141100
      2 N           1.4080   -0.3690    1.6420 n3        1 JG3     -0.892800
      3 O1         -0.2600   -2.3030    0.4750 oh        1 JG3     -0.620800
      4 C          -3.4030    1.7980   -0.3140 c         1 JG3      0.898600
      5 N2         -2.6130   -0.6570   -0.4060 n3        1 JG3     -0.726600
      6 C3         -3.2410   -1.6470    0.4650 c3        1 JG3      0.168800
      7 C4         -1.3710   -0.1180    0.1020 c3        1 JG3      0.132800
      8 C5          6.0840    0.9500    0.0560 ca        1 JG3     -0.143000
      9 C6          4.6710   -1.0100    0.0620 ca        1 JG3     -0.130000
     10 C7          3.7750    1.1200   -0.6380 ca        1 JG3     -0.130000
     11 C8          1.1450   -0.3190    0.2190 c3        1 JG3      0.138500
     12 CA         -3.6270    0.3330   -0.8100 c3        1 JG3      0.057500
     13 C10         2.2750   -0.8860   -0.6680 c3        1 JG3     -0.085100
     14 C11        -5.0080   -0.1970   -0.3790 c3        1 JG3     -0.085400
     15 C12         5.9100   -0.4130    0.2910 ca        1 JG3     -0.132500
     16 C13         5.0140    1.7150   -0.4080 ca        1 JG3     -0.132500
     17 C14         3.5920   -0.2490   -0.4040 ca        1 JG3     -0.071300
     18 C15        -4.7650   -1.5180    0.3390 c3        1 JG3     -0.079400
     19 H1         -0.1260   -1.3020   -1.2740 h1        1 JG3      0.070700
     20 H2          1.3880   -1.3180    1.9640 hn        1 JG3      0.341800
     21 H3         -0.7740   -2.1740    1.2810 ho        1 JG3      0.403000
     22 H4         -2.8900   -2.6630    0.1340 h1        1 JG3      0.015700
     23 H5         -2.9410   -1.5260    1.5460 h1        1 JG3      0.015700
     24 H6         -1.4030    0.0880    1.2120 h1        1 JG3      0.076700
     25 H7         -1.1710    0.8660   -0.4220 h1        1 JG3      0.076700
     26 H10         2.9300    1.7260   -1.0020 ha        1 JG3      0.137500
     27 H11         1.0220    0.7750   -0.0450 h1        1 JG3      0.077700
     28 H12        -3.5690    0.3690   -1.9360 h1        1 JG3      0.044700
     29 H13         2.3340   -1.9960   -0.5120 hc        1 JG3      0.057200
     30 H14         1.9980   -0.7110   -1.7420 hc        1 JG3      0.057200
     31 H15        -5.4950    0.5460    0.3040 hc        1 JG3      0.049700
     32 H16        -5.6650   -0.3410   -1.2700 hc        1 JG3      0.049700
     33 H17         6.7500   -1.0200    0.6570 ha        1 JG3      0.124500
     34 H18         5.1460    2.7910   -0.5920 ha        1 JG3      0.124500
     35 H19        -5.1810   -2.3760   -0.2430 hc        1 JG3      0.022200
     36 H20        -5.2430   -1.5260    1.3480 hc        1 JG3      0.022200
     37 H21         2.3120    0.0180    1.8350 hn        1 JG3      0.341800
     38 OXT        -2.5610    2.4920   -0.9540 o         1 JG3     -0.836800
     39 O          -4.0710    2.2240    0.6670 o         1 JG3     -0.836800
     40 H8          7.0600    1.4210    0.2380 ha        1 JG3      0.121000
     41 H9          4.5400   -2.0870    0.2480 ha        1 JG3      0.137500
@<TRIPOS>BOND
     1    1    3 1   
     2    1    7 1   
     3    1   11 1   
     4    1   19 1   
     5    2   11 1   
     6    2   20 1   
     7    2   37 1   
     8    3   21 1   
     9    4   12 1   
    10    4   38 1   
    11    4   39 1   
    12    5    6 1   
    13    5    7 1   
    14    5   12 1   
    15    6   18 1   
    16    6   22 1   
    17    6   23 1   
    18    7   24 1   
    19    7   25 1   
    20    8   15 ar  
    21    8   16 ar  
    22    8   40 1   
    23    9   15 ar  
    24    9   17 ar  
    25    9   41 1   
    26   10   16 ar  
    27   10   17 ar  
    28   10   26 1   
    29   11   13 1   
    30   11   27 1   
    31   12   14 1   
    32   12   28 1   
    33   13   17 1   
    34   13   29 1   
    35   13   30 1   
    36   14   18 1   
    37   14   31 1   
    38   14   32 1   
    39   15   33 1   
    40   16   34 1   
    41   18   35 1   
    42   18   36 1   
@<TRIPOS>SUBSTRUCTURE
     1 JG3         1 TEMP              0 ****  ****    0 ROOT
