@<TRIPOS>MOLECULE
JG7
   74    78     1     0     0
SMALL
bcc


@<TRIPOS>ATOM
      1 CL          0.1640   -1.9200    1.4200 cl        1 JG7     -0.072400
      2 C15         1.6500   -1.2150    0.9780 ca        1 JG7      0.190400
      3 C18         2.6200   -1.1170    1.9590 ca        1 JG7     -0.243000
      4 C19         3.8930   -0.5340    1.6760 ca        1 JG7      0.283600
      5 N16         4.8300   -0.3320    2.6630 nh        1 JG7     -0.634000
      6 C31         6.1720    0.0680    2.2880 c3        1 JG7      0.203800
      7 C36         7.0910    0.4700    3.4570 c3        1 JG7      0.156800
      8 C32         4.6200   -0.9260    3.9690 c3        1 JG7      0.203800
      9 C37         5.6130   -0.4900    5.0630 c3        1 JG7      0.156800
     10 N25         6.9860   -0.4290    4.5940 n3        1 JG7     -0.726600
     11 C39         7.9450   -0.0970    5.6420 c3        1 JG7      0.167800
     12 C40         7.9890   -1.0910    6.7890 c3        1 JG7     -0.098100
     13 C30         4.1230   -0.1360    0.3220 ca        1 JG7     -0.238000
     14 C22         3.1330   -0.2480   -0.6250 ca        1 JG7      0.032000
     15 C6          1.8500   -0.7730   -0.3460 ca        1 JG7     -0.515500
     16 S2          0.7390   -0.7340   -1.5520 sy        1 JG7      1.392300
     17 O23        -0.5090   -0.2440   -1.1690 o         1 JG7     -0.644300
     18 O24         1.2940   -0.1760   -2.7200 o         1 JG7     -0.644300
     19 C5          0.5540   -2.4740   -1.9030 c3        1 JG7     -0.265900
     20 C9         -0.8170   -3.0480   -1.5130 c3        1 JG7      0.109000
     21 C10         0.7430   -2.8030   -3.3780 c3        1 JG7     -0.061400
     22 C7         -0.5510   -3.5270   -3.8370 c3        1 JG7      0.062700
     23 C13        -0.1320   -4.9070   -4.3900 c         1 JG7      0.521100
     24 O29        -0.1070   -5.9900   -3.8390 o         1 JG7     -0.387100
     25 N17         0.3160   -4.8370   -5.8470 n4        1 JG7     -0.642800
     26 C14         1.1220   -5.9810   -6.3220 cx        1 JG7     -0.100100
     27 C27         1.0940   -6.3330   -7.8040 cx        1 JG7     -0.090400
     28 C26         0.4350   -7.2440   -6.8200 cx        1 JG7     -0.090400
     29 C20         2.4020   -6.1600   -5.5480 c2        1 JG7      0.424200
     30 N21         3.5900   -5.9300   -5.9250 n2        1 JG7     -0.679100
     31 N3         -1.4280   -3.6330   -2.7090 n         1 JG7     -0.462800
     32 C4         -2.8190   -3.7840   -2.7500 c         1 JG7      0.702100
     33 O28        -3.4790   -3.4990   -1.7420 o         1 JG7     -0.503100
     34 C1         -3.4880   -4.4110   -3.9430 cx        1 JG7     -0.308000
     35 C8         -3.4980   -3.5830   -5.2340 c3        1 JG7      0.678900
     36 F35        -2.5390   -3.9930   -6.1480 f         1 JG7     -0.237633
     37 F34        -4.6590   -3.6270   -5.9530 f         1 JG7     -0.237633
     38 F33        -3.2270   -2.2490   -5.0750 f         1 JG7     -0.237633
     39 C12        -4.7240   -5.2420   -3.6280 cx        1 JG7     -0.073400
     40 C11        -3.4710   -5.9230   -4.0600 cx        1 JG7     -0.073400
     41 H20         2.2440   -6.5860   -4.5300 h4        1 JG7      0.056800
     42 H22         3.3440    0.0990   -1.6560 ha        1 JG7      0.165000
     43 H30         5.0970    0.2750    0.0150 ha        1 JG7      0.153000
     44 H18         2.3890   -1.4940    2.9680 ha        1 JG7      0.163000
     45 H311        6.6610   -0.7730    1.7140 h1        1 JG7      0.056200
     46 H312        6.1040    0.9700    1.6130 h1        1 JG7      0.056200
     47 H321        3.5940   -0.6310    4.3360 h1        1 JG7      0.056200
     48 H322        4.6570   -2.0500    3.8720 h1        1 JG7      0.056200
     49 H361        8.1490    0.4370    3.0720 h1        1 JG7      0.051450
     50 H362        6.8600    1.5390    3.7440 h1        1 JG7      0.051450
     51 H371        5.5530   -1.2580    5.8850 h1        1 JG7      0.051450
     52 H372        5.2700    0.5000    5.4870 h1        1 JG7      0.051450
     53 H391        7.7490    0.9330    6.0650 h1        1 JG7      0.038200
     54 H392        8.9620   -0.0740    5.1530 h1        1 JG7      0.038200
     55 H401        7.0740   -1.0190    7.4250 hc        1 JG7      0.045033
     56 H402        8.8780   -0.8590    7.4250 hc        1 JG7      0.045033
     57 H403        8.0830   -2.1390    6.4170 hc        1 JG7      0.045033
     58 H5          1.3320   -3.0310   -1.3130 h1        1 JG7      0.122700
     59 H91C       -0.7040   -3.8610   -0.7440 h1        1 JG7      0.101700
     60 H92C       -1.5000   -2.2520   -1.0890 h1        1 JG7      0.101700
     61 H101        0.8820   -1.8760   -3.9980 hc        1 JG7      0.086700
     62 H102        1.6430   -3.4520   -3.5210 hc        1 JG7      0.086700
     63 H7         -1.0460   -2.9520   -4.6770 h1        1 JG7      0.091700
     64 H17        -0.5340   -4.7590   -6.4270 hn        1 JG7      0.463300
     65 H271        2.0490   -6.6340   -8.2790 hc        1 JG7      0.111200
     66 H272        0.4660   -5.7440   -8.5000 hc        1 JG7      0.111200
     67 H261       -0.6690   -7.3120   -6.8010 hc        1 JG7      0.111200
     68 H262        0.9070   -8.2120   -6.5590 hc        1 JG7      0.111200
     69 H21         3.7460   -5.5700   -6.8440 hn        1 JG7      0.408400
     70 H121       -5.0450   -5.2920   -2.5670 hc        1 JG7      0.107450
     71 H122       -5.5850   -5.1860   -4.3220 hc        1 JG7      0.107450
     72 H111       -2.8760   -6.4980   -3.3240 hc        1 JG7      0.107450
     73 H112       -3.4240   -6.3630   -5.0740 hc        1 JG7      0.107450
     74 H172        0.8700   -3.9810   -5.9690 hn        1 JG7      0.463300
@<TRIPOS>BOND
     1    1    2 1   
     2    2    3 ar  
     3    2   15 ar  
     4    3    4 ar  
     5    3   44 1   
     6    4    5 1   
     7    4   13 ar  
     8    5    6 1   
     9    5    8 1   
    10    6    7 1   
    11    6   45 1   
    12    6   46 1   
    13    7   10 1   
    14    7   49 1   
    15    7   50 1   
    16    8    9 1   
    17    8   47 1   
    18    8   48 1   
    19    9   10 1   
    20    9   51 1   
    21    9   52 1   
    22   10   11 1   
    23   11   12 1   
    24   11   53 1   
    25   11   54 1   
    26   12   55 1   
    27   12   56 1   
    28   12   57 1   
    29   13   14 ar  
    30   13   43 1   
    31   14   15 ar  
    32   14   42 1   
    33   15   16 1   
    34   16   17 2   
    35   16   18 2   
    36   16   19 1   
    37   19   20 1   
    38   19   21 1   
    39   19   58 1   
    40   20   31 1   
    41   20   59 1   
    42   20   60 1   
    43   21   22 1   
    44   21   61 1   
    45   21   62 1   
    46   22   23 1   
    47   22   31 1   
    48   22   63 1   
    49   23   24 2   
    50   23   25 1   
    51   25   26 1   
    52   25   64 1   
    53   25   74 1   
    54   26   27 1   
    55   26   28 1   
    56   26   29 1   
    57   27   28 1   
    58   27   65 1   
    59   27   66 1   
    60   28   67 1   
    61   28   68 1   
    62   29   30 2   
    63   29   41 1   
    64   30   69 1   
    65   31   32 1   
    66   32   33 2   
    67   32   34 1   
    68   34   35 1   
    69   34   39 1   
    70   34   40 1   
    71   35   36 1   
    72   35   37 1   
    73   35   38 1   
    74   39   40 1   
    75   39   70 1   
    76   39   71 1   
    77   40   72 1   
    78   40   73 1   
@<TRIPOS>SUBSTRUCTURE
     1 JG7         1 TEMP              0 ****  ****    0 ROOT
