@<TRIPOS>MOLECULE
JG7
   74    78     1     0     0
SMALL
bcc


@<TRIPOS>ATOM
      1 Cl          0.1530   -1.8560    1.3930 cl        1 JG7     -0.072400
      2 C15         1.6530   -1.1810    0.9540 ca        1 JG7      0.190400
      3 C18         2.6160   -1.0840    1.9420 ca        1 JG7     -0.243000
      4 C19         3.9000   -0.5260    1.6620 ca        1 JG7      0.283600
      5 N16         4.8320   -0.3250    2.6550 nh        1 JG7     -0.634000
      6 C31         6.1840    0.0480    2.2860 c3        1 JG7      0.203800
      7 C36         7.0990    0.4520    3.4570 c3        1 JG7      0.156800
      8 C32         4.6010   -0.8970    3.9670 c3        1 JG7      0.203800
      9 C37         5.5920   -0.4620    5.0640 c3        1 JG7      0.156800
     10 N25         6.9700   -0.4300    4.6060 n3        1 JG7     -0.726600
     11 C39         7.9260   -0.0990    5.6570 c3        1 JG7      0.167800
     12 C40         7.9430   -1.0780    6.8180 c3        1 JG7     -0.098100
     13 C30         4.1490   -0.1500    0.3050 ca        1 JG7     -0.238000
     14 C22         3.1650   -0.2600   -0.6490 ca        1 JG7      0.032000
     15 C6          1.8710   -0.7610   -0.3740 ca        1 JG7     -0.515500
     16 S2          0.7720   -0.7220   -1.5900 sy        1 JG7      1.392300
     17 O23        -0.4710   -0.2080   -1.2250 o         1 JG7     -0.644300
     18 O24         1.3460   -0.1880   -2.7610 o         1 JG7     -0.644300
     19 C5          0.5640   -2.4630   -1.9200 c3        1 JG7     -0.265900
     20 C9         -0.8170   -3.0120   -1.5320 c3        1 JG7      0.109000
     21 C10         0.7580   -2.8140   -3.3890 c3        1 JG7     -0.061400
     22 C7         -0.5420   -3.5280   -3.8470 c3        1 JG7      0.062700
     23 C13        -0.1370   -4.9210   -4.3770 c         1 JG7      0.521100
     24 O29        -0.1300   -5.9960   -3.8110 o         1 JG7     -0.387100
     25 N17         0.3210   -4.8780   -5.8330 ny        1 JG7     -0.642800
     26 C14         1.1150   -6.0390   -6.2850 cx        1 JG7     -0.100100
     27 C27         1.0920   -6.4120   -7.7620 cx        1 JG7     -0.090400
     28 C26         0.4140   -7.3000   -6.7690 cx        1 JG7     -0.090400
     29 C20         2.3870   -6.2240   -5.5000 c2        1 JG7      0.424200
     30 N21         3.5810   -6.0140   -5.8730 n2        1 JG7     -0.679100
     31 N3         -1.4280   -3.6060   -2.7240 n         1 JG7     -0.462800
     32 C4         -2.8210   -3.7390   -2.7740 c         1 JG7      0.702100
     33 O28        -3.4840   -3.4300   -1.7740 o         1 JG7     -0.503100
     34 C1         -3.4900   -4.3740   -3.9620 cx        1 JG7     -0.308000
     35 C8         -3.4800   -3.5630   -5.2640 c3        1 JG7      0.678900
     36 F35        -2.5200   -3.9990   -6.1660 f         1 JG7     -0.237633
     37 F34        -4.6370   -3.6030   -5.9910 f         1 JG7     -0.237633
     38 F33        -3.1920   -2.2320   -5.1230 f         1 JG7     -0.237633
     39 C12        -4.7390   -5.1830   -3.6440 cx        1 JG7     -0.073400
     40 C11        -3.4920   -5.8880   -4.0570 cx        1 JG7     -0.073400
     41 H20         2.2170   -6.6320   -4.4780 h4        1 JG7      0.056800
     42 H22         3.3900    0.0690   -1.6830 ha        1 JG7      0.165000
     43 H30         5.1320    0.2410    0.0010 ha        1 JG7      0.153000
     44 H18         2.3710   -1.4440    2.9540 ha        1 JG7      0.163000
     45 H311        6.1360    0.9420    1.5990 h1        1 JG7      0.056200
     46 H312        6.6640   -0.8080    1.7280 h1        1 JG7      0.056200
     47 H321        3.5770   -0.5810    4.3210 h1        1 JG7      0.056200
     48 H322        4.6210   -2.0230    3.8860 h1        1 JG7      0.056200
     49 H361        8.1600    0.3960    3.0820 h1        1 JG7      0.051450
     50 H362        6.8830    1.5280    3.7280 h1        1 JG7      0.051450
     51 H371        5.2620    0.5390    5.4700 h1        1 JG7      0.051450
     52 H372        5.5120   -1.2180    5.8960 h1        1 JG7      0.051450
     53 H391        7.7430    0.9400    6.0640 h1        1 JG7      0.038200
     54 H392        8.9470   -0.0990    5.1770 h1        1 JG7      0.038200
     55 H401        8.8300   -0.8510    7.4590 hc        1 JG7      0.045033
     56 H402        8.0230   -2.1320    6.4610 hc        1 JG7      0.045033
     57 H403        7.0250   -0.9810    7.4450 hc        1 JG7      0.045033
     58 H5          1.3300   -3.0240   -1.3180 h1        1 JG7      0.122700
     59 H91C       -1.4930   -2.2000   -1.1250 h1        1 JG7      0.101700
     60 H92C       -0.7220   -3.8160   -0.7500 h1        1 JG7      0.101700
     61 H101        1.6500   -3.4760   -3.5180 hc        1 JG7      0.086200
     62 H102        0.9130   -1.8970   -4.0210 hc        1 JG7      0.086200
     63 H7         -1.0240   -2.9580   -4.6990 h1        1 JG7      0.091700
     64 H17         0.8870   -4.0310   -5.9620 hn        1 JG7      0.463300
     65 H271        2.0460   -6.7330   -8.2260 hc        1 JG7      0.111200
     66 H272        0.4760   -5.8250   -8.4700 hc        1 JG7      0.111200
     67 H261        0.8720   -8.2700   -6.4910 hc        1 JG7      0.111200
     68 H262       -0.6910   -7.3540   -6.7580 hc        1 JG7      0.111200
     69 H21         3.7470   -5.6700   -6.7960 hn        1 JG7      0.408400
     70 H121       -5.0680   -5.2140   -2.5850 hc        1 JG7      0.107200
     71 H122       -5.5940   -5.1260   -4.3450 hc        1 JG7      0.107200
     72 H111       -2.9100   -6.4590   -3.3090 hc        1 JG7      0.107200
     73 H112       -3.4440   -6.3430   -5.0640 hc        1 JG7      0.107200
     74 H172       -0.5240   -4.7970   -6.4190 hn        1 JG7      0.463300
@<TRIPOS>BOND
     1    1    2 1   
     2    2    3 ar  
     3    2   15 ar  
     4    3    4 ar  
     5    3   44 1   
     6    4    5 1   
     7    4   13 ar  
     8    5    6 1   
     9    5    8 1   
    10    6    7 1   
    11    6   45 1   
    12    6   46 1   
    13    7   10 1   
    14    7   49 1   
    15    7   50 1   
    16    8    9 1   
    17    8   47 1   
    18    8   48 1   
    19    9   10 1   
    20    9   51 1   
    21    9   52 1   
    22   10   11 1   
    23   11   12 1   
    24   11   53 1   
    25   11   54 1   
    26   12   55 1   
    27   12   56 1   
    28   12   57 1   
    29   13   14 ar  
    30   13   43 1   
    31   14   15 ar  
    32   14   42 1   
    33   15   16 1   
    34   16   17 2   
    35   16   18 2   
    36   16   19 1   
    37   19   20 1   
    38   19   21 1   
    39   19   58 1   
    40   20   31 1   
    41   20   59 1   
    42   20   60 1   
    43   21   22 1   
    44   21   61 1   
    45   21   62 1   
    46   22   23 1   
    47   22   31 1   
    48   22   63 1   
    49   23   24 2   
    50   23   25 1   
    51   25   26 1   
    52   25   64 1   
    53   25   74 1   
    54   26   27 1   
    55   26   28 1   
    56   26   29 1   
    57   27   28 1   
    58   27   65 1   
    59   27   66 1   
    60   28   67 1   
    61   28   68 1   
    62   29   30 2   
    63   29   41 1   
    64   30   69 1   
    65   31   32 1   
    66   32   33 2   
    67   32   34 1   
    68   34   35 1   
    69   34   39 1   
    70   34   40 1   
    71   35   36 1   
    72   35   37 1   
    73   35   38 1   
    74   39   40 1   
    75   39   70 1   
    76   39   71 1   
    77   40   72 1   
    78   40   73 1   
@<TRIPOS>SUBSTRUCTURE
     1 JG7         1 TEMP              0 ****  ****    0 ROOT
