@<TRIPOS>MOLECULE
JG7
   74    78     1     0     0
SMALL
bcc


@<TRIPOS>ATOM
      1 CL          0.1530   -1.8630    1.3960 cl        1 JG7     -0.072400
      2 C15         1.6500   -1.1820    0.9550 ca        1 JG7      0.190400
      3 C18         2.6150   -1.0840    1.9420 ca        1 JG7     -0.243000
      4 C19         3.8960   -0.5200    1.6600 ca        1 JG7      0.283600
      5 N16         4.8300   -0.3170    2.6510 nh        1 JG7     -0.634000
      6 C31         6.1790    0.0620    2.2800 c3        1 JG7      0.203800
      7 C36         7.0950    0.4670    3.4500 c3        1 JG7      0.156800
      8 C32         4.6040   -0.8930    3.9620 c3        1 JG7      0.203800
      9 C37         5.5950   -0.4560    5.0580 c3        1 JG7      0.156800
     10 N25         6.9710   -0.4180    4.5970 n3        1 JG7     -0.726600
     11 C39         7.9280   -0.0850    5.6470 c3        1 JG7      0.167800
     12 C40         7.9520   -1.0660    6.8070 c3        1 JG7     -0.098100
     13 C30         4.1410   -0.1410    0.3030 ca        1 JG7     -0.238000
     14 C22         3.1550   -0.2530   -0.6490 ca        1 JG7      0.032000
     15 C6          1.8640   -0.7600   -0.3730 ca        1 JG7     -0.515500
     16 S2          0.7620   -0.7220   -1.5870 sy        1 JG7      1.392300
     17 O23        -0.4830   -0.2160   -1.2180 o         1 JG7     -0.644300
     18 O24         1.3320   -0.1830   -2.7570 o         1 JG7     -0.644300
     19 C5          0.5620   -2.4640   -1.9200 c3        1 JG7     -0.265900
     20 C9         -0.8150   -3.0210   -1.5270 c3        1 JG7      0.109000
     21 C10         0.7510   -2.8090   -3.3920 c3        1 JG7     -0.061400
     22 C7         -0.5470   -3.5330   -3.8440 c3        1 JG7      0.062700
     23 C13        -0.1330   -4.9230   -4.3770 c         1 JG7      0.521100
     24 O29        -0.1160   -5.9970   -3.8110 o         1 JG7     -0.387100
     25 N17         0.3180   -4.8750   -5.8340 n4        1 JG7     -0.642800
     26 C14         1.1180   -6.0300   -6.2910 cx        1 JG7     -0.100100
     27 C27         1.0920   -6.4020   -7.7680 cx        1 JG7     -0.090400
     28 C26         0.4250   -7.2950   -6.7740 cx        1 JG7     -0.090400
     29 C20         2.3960   -6.2060   -5.5110 c2        1 JG7      0.424200
     30 N21         3.5860   -5.9880   -5.8890 n2        1 JG7     -0.679100
     31 N3         -1.4270   -3.6180   -2.7170 n         1 JG7     -0.462800
     32 C4         -2.8190   -3.7610   -2.7600 c         1 JG7      0.702100
     33 O28        -3.4800   -3.4580   -1.7580 o         1 JG7     -0.503100
     34 C1         -3.4880   -4.4010   -3.9460 cx        1 JG7     -0.308000
     35 C8         -3.4900   -3.5900   -5.2480 c3        1 JG7      0.678900
     36 F35        -2.5310   -4.0180   -6.1540 f         1 JG7     -0.237633
     37 F34        -4.6500   -3.6380   -5.9690 f         1 JG7     -0.237633
     38 F33        -3.2110   -2.2560   -5.1070 f         1 JG7     -0.237633
     39 C12        -4.7300   -5.2190   -3.6220 cx        1 JG7     -0.073400
     40 C11        -3.4800   -5.9140   -4.0410 cx        1 JG7     -0.073400
     41 H20         2.2330   -6.6170   -4.4890 h4        1 JG7      0.056800
     42 H22         3.3770    0.0790   -1.6840 ha        1 JG7      0.165000
     43 H30         5.1220    0.2540   -0.0030 ha        1 JG7      0.153000
     44 H18         2.3730   -1.4460    2.9540 ha        1 JG7      0.163000
     45 H311        6.1260    0.9570    1.5940 h1        1 JG7      0.056200
     46 H312        6.6610   -0.7920    1.7190 h1        1 JG7      0.056200
     47 H321        3.5790   -0.5810    4.3190 h1        1 JG7      0.056200
     48 H322        4.6270   -2.0180    3.8790 h1        1 JG7      0.056200
     49 H361        6.8760    1.5410    3.7230 h1        1 JG7      0.051450
     50 H362        8.1550    0.4160    3.0730 h1        1 JG7      0.051450
     51 H371        5.2610    0.5430    5.4670 h1        1 JG7      0.051450
     52 H372        5.5200   -1.2130    5.8880 h1        1 JG7      0.051450
     53 H391        8.9480   -0.0810    5.1650 h1        1 JG7      0.038200
     54 H392        7.7420    0.9530    6.0560 h1        1 JG7      0.038200
     55 H401        7.0340   -0.9740    7.4350 hc        1 JG7      0.045033
     56 H402        8.0350   -2.1190    6.4480 hc        1 JG7      0.045033
     57 H403        8.8390   -0.8360    7.4460 hc        1 JG7      0.045033
     58 H5          1.3330   -3.0230   -1.3230 h1        1 JG7      0.122700
     59 H91C       -0.7120   -3.8250   -0.7460 h1        1 JG7      0.101700
     60 H92C       -1.4940   -2.2140   -1.1170 h1        1 JG7      0.101700
     61 H101        0.8940   -1.8900   -4.0210 hc        1 JG7      0.086200
     62 H102        1.6470   -3.4640   -3.5270 hc        1 JG7      0.086200
     63 H7         -1.0360   -2.9660   -4.6930 h1        1 JG7      0.091700
     64 H17        -0.5300   -4.8000   -6.4170 hn        1 JG7      0.463300
     65 H271        2.0460   -6.7150   -8.2370 hc        1 JG7      0.111200
     66 H272        0.4690   -5.8180   -8.4730 hc        1 JG7      0.111200
     67 H261       -0.6800   -7.3570   -6.7570 hc        1 JG7      0.111200
     68 H262        0.8910   -8.2620   -6.4980 hc        1 JG7      0.111200
     69 H21         3.7460   -5.6420   -6.8130 hn        1 JG7      0.408400
     70 H121       -5.5880   -5.1680   -4.3200 hc        1 JG7      0.107450
     71 H122       -5.0540   -5.2530   -2.5620 hc        1 JG7      0.107450
     72 H111       -3.4330   -6.3690   -5.0490 hc        1 JG7      0.107450
     73 H112       -2.8900   -6.4820   -3.2960 hc        1 JG7      0.107450
     74 H172        0.8780   -4.0240   -5.9660 hn        1 JG7      0.463300
@<TRIPOS>BOND
     1    1    2 1   
     2    2    3 ar  
     3    2   15 ar  
     4    3    4 ar  
     5    3   44 1   
     6    4    5 1   
     7    4   13 ar  
     8    5    6 1   
     9    5    8 1   
    10    6    7 1   
    11    6   45 1   
    12    6   46 1   
    13    7   10 1   
    14    7   49 1   
    15    7   50 1   
    16    8    9 1   
    17    8   47 1   
    18    8   48 1   
    19    9   10 1   
    20    9   51 1   
    21    9   52 1   
    22   10   11 1   
    23   11   12 1   
    24   11   53 1   
    25   11   54 1   
    26   12   55 1   
    27   12   56 1   
    28   12   57 1   
    29   13   14 ar  
    30   13   43 1   
    31   14   15 ar  
    32   14   42 1   
    33   15   16 1   
    34   16   17 2   
    35   16   18 2   
    36   16   19 1   
    37   19   20 1   
    38   19   21 1   
    39   19   58 1   
    40   20   31 1   
    41   20   59 1   
    42   20   60 1   
    43   21   22 1   
    44   21   61 1   
    45   21   62 1   
    46   22   23 1   
    47   22   31 1   
    48   22   63 1   
    49   23   24 2   
    50   23   25 1   
    51   25   26 1   
    52   25   64 1   
    53   25   74 1   
    54   26   27 1   
    55   26   28 1   
    56   26   29 1   
    57   27   28 1   
    58   27   65 1   
    59   27   66 1   
    60   28   67 1   
    61   28   68 1   
    62   29   30 2   
    63   29   41 1   
    64   30   69 1   
    65   31   32 1   
    66   32   33 2   
    67   32   34 1   
    68   34   35 1   
    69   34   39 1   
    70   34   40 1   
    71   35   36 1   
    72   35   37 1   
    73   35   38 1   
    74   39   40 1   
    75   39   70 1   
    76   39   71 1   
    77   40   72 1   
    78   40   73 1   
@<TRIPOS>SUBSTRUCTURE
     1 JG7         1 TEMP              0 ****  ****    0 ROOT
