@<TRIPOS>MOLECULE
JGZ
   62    65     1     0     0
SMALL
bcc


@<TRIPOS>ATOM
      1 C1         -0.0620   -0.4270   -0.0650 ca        1 JGZ      0.698600
      2 C2          1.2880   -0.6340   -0.4930 ca        1 JGZ     -0.309600
      3 C3          2.1280   -1.3210    0.3850 ca        1 JGZ      0.467200
      4 N4          1.7170   -1.7900    1.5920 nb        1 JGZ     -0.697000
      5 C5          0.4080   -1.5460    1.8900 ca        1 JGZ      0.724900
      6 N6         -0.5240   -0.8760    1.1370 nb        1 JGZ     -0.740000
      7 O7         -0.8530    0.2520   -0.9490 os        1 JGZ     -0.315400
      8 C8         -2.1990    0.4830   -0.6050 ca        1 JGZ      0.055100
      9 N9         -0.0960   -2.0840    3.1950 n4        1 JGZ     -0.744700
     10 C10         0.2530   -1.1740    4.3510 c3        1 JGZ      0.134500
     11 C11        -0.8250   -1.2430    5.4380 c3        1 JGZ     -0.126900
     12 C12        -0.4660   -0.3100    6.6010 c3        1 JGZ      0.210300
     13 N13         0.8650   -0.5360    7.1280 nh        1 JGZ     -0.668000
     14 C14         1.9050   -0.5640    6.1200 c3        1 JGZ      0.210300
     15 C15         1.6110   -1.5250    4.9640 c3        1 JGZ     -0.126900
     16 C16         1.1140   -0.6510    8.4730 ca        1 JGZ      0.318600
     17 C17         2.3300   -1.2120    8.9790 ca        1 JGZ     -0.231500
     18 C18         2.5400   -1.3510   10.3300 ca        1 JGZ      0.062500
     19 C19         1.5860   -0.9440   11.2960 ca        1 JGZ     -0.626500
     20 C20         0.3960   -0.3620   10.7930 ca        1 JGZ      0.062500
     21 C21         0.1600   -0.2120    9.4480 ca        1 JGZ     -0.231500
     22 C22        -2.5300    1.7120   -0.0090 ca        1 JGZ     -0.053300
     23 C23        -3.8820    1.9900    0.2150 ca        1 JGZ     -0.098000
     24 C24        -4.8650    1.0590   -0.1480 ca        1 JGZ      0.032000
     25 C25        -4.5120   -0.1510   -0.7580 ca        1 JGZ     -0.098000
     26 C26        -3.1670   -0.4560   -0.9960 ca        1 JGZ     -0.053300
     27 C27        -2.8020   -1.7160   -1.6800 c3        1 JGZ     -0.059300
     28 C28        -1.4960    2.7120    0.3350 c3        1 JGZ     -0.059300
     29 C29        -6.2340    1.3480    0.1070 cg        1 JGZ      0.201800
     30 N30        -7.3530    1.5830    0.3210 n1        1 JGZ     -0.300800
     31 S31         1.7820   -1.2440   12.8420 sy        1 JGZ      1.503200
     32 N32         2.6360    0.4050   13.3610 n4        1 JGZ     -0.786500
     33 O33         0.6370   -1.1490   13.6040 o         1 JGZ     -0.567300
     34 O34         2.7990   -2.1250   13.1400 o         1 JGZ     -0.567300
     35 H2          1.6230   -0.2630   -1.4740 ha        1 JGZ      0.215000
     36 H3          3.1910   -1.5280    0.1370 h4        1 JGZ      0.079100
     37 HN9        -1.1210   -2.1800    3.1360 hn        1 JGZ      0.475800
     38 H10         0.2880   -0.1210    3.9350 hx        1 JGZ      0.120700
     39 H11        -1.8200   -0.9090    5.0370 hc        1 JGZ      0.089950
     40 H11A       -0.9340   -2.2950    5.8150 hc        1 JGZ      0.089950
     41 H12        -0.5380    0.7610    6.2500 h1        1 JGZ      0.084200
     42 H12A       -1.2450   -0.4750    7.3990 h1        1 JGZ      0.084200
     43 H14         2.0040    0.4840    5.7020 h1        1 JGZ      0.084200
     44 H14A        2.9010   -0.8440    6.5610 h1        1 JGZ      0.084200
     45 H15         1.6140   -2.5850    5.3320 hc        1 JGZ      0.089950
     46 H15A        2.4350   -1.4170    4.2080 hc        1 JGZ      0.089950
     47 H17         3.1140   -1.5770    8.2970 ha        1 JGZ      0.165500
     48 H18         3.4780   -1.8280   10.6800 ha        1 JGZ      0.172000
     49 H20        -0.3780   -0.0280   11.5140 ha        1 JGZ      0.172000
     50 H21        -0.7790    0.2750    9.1380 ha        1 JGZ      0.165500
     51 H23        -4.1740    2.9510    0.6700 ha        1 JGZ      0.166000
     52 H25        -5.2940   -0.8650   -1.0630 ha        1 JGZ      0.166000
     53 H27        -1.7880   -2.0660   -1.3650 hc        1 JGZ      0.057367
     54 H27A       -3.5450   -2.5230   -1.4600 hc        1 JGZ      0.057367
     55 H27B       -2.7840   -1.5510   -2.7890 hc        1 JGZ      0.057367
     56 H28        -1.2840    3.3560   -0.5580 hc        1 JGZ      0.057367
     57 H28A       -1.8370    3.3740    1.1690 hc        1 JGZ      0.057367
     58 H28B       -0.5420    2.2130    0.6360 hc        1 JGZ      0.057367
     59 HN32        2.7580    1.0460   12.5850 hn        1 JGZ      0.455467
     60 HN3A        2.0840    0.8770   14.0750 hn        1 JGZ      0.455467
     61 H92         0.3190   -3.0140    3.3470 hn        1 JGZ      0.475800
     62 H323        3.5550    0.2140   13.7590 hn        1 JGZ      0.455467
@<TRIPOS>BOND
     1    1    2 ar  
     2    1    6 ar  
     3    1    7 1   
     4    2    3 ar  
     5    2   35 1   
     6    3    4 ar  
     7    3   36 1   
     8    4    5 ar  
     9    5    6 ar  
    10    5    9 1   
    11    7    8 1   
    12    8   22 ar  
    13    8   26 ar  
    14    9   10 1   
    15    9   37 1   
    16    9   61 1   
    17   10   11 1   
    18   10   15 1   
    19   10   38 1   
    20   11   12 1   
    21   11   39 1   
    22   11   40 1   
    23   12   13 1   
    24   12   41 1   
    25   12   42 1   
    26   13   14 1   
    27   13   16 1   
    28   14   15 1   
    29   14   43 1   
    30   14   44 1   
    31   15   45 1   
    32   15   46 1   
    33   16   17 ar  
    34   16   21 ar  
    35   17   18 ar  
    36   17   47 1   
    37   18   19 ar  
    38   18   48 1   
    39   19   20 ar  
    40   19   31 1   
    41   20   21 ar  
    42   20   49 1   
    43   21   50 1   
    44   22   23 ar  
    45   22   28 1   
    46   23   24 ar  
    47   23   51 1   
    48   24   25 ar  
    49   24   29 1   
    50   25   26 ar  
    51   25   52 1   
    52   26   27 1   
    53   27   53 1   
    54   27   54 1   
    55   27   55 1   
    56   28   56 1   
    57   28   57 1   
    58   28   58 1   
    59   29   30 3   
    60   31   32 1   
    61   31   33 2   
    62   31   34 2   
    63   32   59 1   
    64   32   60 1   
    65   32   62 1   
@<TRIPOS>SUBSTRUCTURE
     1 JGZ         1 TEMP              0 ****  ****    0 ROOT
