@<TRIPOS>MOLECULE
JGZ
   61    61     1     0     0
SMALL
bcc


@<TRIPOS>ATOM
      1 C1         -0.5720   -0.4880   -0.2740 c2        1 JGZ      0.193000
      2 C2          0.7630   -0.9200   -0.0350 c2        1 JGZ     -0.282000
      3 C3          1.1910   -0.8480    1.2940 c2        1 JGZ      0.014000
      4 N4          0.4210   -0.4170    2.3110 n2        1 JGZ     -0.284000
      5 C5         -0.8730   -0.0340    1.9800 c2        1 JGZ      0.163000
      6 N6         -1.4010   -0.0360    0.6940 n2        1 JGZ     -0.254000
      7 O7         -0.9680   -0.5540   -1.5960 os        1 JGZ     -0.140000
      8 C8         -2.2710   -0.1450   -1.9140 ca        1 JGZ      0.055000
      9 N9         -1.7530    0.3210    3.0200 nu        1 JGZ     -0.279000
     10 C10        -1.1920    0.7200    4.3010 c3        1 JGZ     -0.142000
     11 C11        -2.1080    1.6070    5.0540 c1        1 JGZ     -0.032500
     12 C12        -0.1130   -0.1840    8.4820 c3        1 JGZ     -0.124000
     13 N13         1.1770   -0.8260    8.5940 nh        1 JGZ     -0.180000
     14 C14         1.8640   -1.1910    7.3760 c3        1 JGZ     -0.124000
     15 C15        -0.6470   -0.3360    5.1530 c1        1 JGZ     -0.032500
     16 C16         1.7180   -1.0950    9.8050 ca        1 JGZ      0.221000
     17 C17         3.0020   -1.7400    9.9390 ca        1 JGZ     -0.236000
     18 C18         3.5240   -2.0210   11.1660 ca        1 JGZ      0.061000
     19 C19         2.8530   -1.6990   12.3860 ca        1 JGZ     -1.147000
     20 C20         1.5880   -1.0480   12.2450 ca        1 JGZ      0.061000
     21 C21         1.0390   -0.7530   11.0330 ca        1 JGZ     -0.236000
     22 C22        -2.4810    1.1850   -2.3170 ca        1 JGZ     -0.052500
     23 C23        -3.7580    1.5510   -2.7530 ca        1 JGZ     -0.095000
     24 C24        -4.7930    0.6090   -2.7800 ca        1 JGZ      0.006000
     25 C25        -4.5640   -0.7130   -2.3760 ca        1 JGZ     -0.095000
     26 C26        -3.2960   -1.1060   -1.9350 ca        1 JGZ     -0.052500
     27 C27        -3.0470   -2.5060   -1.5270 c3        1 JGZ     -0.179000
     28 C28        -1.3820    2.1760   -2.3090 c3        1 JGZ     -0.179000
     29 C29        -6.0900    0.9970   -3.2180 c1        1 JGZ     -0.104000
     30 N30        -7.1500    1.3150   -3.5740 n1        1 JGZ     -0.021000
     31 S31         3.4250   -2.0830   13.7600 s4        1 JGZ      2.107800
     32 N32         4.5600   -0.2090   14.1120 n9        1 JGZ     -0.488000
     33 O33         2.6180   -1.9310   14.8540 o         1 JGZ     -0.463900
     34 O34         4.5310   -2.8890   13.7890 o         1 JGZ     -0.463900
     35 H2          1.3970   -1.2770   -0.8520 ha        1 JGZ      0.178000
     36 H3          2.2170   -1.1520    1.5730 h4        1 JGZ      0.166000
     37 HN9        -2.5850    0.8090    2.7510 hn        1 JGZ      0.255000
     38 H10        -0.2600    1.4010    4.1550 h1        1 JGZ      0.205000
     39 H11        -1.8060    1.7670    6.1040 ha        1 JGZ      0.070500
     40 H11A       -0.3880   -0.0630    7.3920 h1        1 JGZ      0.118333
     41 H12        -0.8980   -0.8090    8.9860 h1        1 JGZ      0.118333
     42 H12A       -0.0800    0.8290    8.9650 h1        1 JGZ      0.118333
     43 H14         2.8450   -0.6480    7.3110 h1        1 JGZ      0.118333
     44 H14A        1.2340   -0.9160    6.4840 h1        1 JGZ      0.118333
     45 H15         2.0530   -2.2990    7.3570 h1        1 JGZ      0.118333
     46 H15A       -0.6790   -1.3750    4.7970 ha        1 JGZ      0.070500
     47 H17         3.5690   -2.0200    9.0350 ha        1 JGZ      0.167000
     48 H18         4.5040   -2.5330   11.2340 ha        1 JGZ      0.162000
     49 H20         1.0340   -0.7890   13.1680 ha        1 JGZ      0.162000
     50 H21         0.0570   -0.2550   10.9930 ha        1 JGZ      0.167000
     51 H23        -3.9470    2.5870   -3.0760 ha        1 JGZ      0.153000
     52 H25        -5.3830   -1.4480   -2.4030 ha        1 JGZ      0.153000
     53 H27        -2.6160   -3.0800   -2.3860 hc        1 JGZ      0.092667
     54 H27A       -2.3170   -2.5450   -0.6810 hc        1 JGZ      0.092667
     55 H27B       -3.9940   -3.0060   -1.2060 hc        1 JGZ      0.092667
     56 H28        -0.6830    1.9810   -1.4580 hc        1 JGZ      0.092667
     57 H28A       -0.7980    2.1020   -3.2620 hc        1 JGZ      0.092667
     58 H28B       -1.7790    3.2160   -2.2160 hc        1 JGZ      0.092667
     59 HN32        5.5340   -0.4360   14.2270 hn        1 JGZ      0.210000
     60 HN3A        4.4590    0.4380   13.3500 hn        1 JGZ      0.210000
     61 H323        4.2220    0.2210   14.9580 hn        1 JGZ      0.210000
@<TRIPOS>BOND
     1    1    2 1   
     2    1    6 1   
     3    1    7 1   
     4    2    3 1   
     5    2   35 1   
     6    3    4 1   
     7    3   36 1   
     8    4    5 1   
     9    5    6 1   
    10    5    9 1   
    11    7    8 1   
    12    8   22 1   
    13    8   26 1   
    14    9   10 1   
    15    9   37 1   
    16   10   11 1   
    17   10   15 1   
    18   10   38 1   
    19   11   39 1   
    20   12   13 1   
    21   12   40 1   
    22   12   41 1   
    23   12   42 1   
    24   13   14 1   
    25   13   16 1   
    26   14   43 1   
    27   14   44 1   
    28   14   45 1   
    29   15   46 1   
    30   16   17 1   
    31   16   21 1   
    32   17   18 1   
    33   17   47 1   
    34   18   19 1   
    35   18   48 1   
    36   19   20 1   
    37   19   31 1   
    38   20   21 1   
    39   20   49 1   
    40   21   50 1   
    41   22   23 1   
    42   22   28 1   
    43   23   24 1   
    44   23   51 1   
    45   24   25 1   
    46   24   29 1   
    47   25   26 1   
    48   25   52 1   
    49   26   27 1   
    50   27   53 1   
    51   27   54 1   
    52   27   55 1   
    53   28   56 1   
    54   28   57 1   
    55   28   58 1   
    56   29   30 1   
    57   31   33 1   
    58   31   34 1   
    59   32   59 1   
    60   32   60 1   
    61   32   61 1   
@<TRIPOS>SUBSTRUCTURE
     1 JGZ         1 TEMP              0 ****  ****    0 ROOT
