@<TRIPOS>MOLECULE
JGZ
   60    63     1     0     0
SMALL
bcc


@<TRIPOS>ATOM
      1 C1         -4.4780   -1.9730   -0.0700 ca        1 JGZ      0.683600
      2 C2         -4.1220   -3.3460   -0.0970 ca        1 JGZ     -0.426600
      3 C3         -2.7710   -3.6090   -0.3580 ca        1 JGZ      0.477200
      4 N4         -1.8470   -2.6600   -0.5830 nb        1 JGZ     -0.765000
      5 C5         -2.2960   -1.3440   -0.5630 ca        1 JGZ      0.894900
      6 N6         -3.6070   -0.9610   -0.2810 nb        1 JGZ     -0.801000
      7 O7         -5.8140   -1.7310    0.2090 os        1 JGZ     -0.365400
      8 C8         -6.2430   -0.3980    0.2520 ca        1 JGZ      0.112100
      9 N9         -1.4180   -0.3090   -0.9190 nh        1 JGZ     -0.820900
     10 C10         0.0190   -0.4960   -0.8450 c3        1 JGZ      0.211500
     11 C11         0.7520    0.6610   -1.5440 c3        1 JGZ     -0.102900
     12 C12         2.2590    0.4120   -1.5420 c3        1 JGZ      0.199800
     13 N13         2.7980    0.1670   -0.2160 nh        1 JGZ     -0.657000
     14 C14         2.0800   -0.8370    0.5500 c3        1 JGZ      0.199800
     15 C15         0.5720   -0.6040    0.5850 c3        1 JGZ     -0.102900
     16 C16         4.1900    0.2350   -0.0560 ca        1 JGZ      0.225600
     17 C17         4.7670    0.2070    1.2420 ca        1 JGZ     -0.215000
     18 C18         6.1330    0.3540    1.4110 ca        1 JGZ      0.017000
     19 C19         6.9980    0.5270    0.3220 ca        1 JGZ     -0.437500
     20 C20         6.4310    0.5620   -0.9570 ca        1 JGZ      0.017000
     21 C21         5.0670    0.4140   -1.1570 ca        1 JGZ     -0.215000
     22 C22        -6.7480    0.1910   -0.9200 ca        1 JGZ     -0.062300
     23 C23        -7.2960    1.4740   -0.8360 ca        1 JGZ     -0.096000
     24 C24        -7.3320    2.1480    0.3910 ca        1 JGZ     -0.007000
     25 C25        -6.8220    1.5460    1.5480 ca        1 JGZ     -0.096000
     26 C26        -6.2690    0.2640    1.4910 ca        1 JGZ     -0.062300
     27 C27        -5.7430   -0.3810    2.7160 c3        1 JGZ     -0.054300
     28 C28        -6.7210   -0.5320   -2.2120 c3        1 JGZ     -0.054300
     29 C29        -7.8890    3.4550    0.4620 cg        1 JGZ      0.232800
     30 N30        -8.3440    4.5240    0.5200 n1        1 JGZ     -0.360800
     31 S31         8.6480    0.7290    0.5480 sy        1 JGZ      1.534200
     32 N32         9.2210   -0.7690    0.4880 n3        1 JGZ     -1.026700
     33 O33         9.1670    1.4580   -0.5460 o         1 JGZ     -0.662800
     34 O34         8.8670    1.2480    1.8440 o         1 JGZ     -0.662800
     35 H2         -4.8620   -4.1310    0.0800 ha        1 JGZ      0.171000
     36 H3         -2.3940   -4.6490   -0.3880 h4        1 JGZ      0.031100
     37 HN9        -1.7300    0.6110   -0.6820 hn        1 JGZ      0.429800
     38 H10         0.2730   -1.4510   -1.3970 h1        1 JGZ      0.087700
     39 H11         0.4190    0.7470   -2.6110 hc        1 JGZ      0.061700
     40 H11A        0.5250    1.6310   -1.0300 hc        1 JGZ      0.061700
     41 H12         2.4830   -0.4550   -2.2310 h1        1 JGZ      0.046950
     42 H12A        2.7590    1.3320   -1.9610 h1        1 JGZ      0.046950
     43 H14         2.2740   -1.8640    0.1190 h1        1 JGZ      0.046950
     44 H14A        2.4580   -0.8340    1.6100 h1        1 JGZ      0.046950
     45 H15         0.3390    0.3290    1.1600 hc        1 JGZ      0.061700
     46 H15A        0.1020   -1.4700    1.1190 hc        1 JGZ      0.061700
     47 H17         4.1330    0.0990    2.1350 ha        1 JGZ      0.141000
     48 H18         6.5540    0.3580    2.4330 ha        1 JGZ      0.151000
     49 H20         7.0900    0.7220   -1.8300 ha        1 JGZ      0.151000
     50 H21         4.6830    0.4360   -2.1870 ha        1 JGZ      0.141000
     51 H23        -7.6980    1.9550   -1.7410 ha        1 JGZ      0.149000
     52 H25        -6.8540    2.0840    2.5080 ha        1 JGZ      0.149000
     53 H27        -4.8400   -0.9950    2.4770 hc        1 JGZ      0.053200
     54 H27A       -5.4670    0.3810    3.4850 hc        1 JGZ      0.053200
     55 H27B       -6.5200   -1.0600    3.1500 hc        1 JGZ      0.053200
     56 H28        -7.5590   -1.2740   -2.2490 hc        1 JGZ      0.053200
     57 H28A       -6.8320    0.1740   -3.0710 hc        1 JGZ      0.053200
     58 H28B       -5.7580   -1.0890   -2.3270 hc        1 JGZ      0.053200
     59 HN32        9.3280   -1.3450    1.2840 hn        1 JGZ      0.444800
     60 HN3A        9.5300   -1.2030   -0.3440 hn        1 JGZ      0.444800
@<TRIPOS>BOND
     1    1    2 ar  
     2    1    6 ar  
     3    1    7 1   
     4    2    3 ar  
     5    2   35 1   
     6    3    4 ar  
     7    3   36 1   
     8    4    5 ar  
     9    5    6 ar  
    10    5    9 1   
    11    7    8 1   
    12    8   22 ar  
    13    8   26 ar  
    14    9   10 1   
    15    9   37 1   
    16   10   11 1   
    17   10   15 1   
    18   10   38 1   
    19   11   12 1   
    20   11   39 1   
    21   11   40 1   
    22   12   13 1   
    23   12   41 1   
    24   12   42 1   
    25   13   14 1   
    26   13   16 1   
    27   14   15 1   
    28   14   43 1   
    29   14   44 1   
    30   15   45 1   
    31   15   46 1   
    32   16   17 ar  
    33   16   21 ar  
    34   17   18 ar  
    35   17   47 1   
    36   18   19 ar  
    37   18   48 1   
    38   19   20 ar  
    39   19   31 1   
    40   20   21 ar  
    41   20   49 1   
    42   21   50 1   
    43   22   23 ar  
    44   22   28 1   
    45   23   24 ar  
    46   23   51 1   
    47   24   25 ar  
    48   24   29 1   
    49   25   26 ar  
    50   25   52 1   
    51   26   27 1   
    52   27   53 1   
    53   27   54 1   
    54   27   55 1   
    55   28   56 1   
    56   28   57 1   
    57   28   58 1   
    58   29   30 3   
    59   31   32 1   
    60   31   33 2   
    61   31   34 2   
    62   32   59 1   
    63   32   60 1   
@<TRIPOS>SUBSTRUCTURE
     1 JGZ         1 TEMP              0 ****  ****    0 ROOT
