@<TRIPOS>MOLECULE
JGZ
   61    63     1     0     0
SMALL
bcc


@<TRIPOS>ATOM
      1 C1         -0.0470   -0.0580    0.1040 ca        1 JGZ      0.688600
      2 C2          1.3690   -0.1440    0.0210 ca        1 JGZ     -0.407600
      3 C3          2.0490   -0.0870    1.2420 ca        1 JGZ      0.474200
      4 N4          1.4420    0.0510    2.4370 nb        1 JGZ     -0.777000
      5 C5          0.0600    0.1610    2.4130 ca        1 JGZ      0.882900
      6 N6         -0.7250    0.0800    1.2670 nb        1 JGZ     -0.788000
      7 O7         -0.7010   -0.1390   -1.1110 os        1 JGZ     -0.355400
      8 C8         -2.1020   -0.0620   -1.1090 ca        1 JGZ      0.101100
      9 N9         -0.6340    0.4480    3.6090 nh        1 JGZ     -0.821900
     10 C10        -0.0120    0.1870    4.8880 c3        1 JGZ      0.217500
     11 C11        -0.8310    0.8000    6.0330 c3        1 JGZ     -0.112900
     12 C12        -0.0760    0.6970    7.3510 c3        1 JGZ      0.194800
     13 N13         0.5830   -0.5720    7.6280 nh        1 JGZ     -0.588000
     14 C14         0.9350   -1.4700    6.5350 c3        1 JGZ      0.194800
     15 C15         0.1590   -1.2970    5.2370 c3        1 JGZ     -0.112900
     16 C16         1.0500   -0.8250    8.8770 ca        1 JGZ      0.308600
     17 C17         1.7980   -2.0200    9.1890 ca        1 JGZ     -0.237500
     18 C18         2.1860   -2.3010   10.4660 ca        1 JGZ      0.062500
     19 C19         1.9080   -1.4390   11.5690 ca        1 JGZ     -0.713500
     20 C20         1.2200   -0.2300   11.2460 ca        1 JGZ      0.062500
     21 C21         0.8190    0.0790    9.9790 ca        1 JGZ     -0.237500
     22 C22        -2.7130    1.1950   -1.2560 ca        1 JGZ     -0.060300
     23 C23        -4.1060    1.2440   -1.3750 ca        1 JGZ     -0.096500
     24 C24        -4.8600    0.0650   -1.3440 ca        1 JGZ      0.001000
     25 C25        -4.2310   -1.1790   -1.2040 ca        1 JGZ     -0.096500
     26 C26        -2.8410   -1.2570   -1.0820 ca        1 JGZ     -0.060300
     27 C27        -2.1730   -2.5720   -0.9560 c3        1 JGZ     -0.054800
     28 C28        -1.9140    2.4390   -1.3090 c3        1 JGZ     -0.054800
     29 C29        -6.2770    0.1300   -1.4540 cg        1 JGZ      0.225800
     30 N30        -7.4360    0.1830   -1.5400 n1        1 JGZ     -0.346800
     31 S31         2.2770   -1.8120   13.0160 s4        1 JGZ      1.678300
     32 N32         4.2780   -0.8820   13.0300 n3        1 JGZ     -1.103400
     33 O33         1.7790   -1.0290   14.0220 o         1 JGZ     -0.462400
     34 O34         2.7370   -3.0790   13.2490 o         1 JGZ     -0.462400
     35 H2          1.8750   -0.2510   -0.9430 ha        1 JGZ      0.179000
     36 H3          3.1520   -0.1600    1.2800 h4        1 JGZ      0.035100
     37 HN9        -1.6160    0.2620    3.5760 hn        1 JGZ      0.431800
     38 H10         1.0100    0.6750    4.8800 h1        1 JGZ      0.093700
     39 H11        -1.0270    1.8890    5.8420 hc        1 JGZ      0.077200
     40 H11A       -1.8230    0.2830    6.1160 hc        1 JGZ      0.077200
     41 H12         0.7130    1.5060    7.3830 h1        1 JGZ      0.068950
     42 H12A       -0.8260    0.8960    8.1730 h1        1 JGZ      0.068950
     43 H14         2.0370   -1.3310    6.3210 h1        1 JGZ      0.068950
     44 H14A        0.7680   -2.5330    6.8800 h1        1 JGZ      0.068950
     45 H15         0.7330   -1.8280    4.4320 hc        1 JGZ      0.077200
     46 H15A       -0.8460   -1.7880    5.3220 hc        1 JGZ      0.077200
     47 H17         2.0680   -2.7300    8.3890 ha        1 JGZ      0.166500
     48 H18         2.7340   -3.2430   10.6690 ha        1 JGZ      0.162500
     49 H20         0.9990    0.4770   12.0700 ha        1 JGZ      0.162500
     50 H21         0.3100    1.0420    9.8100 ha        1 JGZ      0.166500
     51 H23        -4.6080    2.2170   -1.4930 ha        1 JGZ      0.152500
     52 H25        -4.8320   -2.1020   -1.1900 ha        1 JGZ      0.152500
     53 H27        -1.2720   -2.4930   -0.2980 hc        1 JGZ      0.053533
     54 H27A       -2.8670   -3.3360   -0.5270 hc        1 JGZ      0.053533
     55 H27B       -1.8370   -2.9240   -1.9640 hc        1 JGZ      0.053533
     56 H28        -1.0340    2.3720   -0.6210 hc        1 JGZ      0.053533
     57 H28A       -2.5290    3.3260   -1.0190 hc        1 JGZ      0.053533
     58 H28B       -1.5300    2.5980   -2.3490 hc        1 JGZ      0.053533
     59 HN32        4.9660   -1.5910   13.2270 hn        1 JGZ      0.416467
     60 HN3A        4.4960   -0.4480   12.1500 hn        1 JGZ      0.416467
     61 H323        4.3090   -0.1860   13.7580 hn        1 JGZ      0.416467
@<TRIPOS>BOND
     1    1    2 ar  
     2    1    6 ar  
     3    1    7 1   
     4    2    3 ar  
     5    2   35 1   
     6    3    4 ar  
     7    3   36 1   
     8    4    5 ar  
     9    5    6 ar  
    10    5    9 1   
    11    7    8 1   
    12    8   22 ar  
    13    8   26 ar  
    14    9   10 1   
    15    9   37 1   
    16   10   11 1   
    17   10   15 1   
    18   10   38 1   
    19   11   12 1   
    20   11   39 1   
    21   11   40 1   
    22   12   13 1   
    23   12   41 1   
    24   12   42 1   
    25   13   14 1   
    26   13   16 1   
    27   14   15 1   
    28   14   43 1   
    29   14   44 1   
    30   15   45 1   
    31   15   46 1   
    32   16   17 ar  
    33   16   21 ar  
    34   17   18 ar  
    35   17   47 1   
    36   18   19 ar  
    37   18   48 1   
    38   19   20 ar  
    39   19   31 1   
    40   20   21 ar  
    41   20   49 1   
    42   21   50 1   
    43   22   23 ar  
    44   22   28 1   
    45   23   24 ar  
    46   23   51 1   
    47   24   25 ar  
    48   24   29 1   
    49   25   26 ar  
    50   25   52 1   
    51   26   27 1   
    52   27   53 1   
    53   27   54 1   
    54   27   55 1   
    55   28   56 1   
    56   28   57 1   
    57   28   58 1   
    58   29   30 3   
    59   31   33 1   
    60   31   34 1   
    61   32   59 1   
    62   32   60 1   
    63   32   61 1   
@<TRIPOS>SUBSTRUCTURE
     1 JGZ         1 TEMP              0 ****  ****    0 ROOT
