@<TRIPOS>MOLECULE
JH2
   48    48     1     0     0
SMALL
bcc


@<TRIPOS>ATOM
      1 C1         -0.0900   -0.0120   -0.5550 c         1 JH2      0.634300
      2 O1          0.9100   -0.9420   -0.7100 os        1 JH2     -0.438900
      3 C2         -0.9770   -0.3210    0.5640 ce        1 JH2     -0.241200
      4 O2         -0.1150    0.9340   -1.3500 o         1 JH2     -0.555000
      5 C3         -2.0250    0.4510    0.9080 c2        1 JH2     -0.008400
      6 O3         -5.0590   -1.5830    9.0590 os        1 JH2     -0.403600
      7 C4         -2.9000    0.0700    2.0550 c3        1 JH2     -0.059200
      8 C5         -2.6930    0.9960    3.2420 c3        1 JH2     -0.042200
      9 C6         -3.5930    0.6560    4.3680 c2        1 JH2     -0.175200
     10 C7         -3.5140    1.2390    5.5760 c2        1 JH2     -0.118400
     11 C8         -4.4550    0.8770    6.6730 c3        1 JH2     -0.039200
     12 C9         -3.7490    0.1170    7.7820 c3        1 JH2     -0.072400
     13 C10        -4.6910   -0.2030    8.9040 cx        1 JH2      0.066100
     14 C11        -4.2750   -0.9830   10.1130 cx        1 JH2      0.077800
     15 C12        -2.8750   -1.5120   10.2680 c3        1 JH2     -0.063400
     16 C13        -2.8580   -2.9740   10.6390 c3        1 JH2     -0.091100
     17 C14        -2.3840    1.6900    0.1800 c3        1 JH2     -0.084900
     18 C15        -2.5010    2.2770    5.8840 c3        1 JH2     -0.060900
     19 C16        -5.0120   -0.7650   11.3990 c3        1 JH2     -0.085100
     20 C17         1.8240   -0.7210   -1.7820 c3        1 JH2      0.127700
     21 H2         -0.7270   -1.2420    1.1160 ha        1 JH2      0.155000
     22 H4         -3.9730    0.1190    1.7230 hc        1 JH2      0.057700
     23 H4A        -2.6970   -0.9880    2.3720 hc        1 JH2      0.057700
     24 H5         -2.8750    2.0600    2.9250 hc        1 JH2      0.054200
     25 H5A        -1.6220    0.9370    3.5810 hc        1 JH2      0.054200
     26 H6         -4.3550   -0.1150    4.1670 ha        1 JH2      0.126000
     27 H8         -5.2980    0.2500    6.2780 hc        1 JH2      0.049700
     28 H8A        -4.9070    1.8180    7.0900 hc        1 JH2      0.049700
     29 H9         -2.9030    0.7360    8.1840 hc        1 JH2      0.058700
     30 H9A        -3.3140   -0.8310    7.3670 hc        1 JH2      0.058700
     31 H10        -5.5510    0.4950    8.9970 h1        1 JH2      0.084700
     32 H12        -2.3570   -0.9080   11.0600 hc        1 JH2      0.049700
     33 H12A       -2.3100   -1.3680    9.3090 hc        1 JH2      0.049700
     34 H13        -1.8070   -3.3510   10.6580 hc        1 JH2      0.039700
     35 H13A       -3.3090   -3.1350   11.6470 hc        1 JH2      0.039700
     36 H13B       -3.4410   -3.5680    9.8930 hc        1 JH2      0.039700
     37 H14        -3.2740    2.1910    0.6320 hc        1 JH2      0.062033
     38 H14A       -2.6040    1.4520   -0.8930 hc        1 JH2      0.062033
     39 H14B       -1.5210    2.4040    0.1840 hc        1 JH2      0.062033
     40 H15        -1.4750    1.8280    5.8800 hc        1 JH2      0.042367
     41 H15A       -2.6790    2.7370    6.8860 hc        1 JH2      0.042367
     42 H15B       -2.5250    3.0870    5.1120 hc        1 JH2      0.042367
     43 H16        -4.5190    0.0520   11.9790 hc        1 JH2      0.048367
     44 H16A       -6.0750   -0.4840   11.2040 hc        1 JH2      0.048367
     45 H16B       -5.0010   -1.7000   12.0110 hc        1 JH2      0.048367
     46 H17         1.2780   -0.7170   -2.7560 h1        1 JH2      0.049367
     47 H17A        2.3540    0.2510   -1.6380 h1        1 JH2      0.049367
     48 H17B        2.5290   -1.5860   -1.7110 h1        1 JH2      0.049367
@<TRIPOS>BOND
     1    1    2 1   
     2    1    3 1   
     3    1    4 2   
     4    2   20 1   
     5    3    5 2   
     6    3   21 1   
     7    5    7 1   
     8    5   17 1   
     9    6   13 1   
    10    6   14 1   
    11    7    8 1   
    12    7   22 1   
    13    7   23 1   
    14    8    9 1   
    15    8   24 1   
    16    8   25 1   
    17    9   10 2   
    18    9   26 1   
    19   10   11 1   
    20   10   18 1   
    21   11   12 1   
    22   11   27 1   
    23   11   28 1   
    24   12   13 1   
    25   12   29 1   
    26   12   30 1   
    27   13   14 1   
    28   13   31 1   
    29   14   15 1   
    30   14   19 1   
    31   15   16 1   
    32   15   32 1   
    33   15   33 1   
    34   16   34 1   
    35   16   35 1   
    36   16   36 1   
    37   17   37 1   
    38   17   38 1   
    39   17   39 1   
    40   18   40 1   
    41   18   41 1   
    42   18   42 1   
    43   19   43 1   
    44   19   44 1   
    45   19   45 1   
    46   20   46 1   
    47   20   47 1   
    48   20   48 1   
@<TRIPOS>SUBSTRUCTURE
     1 JH2         1 TEMP              0 ****  ****    0 ROOT
