@<TRIPOS>MOLECULE
JH2
   48    48     1     0     0
SMALL
bcc


@<TRIPOS>ATOM
      1 C1         -0.1050   -0.0200   -0.5590 c         1 JH2      0.634300
      2 O1          0.8810   -0.9630   -0.7190 os        1 JH2     -0.438900
      3 C2         -0.9940   -0.3200    0.5610 ce        1 JH2     -0.241200
      4 O2         -0.1180    0.9290   -1.3510 o         1 JH2     -0.555000
      5 C3         -2.0300    0.4660    0.9100 c2        1 JH2     -0.008400
      6 O3         -5.0750   -1.5640    9.0560 os        1 JH2     -0.403600
      7 C4         -2.9080    0.0930    2.0580 c3        1 JH2     -0.059200
      8 C5         -2.6840    1.0110    3.2470 c3        1 JH2     -0.042200
      9 C6         -3.5860    0.6800    4.3750 c2        1 JH2     -0.175200
     10 C7         -3.4910    1.2520    5.5860 c2        1 JH2     -0.118400
     11 C8         -4.4350    0.9000    6.6840 c3        1 JH2     -0.039200
     12 C9         -3.7400    0.1210    7.7860 c3        1 JH2     -0.072400
     13 C10        -4.6830   -0.1890    8.9090 cx        1 JH2      0.066100
     14 C11        -4.2770   -0.9860   10.1110 cx        1 JH2      0.077800
     15 C12        -2.8870   -1.5410   10.2570 c3        1 JH2     -0.063400
     16 C13        -2.8950   -3.0060   10.6170 c3        1 JH2     -0.091100
     17 C14        -2.3730    1.7120    0.1860 c3        1 JH2     -0.084900
     18 C15        -2.4580    2.2690    5.8980 c3        1 JH2     -0.060900
     19 C16        -5.0050   -0.7630   11.4020 c3        1 JH2     -0.085100
     20 C17         1.7960   -0.7520   -1.7930 c3        1 JH2      0.127700
     21 H2         -0.7560   -1.2470    1.1090 ha        1 JH2      0.155000
     22 H4         -3.9810    0.1600    1.7280 hc        1 JH2      0.057700
     23 H4A        -2.7200   -0.9690    2.3700 hc        1 JH2      0.057700
     24 H5         -1.6130    0.9350    3.5830 hc        1 JH2      0.054200
     25 H5A        -2.8520    2.0790    2.9350 hc        1 JH2      0.054200
     26 H6         -4.3630   -0.0750    4.1710 ha        1 JH2      0.126000
     27 H8         -5.2900    0.2900    6.2880 hc        1 JH2      0.049700
     28 H8A        -4.8690    1.8460    7.1090 hc        1 JH2      0.049700
     29 H9         -3.3230   -0.8310    7.3630 hc        1 JH2      0.058700
     30 H9A        -2.8810    0.7220    8.1880 hc        1 JH2      0.058700
     31 H10        -5.5290    0.5240    9.0100 h1        1 JH2      0.084700
     32 H12        -2.3220   -1.4000    9.2970 hc        1 JH2      0.049700
     33 H12A       -2.3550   -0.9530   11.0520 hc        1 JH2      0.049700
     34 H13        -3.4910   -3.5830    9.8690 hc        1 JH2      0.039700
     35 H13A       -1.8510   -3.4020   10.6300 hc        1 JH2      0.039700
     36 H13B       -3.3460   -3.1660   11.6260 hc        1 JH2      0.039700
     37 H14        -1.4990    2.4130    0.1900 hc        1 JH2      0.062033
     38 H14A       -2.6010    1.4810   -0.8860 hc        1 JH2      0.062033
     39 H14B       -3.2540    2.2240    0.6430 hc        1 JH2      0.062033
     40 H15        -2.4660    3.0830    5.1290 hc        1 JH2      0.042367
     41 H15A       -1.4410    1.8000    5.8920 hc        1 JH2      0.042367
     42 H15B       -2.6280    2.7290    6.9020 hc        1 JH2      0.042367
     43 H16        -4.4960    0.0410   11.9850 hc        1 JH2      0.048367
     44 H16A       -6.0640   -0.4610   11.2130 hc        1 JH2      0.048367
     45 H16B       -5.0090   -1.7020   12.0070 hc        1 JH2      0.048367
     46 H17         1.2480   -0.7370   -2.7650 h1        1 JH2      0.049367
     47 H17A        2.4890   -1.6270   -1.7260 h1        1 JH2      0.049367
     48 H17B        2.3400    0.2120   -1.6470 h1        1 JH2      0.049367
@<TRIPOS>BOND
     1    1    2 1   
     2    1    3 1   
     3    1    4 2   
     4    2   20 1   
     5    3    5 2   
     6    3   21 1   
     7    5    7 1   
     8    5   17 1   
     9    6   13 1   
    10    6   14 1   
    11    7    8 1   
    12    7   22 1   
    13    7   23 1   
    14    8    9 1   
    15    8   24 1   
    16    8   25 1   
    17    9   10 2   
    18    9   26 1   
    19   10   11 1   
    20   10   18 1   
    21   11   12 1   
    22   11   27 1   
    23   11   28 1   
    24   12   13 1   
    25   12   29 1   
    26   12   30 1   
    27   13   14 1   
    28   13   31 1   
    29   14   15 1   
    30   14   19 1   
    31   15   16 1   
    32   15   32 1   
    33   15   33 1   
    34   16   34 1   
    35   16   35 1   
    36   16   36 1   
    37   17   37 1   
    38   17   38 1   
    39   17   39 1   
    40   18   40 1   
    41   18   41 1   
    42   18   42 1   
    43   19   43 1   
    44   19   44 1   
    45   19   45 1   
    46   20   46 1   
    47   20   47 1   
    48   20   48 1   
@<TRIPOS>SUBSTRUCTURE
     1 JH2         1 TEMP              0 ****  ****    0 ROOT
