@<TRIPOS>MOLECULE
JH2
   48    45     1     0     0
SMALL
bcc


@<TRIPOS>ATOM
      1 C1          4.6660    3.5240   -0.2890 c1        1 JH2      0.338000
      2 O1          6.0680    3.3260   -0.2910 o         1 JH2     -0.277000
      3 C2          3.9030    3.5600    1.0320 c2        1 JH2     -0.233000
      4 O2          4.0790    3.7360   -1.3360 o         1 JH2     -0.370000
      5 C3          3.1720    2.4730    1.4300 c1        1 JH2      0.008000
      6 O3         -4.2680   -0.5590    0.3440 os        1 JH2     -0.264000
      7 C4          3.1190    1.2140    0.5450 c2        1 JH2     -0.153000
      8 C5          1.6590    0.7280    0.4280 c3        1 JH2     -0.130000
      9 C6          1.5840   -0.4300   -0.5810 c2        1 JH2     -0.161000
     10 C7          0.4240   -1.1640   -0.7040 c1        1 JH2     -0.118000
     11 C8         -0.8010   -0.8230    0.1720 c2        1 JH2     -0.124000
     12 C9         -2.0390   -1.5850   -0.3540 c3        1 JH2     -0.150000
     13 C10        -3.1820   -1.4870    0.6810 cx        1 JH2     -0.045000
     14 C11        -4.4600   -2.0130    0.2560 cx        1 JH2      0.007000
     15 C12        -4.5030   -2.5970   -1.1720 c3        1 JH2     -0.143000
     16 C13        -5.9600   -2.6760   -1.6490 c3        1 JH2     -0.209000
     17 C14         2.4070    2.5090    2.7550 c3        1 JH2     -0.202000
     18 C15         0.3500   -2.3180   -1.7090 c3        1 JH2     -0.180000
     19 C16        -5.3230   -2.6360    1.3610 c3        1 JH2     -0.203000
     20 C17         6.7880    4.3180   -1.0050 c3        1 JH2     -0.062000
     21 H2          3.9370    4.3620    1.5970 ha        1 JH2      0.155000
     22 H4          3.4650    1.4280   -0.3480 ha        1 JH2      0.118500
     23 H4A         3.6690    0.5060    0.9490 ha        1 JH2      0.118500
     24 H5          1.3460    0.4190    1.3050 hc        1 JH2      0.090500
     25 H5A         1.0910    1.4690    0.1190 hc        1 JH2      0.090500
     26 H6          2.3630   -0.6470   -1.1380 ha        1 JH2      0.129000
     27 H8         -0.9720    0.1440    0.1340 ha        1 JH2      0.087500
     28 H8A        -0.6240   -1.0880    1.1020 ha        1 JH2      0.087500
     29 H9         -1.8060   -2.5280   -0.4970 hc        1 JH2      0.097500
     30 H9A        -2.3310   -1.1870   -1.2040 hc        1 JH2      0.097500
     31 H10        -2.9810   -1.5770    1.6390 h1        1 JH2      0.124000
     32 H12        -4.1090   -3.4980   -1.1700 hc        1 JH2      0.090000
     33 H12A       -3.9920   -2.0180   -1.7780 hc        1 JH2      0.090000
     34 H13        -6.4400   -1.8650   -1.3710 hc        1 JH2      0.078667
     35 H13A       -6.3920   -3.4650   -1.2520 hc        1 JH2      0.078667
     36 H13B       -5.9800   -2.7490   -2.6290 hc        1 JH2      0.078667
     37 H14         1.4880    2.8150    2.5950 hc        1 JH2      0.095667
     38 H14A        2.3880    1.6090    3.1470 hc        1 JH2      0.095667
     39 H14B        2.8550    3.1270    3.3760 hc        1 JH2      0.095667
     40 H15        -0.3160   -2.1080   -2.4000 hc        1 JH2      0.080333
     41 H15A        0.0900   -3.1420   -1.2430 hc        1 JH2      0.080333
     42 H15B        1.2300   -2.4430   -2.1300 hc        1 JH2      0.080333
     43 H16        -5.0210   -2.3100    2.2370 hc        1 JH2      0.088000
     44 H16A       -5.2400   -3.6150    1.3290 hc        1 JH2      0.088000
     45 H16B       -6.2640   -2.3830    1.2240 hc        1 JH2      0.088000
     46 H17         6.6100    4.2240   -1.9660 h1        1 JH2      0.088333
     47 H17A        6.5020    5.2090   -0.7050 h1        1 JH2      0.088333
     48 H17B        7.7500    4.2090   -0.8380 h1        1 JH2      0.088333
@<TRIPOS>BOND
     1    1    3 1   
     2    1    4 1   
     3    2   20 1   
     4    3    5 1   
     5    3   21 1   
     6    5   17 1   
     7    6   13 1   
     8    6   14 1   
     9    7    8 1   
    10    7   22 1   
    11    7   23 1   
    12    8    9 1   
    13    8   24 1   
    14    8   25 1   
    15    9   10 1   
    16    9   26 1   
    17   10   18 1   
    18   11   12 1   
    19   11   27 1   
    20   11   28 1   
    21   12   13 1   
    22   12   29 1   
    23   12   30 1   
    24   13   14 1   
    25   13   31 1   
    26   14   15 1   
    27   14   19 1   
    28   15   16 1   
    29   15   32 1   
    30   15   33 1   
    31   16   34 1   
    32   16   35 1   
    33   16   36 1   
    34   17   37 1   
    35   17   38 1   
    36   17   39 1   
    37   18   40 1   
    38   18   41 1   
    39   18   42 1   
    40   19   43 1   
    41   19   44 1   
    42   19   45 1   
    43   20   46 1   
    44   20   47 1   
    45   20   48 1   
@<TRIPOS>SUBSTRUCTURE
     1 JH2         1 TEMP              0 ****  ****    0 ROOT
