@<TRIPOS>MOLECULE
JH2
   48    48     1     0     0
SMALL
bcc


@<TRIPOS>ATOM
      1 C1         -5.7670    0.6260   -0.2800 c         1 JH2      0.634300
      2 O1         -6.1960    1.9310   -0.2840 os        1 JH2     -0.438900
      3 C2         -4.3650    0.4930   -0.6690 ce        1 JH2     -0.241200
      4 O2         -6.5880   -0.2420    0.0400 o         1 JH2     -0.555000
      5 C3         -3.7270   -0.6920   -0.7330 c2        1 JH2     -0.008400
      6 O3          5.1300    0.3770   -1.1530 os        1 JH2     -0.403600
      7 C4         -2.2960   -0.7580   -1.1510 c3        1 JH2     -0.059200
      8 C5         -1.3920   -1.0980    0.0200 c3        1 JH2     -0.042200
      9 C6          0.0250   -1.2150   -0.3950 c2        1 JH2     -0.175200
     10 C7          1.0360   -1.3770    0.4740 c2        1 JH2     -0.118400
     11 C8          2.4450   -1.5090    0.0070 c3        1 JH2     -0.039200
     12 C9          3.2690   -0.2870    0.3740 c3        1 JH2     -0.072400
     13 C10         4.6960   -0.4470   -0.0580 cx        1 JH2      0.066100
     14 C11         5.7250    0.6240    0.1390 cx        1 JH2      0.077800
     15 C12         5.3810    1.9420    0.7760 c3        1 JH2     -0.063400
     16 C13         5.8720    3.1120   -0.0400 c3        1 JH2     -0.091100
     17 C14        -4.3890   -1.9790   -0.4190 c3        1 JH2     -0.084900
     18 C15         0.8130   -1.4460    1.9380 c3        1 JH2     -0.060900
     19 C16         7.1650    0.2250    0.2560 c3        1 JH2     -0.085100
     20 C17        -7.5560    2.1550    0.0820 c3        1 JH2      0.127700
     21 H2         -3.8570    1.4410   -0.9100 ha        1 JH2      0.155000
     22 H4         -2.1890   -1.5420   -1.9490 hc        1 JH2      0.057700
     23 H4A        -1.9710    0.2200   -1.5970 hc        1 JH2      0.057700
     24 H5         -1.4910   -0.3070    0.8140 hc        1 JH2      0.054200
     25 H5A        -1.7260   -2.0670    0.4850 hc        1 JH2      0.054200
     26 H6          0.2210   -1.1650   -1.4790 ha        1 JH2      0.126000
     27 H8          2.9010   -2.4240    0.4750 hc        1 JH2      0.049700
     28 H8A         2.4790   -1.6530   -1.1060 hc        1 JH2      0.049700
     29 H9          2.8220    0.6220   -0.1100 hc        1 JH2      0.058700
     30 H9A         3.2400   -0.1330    1.4850 hc        1 JH2      0.058700
     31 H10         5.0390   -1.5000   -0.1360 h1        1 JH2      0.084700
     32 H12         4.2680    2.0220    0.9010 hc        1 JH2      0.049700
     33 H12A        5.8390    1.9690    1.8000 hc        1 JH2      0.049700
     34 H13         5.5220    4.0700    0.4150 hc        1 JH2      0.039700
     35 H13A        6.9880    3.1280   -0.0830 hc        1 JH2      0.039700
     36 H13B        5.4810    3.0460   -1.0840 hc        1 JH2      0.039700
     37 H14        -5.2600   -2.1390   -1.1060 hc        1 JH2      0.062033
     38 H14A       -3.6850   -2.8390   -0.5170 hc        1 JH2      0.062033
     39 H14B       -4.7980   -1.9580    0.6250 hc        1 JH2      0.062033
     40 H15         0.0270   -2.2070    2.1780 hc        1 JH2      0.042367
     41 H15A        1.7490   -1.7220    2.4820 hc        1 JH2      0.042367
     42 H15B        0.4600   -0.4550    2.3220 hc        1 JH2      0.042367
     43 H16         7.8220    1.0410   -0.1310 hc        1 JH2      0.048367
     44 H16A        7.4150    0.0360    1.3280 hc        1 JH2      0.048367
     45 H16B        7.3690   -0.7020   -0.3340 hc        1 JH2      0.048367
     46 H17        -7.6710    3.2650    0.0060 h1        1 JH2      0.049367
     47 H17A       -8.2360    1.6240   -0.6270 h1        1 JH2      0.049367
     48 H17B       -7.7360    1.7960    1.1240 h1        1 JH2      0.049367
@<TRIPOS>BOND
     1    1    2 1   
     2    1    3 1   
     3    1    4 2   
     4    2   20 1   
     5    3    5 2   
     6    3   21 1   
     7    5    7 1   
     8    5   17 1   
     9    6   13 1   
    10    6   14 1   
    11    7    8 1   
    12    7   22 1   
    13    7   23 1   
    14    8    9 1   
    15    8   24 1   
    16    8   25 1   
    17    9   10 2   
    18    9   26 1   
    19   10   11 1   
    20   10   18 1   
    21   11   12 1   
    22   11   27 1   
    23   11   28 1   
    24   12   13 1   
    25   12   29 1   
    26   12   30 1   
    27   13   14 1   
    28   13   31 1   
    29   14   15 1   
    30   14   19 1   
    31   15   16 1   
    32   15   32 1   
    33   15   33 1   
    34   16   34 1   
    35   16   35 1   
    36   16   36 1   
    37   17   37 1   
    38   17   38 1   
    39   17   39 1   
    40   18   40 1   
    41   18   41 1   
    42   18   42 1   
    43   19   43 1   
    44   19   44 1   
    45   19   45 1   
    46   20   46 1   
    47   20   47 1   
    48   20   48 1   
@<TRIPOS>SUBSTRUCTURE
     1 JH2         1 TEMP              0 ****  ****    0 ROOT
