@<TRIPOS>MOLECULE
JH3
   45    45     1     0     0
SMALL
bcc


@<TRIPOS>ATOM
      1 C1          0.4910    0.0010    0.1950 c         1 JH3      0.634300
      2 O2          1.1930    0.9480    0.5680 o         1 JH3     -0.555000
      3 O1          0.1200   -0.9220    1.1420 os        1 JH3     -0.438900
      4 CM          0.5880   -0.6950    2.4710 c3        1 JH3      0.127700
      5 C2         -0.0310   -0.3140   -1.1330 ce        1 JH3     -0.241200
      6 C3          0.2010    0.4510   -2.2170 c2        1 JH3     -0.008400
      7 C3'         1.0140    1.6880   -2.1670 c3        1 JH3     -0.084900
      8 C4         -0.3510    0.0640   -3.5470 c3        1 JH3     -0.059200
      9 C5         -1.4790    0.9890   -3.9700 c3        1 JH3     -0.042200
     10 C6         -2.0000    0.6430   -5.3130 c2        1 JH3     -0.175200
     11 C7         -3.0860    1.2210   -5.8530 c2        1 JH3     -0.118400
     12 C7'        -3.8640    2.2600   -5.1360 c3        1 JH3     -0.060900
     13 C8         -3.5620    0.8530   -7.2160 c3        1 JH3     -0.039200
     14 C9         -4.8750    0.0930   -7.1610 c3        1 JH3     -0.072400
     15 CA         -5.3760   -0.2300   -8.5360 cx        1 JH3      0.067100
     16 O3         -5.4390   -1.6250   -8.8800 os        1 JH3     -0.404600
     17 CB         -6.6890   -0.9140   -8.7580 cx        1 JH3      0.075800
     18 CB'        -7.4250   -0.7020  -10.0450 c3        1 JH3     -0.083600
     19 CC         -7.5530   -1.3260   -7.6080 c3        1 JH3     -0.083600
     20 HM          0.1990    0.2800    2.8500 h1        1 JH3      0.049367
     21 HMA         1.7040   -0.6930    2.4880 h1        1 JH3      0.049367
     22 HMB         0.1700   -1.5560    3.0480 h1        1 JH3      0.049367
     23 H2         -0.6350   -1.2340   -1.1890 ha        1 JH3      0.155000
     24 H3'         2.0510    1.4510   -1.8170 hc        1 JH3      0.062033
     25 H3'A        1.0720    2.1830   -3.1670 hc        1 JH3      0.062033
     26 H3'B        0.5770    2.4080   -1.4280 hc        1 JH3      0.062033
     27 H4          0.4760    0.1070   -4.3080 hc        1 JH3      0.057700
     28 H4A        -0.7290   -0.9930   -3.5250 hc        1 JH3      0.057700
     29 H5         -2.3100    0.9370   -3.2150 hc        1 JH3      0.054200
     30 H5A        -1.1110    2.0530   -3.9750 hc        1 JH3      0.054200
     31 H6         -1.4420   -0.1290   -5.8670 ha        1 JH3      0.126000
     32 H7'        -4.3810    1.8120   -4.2500 hc        1 JH3      0.042700
     33 H7'A       -3.1850    3.0690   -4.7660 hc        1 JH3      0.042700
     34 H7'B       -4.6360    2.7210   -5.7980 hc        1 JH3      0.042700
     35 H8         -2.7960    0.2230   -7.7430 hc        1 JH3      0.049200
     36 H8A        -3.6950    1.7900   -7.8220 hc        1 JH3      0.049200
     37 H9         -4.7360   -0.8540   -6.5740 hc        1 JH3      0.059200
     38 H9A        -5.6470    0.7120   -6.6290 hc        1 JH3      0.059200
     39 HA         -4.9620    0.4060   -9.3460 h1        1 JH3      0.085700
     40 HB'        -7.9690   -1.6350  -10.3320 hc        1 JH3      0.048867
     41 HB'A       -6.7180   -0.4400  -10.8690 hc        1 JH3      0.048867
     42 HB'B       -8.1650    0.1250   -9.9220 hc        1 JH3      0.048867
     43 HC         -8.1540   -2.2270   -7.8860 hc        1 JH3      0.048867
     44 HCA        -8.2500   -0.4930   -7.3470 hc        1 JH3      0.048867
     45 HCB        -6.9330   -1.5760   -6.7130 hc        1 JH3      0.048867
@<TRIPOS>BOND
     1    1    2 2   
     2    1    3 1   
     3    1    5 1   
     4    3    4 1   
     5    4   20 1   
     6    4   21 1   
     7    4   22 1   
     8    5    6 2   
     9    5   23 1   
    10    6    7 1   
    11    6    8 1   
    12    7   24 1   
    13    7   25 1   
    14    7   26 1   
    15    8    9 1   
    16    8   27 1   
    17    8   28 1   
    18    9   10 1   
    19    9   29 1   
    20    9   30 1   
    21   10   11 2   
    22   10   31 1   
    23   11   12 1   
    24   11   13 1   
    25   12   32 1   
    26   12   33 1   
    27   12   34 1   
    28   13   14 1   
    29   13   35 1   
    30   13   36 1   
    31   14   15 1   
    32   14   37 1   
    33   14   38 1   
    34   15   16 1   
    35   15   17 1   
    36   15   39 1   
    37   16   17 1   
    38   17   18 1   
    39   17   19 1   
    40   18   40 1   
    41   18   41 1   
    42   18   42 1   
    43   19   43 1   
    44   19   44 1   
    45   19   45 1   
@<TRIPOS>SUBSTRUCTURE
     1 JH3         1 TEMP              0 ****  ****    0 ROOT
