@<TRIPOS>MOLECULE
JH3
   45    45     1     0     0
SMALL
bcc


@<TRIPOS>ATOM
      1 C1          5.5130    0.4240    0.3020 c         1 JH3      0.634300
      2 O2          6.2750   -0.4000   -0.2170 o         1 JH3     -0.555000
      3 O1          6.0190    1.6750    0.5640 os        1 JH3     -0.438900
      4 CM          7.3830    1.8970    0.2110 c3        1 JH3      0.127700
      5 C2          4.1140    0.2890    0.6980 ce        1 JH3     -0.241200
      6 C3          3.4080   -0.8460    0.5340 c2        1 JH3     -0.008400
      7 C3'         3.9850   -2.0720   -0.0620 c3        1 JH3     -0.084900
      8 C4          1.9840   -0.9200    0.9730 c3        1 JH3     -0.059200
      9 C5          1.0380   -0.9580   -0.2140 c3        1 JH3     -0.042200
     10 C6         -0.3750   -1.0820    0.2120 c2        1 JH3     -0.175200
     11 C7         -1.4110   -0.9970   -0.6390 c2        1 JH3     -0.118400
     12 C7'        -1.2210   -0.7620   -2.0910 c3        1 JH3     -0.060900
     13 C8         -2.8160   -1.1480   -0.1670 c3        1 JH3     -0.039200
     14 C9         -3.5720    0.1660   -0.2410 c3        1 JH3     -0.072400
     15 CA         -4.9990   -0.0010    0.1870 cx        1 JH3      0.067100
     16 O3         -5.3920    0.6930    1.3830 os        1 JH3     -0.404600
     17 CB         -5.9770    1.1320    0.1380 cx        1 JH3      0.075800
     18 CB'        -7.4380    0.8410   -0.0110 c3        1 JH3     -0.083600
     19 CC         -5.5630    2.4940   -0.3220 c3        1 JH3     -0.083600
     20 HM          7.5650    2.9580    0.5130 h1        1 JH3      0.049367
     21 HMA         8.0430    1.1920    0.7720 h1        1 JH3      0.049367
     22 HMB         7.5210    1.7550   -0.8880 h1        1 JH3      0.049367
     23 H2          3.6680    1.1920    1.1480 ha        1 JH3      0.155000
     24 H3'         4.8580   -2.4210    0.5490 hc        1 JH3      0.062033
     25 H3'A        3.2330   -2.8950   -0.1240 hc        1 JH3      0.062033
     26 H3'B        4.3750   -1.8550   -1.0910 hc        1 JH3      0.062033
     27 H4          1.8450   -1.8480    1.5930 hc        1 JH3      0.057700
     28 H4A         1.7250   -0.0420    1.6240 hc        1 JH3      0.057700
     29 H5          1.1690   -0.0240   -0.8280 hc        1 JH3      0.054200
     30 H5A         1.3050   -1.8240   -0.8810 hc        1 JH3      0.054200
     31 H6         -0.5460   -1.2550    1.2870 ha        1 JH3      0.126000
     32 H7'        -0.4820   -1.4900   -2.5110 hc        1 JH3      0.042700
     33 H7'A       -2.1810   -0.8690   -2.6520 hc        1 JH3      0.042700
     34 H7'B       -0.8240    0.2710   -2.2650 hc        1 JH3      0.042700
     35 H8         -3.3340   -1.9160   -0.8020 hc        1 JH3      0.049200
     36 H8A        -2.8370   -1.5240    0.8910 hc        1 JH3      0.049200
     37 H9         -3.0660    0.9270    0.4120 hc        1 JH3      0.059200
     38 H9A        -3.5520    0.5550   -1.2940 hc        1 JH3      0.059200
     39 HA         -5.3840   -1.0410    0.1340 h1        1 JH3      0.085700
     40 HB'        -7.6850   -0.1720    0.3900 hc        1 JH3      0.048867
     41 HB'A       -8.0380    1.5980    0.5510 hc        1 JH3      0.048867
     42 HB'B       -7.7210    0.8860   -1.0900 hc        1 JH3      0.048867
     43 HC         -5.7080    2.5750   -1.4270 hc        1 JH3      0.048867
     44 HCA        -6.1850    3.2730    0.1820 hc        1 JH3      0.048867
     45 HCB        -4.4900    2.6870   -0.0810 hc        1 JH3      0.048867
@<TRIPOS>BOND
     1    1    2 2   
     2    1    3 1   
     3    1    5 1   
     4    3    4 1   
     5    4   20 1   
     6    4   21 1   
     7    4   22 1   
     8    5    6 2   
     9    5   23 1   
    10    6    7 1   
    11    6    8 1   
    12    7   24 1   
    13    7   25 1   
    14    7   26 1   
    15    8    9 1   
    16    8   27 1   
    17    8   28 1   
    18    9   10 1   
    19    9   29 1   
    20    9   30 1   
    21   10   11 2   
    22   10   31 1   
    23   11   12 1   
    24   11   13 1   
    25   12   32 1   
    26   12   33 1   
    27   12   34 1   
    28   13   14 1   
    29   13   35 1   
    30   13   36 1   
    31   14   15 1   
    32   14   37 1   
    33   14   38 1   
    34   15   16 1   
    35   15   17 1   
    36   15   39 1   
    37   16   17 1   
    38   17   18 1   
    39   17   19 1   
    40   18   40 1   
    41   18   41 1   
    42   18   42 1   
    43   19   43 1   
    44   19   44 1   
    45   19   45 1   
@<TRIPOS>SUBSTRUCTURE
     1 JH3         1 TEMP              0 ****  ****    0 ROOT
