@<TRIPOS>MOLECULE
JH3
   45    45     1     0     0
SMALL
bcc


@<TRIPOS>ATOM
      1 C1          0.5150   -0.0260    0.1720 c         1 JH3      0.634300
      2 O2          1.2260    0.9140    0.5450 o         1 JH3     -0.555000
      3 O1          0.1420   -0.9500    1.1180 os        1 JH3     -0.438900
      4 CM          0.6170   -0.7300    2.4460 c3        1 JH3      0.127700
      5 C2         -0.0150   -0.3330   -1.1540 ce        1 JH3     -0.241200
      6 C3          0.2170    0.4350   -2.2360 c2        1 JH3     -0.008400
      7 C3'         1.0380    1.6660   -2.1870 c3        1 JH3     -0.084900
      8 C4         -0.3440    0.0560   -3.5660 c3        1 JH3     -0.059200
      9 C5         -1.4700    0.9890   -3.9780 c3        1 JH3     -0.042200
     10 C6         -2.0010    0.6500   -5.3190 c2        1 JH3     -0.175200
     11 C7         -3.0910    1.2300   -5.8470 c2        1 JH3     -0.118400
     12 C7'        -3.8660    2.2630   -5.1180 c3        1 JH3     -0.060900
     13 C8         -3.5770    0.8700   -7.2090 c3        1 JH3     -0.039200
     14 C9         -4.8890    0.1100   -7.1490 c3        1 JH3     -0.072400
     15 CA         -5.4000   -0.2060   -8.5220 cx        1 JH3      0.067100
     16 O3         -5.4610   -1.5970   -8.8770 os        1 JH3     -0.404600
     17 CB         -6.7130   -0.8920   -8.7390 cx        1 JH3      0.075800
     18 CB'        -7.4600   -0.6730  -10.0190 c3        1 JH3     -0.083600
     19 CC         -7.5660   -1.3160   -7.5850 c3        1 JH3     -0.083600
     20 HM          0.2370    0.2470    2.8300 h1        1 JH3      0.049367
     21 HMA         0.1950   -1.5890    3.0230 h1        1 JH3      0.049367
     22 HMB         1.7330   -0.7370    2.4580 h1        1 JH3      0.049367
     23 H2         -0.6260   -1.2490   -1.2110 ha        1 JH3      0.155000
     24 H3'         0.6130    2.3850   -1.4390 hc        1 JH3      0.062033
     25 H3'A        2.0770    1.4190   -1.8460 hc        1 JH3      0.062033
     26 H3'B        1.0920    2.1660   -3.1830 hc        1 JH3      0.062033
     27 H4         -0.7280   -0.9990   -3.5460 hc        1 JH3      0.057700
     28 H4A         0.4780    0.0980   -4.3300 hc        1 JH3      0.057700
     29 H5         -1.0960    2.0510   -3.9810 hc        1 JH3      0.054200
     30 H5A        -2.2970    0.9380   -3.2180 hc        1 JH3      0.054200
     31 H6         -1.4450   -0.1170   -5.8830 ha        1 JH3      0.126000
     32 H7'        -4.6390    2.7320   -5.7740 hc        1 JH3      0.042700
     33 H7'A       -4.3810    1.8070   -4.2350 hc        1 JH3      0.042700
     34 H7'B       -3.1850    3.0680   -4.7410 hc        1 JH3      0.042700
     35 H8         -2.8140    0.2440   -7.7460 hc        1 JH3      0.049200
     36 H8A        -3.7150    1.8110   -7.8080 hc        1 JH3      0.049200
     37 H9         -4.7450   -0.8410   -6.5690 hc        1 JH3      0.058700
     38 H9A        -5.6570    0.7240   -6.6080 hc        1 JH3      0.058700
     39 HA         -4.9950    0.4380   -9.3310 h1        1 JH3      0.085700
     40 HB'        -8.0030   -1.6050  -10.3080 hc        1 JH3      0.048867
     41 HB'A       -8.2010    0.1500   -9.8830 hc        1 JH3      0.048867
     42 HB'B       -6.7600   -0.4020  -10.8460 hc        1 JH3      0.048867
     43 HC         -8.2640   -0.4870   -7.3130 hc        1 JH3      0.048867
     44 HCA        -6.9390   -1.5700   -6.6970 hc        1 JH3      0.048867
     45 HCB        -8.1660   -2.2160   -7.8650 hc        1 JH3      0.048867
@<TRIPOS>BOND
     1    1    2 2   
     2    1    3 1   
     3    1    5 1   
     4    3    4 1   
     5    4   20 1   
     6    4   21 1   
     7    4   22 1   
     8    5    6 2   
     9    5   23 1   
    10    6    7 1   
    11    6    8 1   
    12    7   24 1   
    13    7   25 1   
    14    7   26 1   
    15    8    9 1   
    16    8   27 1   
    17    8   28 1   
    18    9   10 1   
    19    9   29 1   
    20    9   30 1   
    21   10   11 2   
    22   10   31 1   
    23   11   12 1   
    24   11   13 1   
    25   12   32 1   
    26   12   33 1   
    27   12   34 1   
    28   13   14 1   
    29   13   35 1   
    30   13   36 1   
    31   14   15 1   
    32   14   37 1   
    33   14   38 1   
    34   15   16 1   
    35   15   17 1   
    36   15   39 1   
    37   16   17 1   
    38   17   18 1   
    39   17   19 1   
    40   18   40 1   
    41   18   41 1   
    42   18   42 1   
    43   19   43 1   
    44   19   44 1   
    45   19   45 1   
@<TRIPOS>SUBSTRUCTURE
     1 JH3         1 TEMP              0 ****  ****    0 ROOT
