@<TRIPOS>MOLECULE
JH5
   37    39     1     0     0
SMALL
bcc


@<TRIPOS>ATOM
      1 C2          1.1410   -1.5100   -1.0010 c3        1 JH5      0.170100
      2 C4         -6.1710   -2.4800   -0.3330 ca        1 JH5     -0.098500
      3 C5         -5.4850   -2.8600   -1.4920 ca        1 JH5     -0.174300
      4 CAA        -6.9990   -3.3950    0.3140 ca        1 JH5     -0.123500
      5 CAB        -7.1450   -4.6880   -0.1930 ca        1 JH5     -0.085000
      6 CAC        -6.4620   -5.0660   -1.3490 ca        1 JH5     -0.123500
      7 CAD        -5.6290   -4.1570   -1.9990 ca        1 JH5     -0.098500
      8 CAK         1.7950   -1.0430    1.3720 ca        1 JH5     -0.122500
      9 CAL         2.0560   -0.1560    2.4140 ca        1 JH5     -0.119500
     10 CAM         1.9070    1.2180    2.2170 ca        1 JH5     -0.098000
     11 CAN         1.4980    1.7040    0.9750 ca        1 JH5     -0.119500
     12 CAO         1.2320    0.8190   -0.0690 ca        1 JH5     -0.122500
     13 CAP         1.3760   -0.5580    0.1270 ca        1 JH5     -0.180300
     14 CAQ        -1.8320   -0.8160   -0.2360 cc        1 JH5      0.420400
     15 NAQ        -1.2410   -1.9430   -0.8880 na        1 JH5     -0.038700
     16 CAR        -2.2270   -2.4430   -1.7340 cc        1 JH5      0.021400
     17 NAS        -3.3330   -1.6420   -1.5670 na        1 JH5      0.133400
     18 NAT        -3.1020   -0.6630   -0.6580 n2        1 JH5     -0.442800
     19 C3         -4.6420   -1.8660   -2.2180 c3        1 JH5      0.103600
     20 N4          0.0290   -2.4600   -0.8170 nh        1 JH5     -0.612500
     21 H21C        2.0360   -2.1930   -1.1210 h1        1 JH5      0.104200
     22 H22C        1.0040   -0.9520   -1.9700 h1        1 JH5      0.104200
     23 H4          0.1230   -2.8940    0.1030 hn        1 JH5      0.401800
     24 HAA        -7.5440   -3.0950    1.2230 ha        1 JH5      0.154500
     25 HAD        -5.1050   -4.4570   -2.9180 ha        1 JH5      0.139500
     26 H31C       -5.1680   -0.8670   -2.2640 h1        1 JH5      0.105700
     27 H32C       -4.4140   -2.2130   -3.2660 h1        1 JH5      0.105700
     28 HAB        -7.8050   -5.4080    0.3170 ha        1 JH5      0.156000
     29 HAC        -6.5840   -6.0840   -1.7540 ha        1 JH5      0.154500
     30 HAK         1.9420   -2.1230    1.5240 ha        1 JH5      0.137500
     31 HAL         2.3920   -0.5390    3.3910 ha        1 JH5      0.154500
     32 HAM         2.1230    1.9190    3.0400 ha        1 JH5      0.156000
     33 HAN         1.3960    2.7890    0.8140 ha        1 JH5      0.154500
     34 HAO         0.9330    1.2110   -1.0540 ha        1 JH5      0.137500
     35 HAQ        -1.2900   -0.1800    0.4860 h5        1 JH5      0.131100
     36 HAR        -2.1250   -3.3150   -2.4030 h5        1 JH5      0.272000
     37 HA         -6.0660   -1.4570    0.0610 ha        1 JH5      0.139500
@<TRIPOS>BOND
     1    1   13 1   
     2    1   20 1   
     3    1   21 1   
     4    1   22 1   
     5    2    3 ar  
     6    2    4 ar  
     7    2   37 1   
     8    3    7 ar  
     9    3   19 1   
    10    4    5 ar  
    11    4   24 1   
    12    5    6 ar  
    13    5   28 1   
    14    6    7 ar  
    15    6   29 1   
    16    7   25 1   
    17    8    9 ar  
    18    8   13 ar  
    19    8   30 1   
    20    9   10 ar  
    21    9   31 1   
    22   10   11 ar  
    23   10   32 1   
    24   11   12 ar  
    25   11   33 1   
    26   12   13 ar  
    27   12   34 1   
    28   14   15 1   
    29   14   18 2   
    30   14   35 1   
    31   15   16 2   
    32   15   20 1   
    33   16   17 1   
    34   16   36 1   
    35   17   18 1   
    36   17   19 1   
    37   19   26 1   
    38   19   27 1   
    39   20   23 1   
@<TRIPOS>SUBSTRUCTURE
     1 JH5         1 TEMP              0 ****  ****    0 ROOT
