@<TRIPOS>MOLECULE
JHG
   70    66     1     0     0
SMALL
bcc


@<TRIPOS>ATOM
      1 C1         -0.3500   -1.2080    1.3150 c3        1 JHG     -0.057000
      2 C2          0.2000   -1.5000    0.1750 c3        1 JHG      0.003000
      3 N3         -1.4250   -2.1510    1.6130 n3        1 JHG     -0.302000
      4 C4         -1.8660   -1.9610    2.9640 c3        1 JHG     -0.041000
      5 C5         -2.7600   -3.1790    3.4000 c2        1 JHG     -0.057000
      6 C6         -2.4280   -4.4730    2.9870 c2        1 JHG     -0.115000
      7 C7         -3.1750   -5.5540    3.4290 c1        1 JHG     -0.089000
      8 C8         -4.2550   -5.3510    4.2820 c1        1 JHG     -0.161000
      9 C9         -5.0530   -6.5460    4.8020 c3        1 JHG      0.466000
     10 F10        -5.2410   -6.4180    6.1630 f         1 JHG     -0.166333
     11 F11        -6.2040   -6.5870    4.2100 f         1 JHG     -0.166333
     12 F12        -4.3680   -7.6950    4.5440 f         1 JHG     -0.166333
     13 C13        -4.5860   -4.0630    4.6920 c1        1 JHG     -0.080000
     14 C14        -3.8370   -2.9770    4.2500 c1        1 JHG     -0.127000
     15 C15         0.8580   -1.3370    2.4560 c3        1 JHG     -0.087000
     16 N16         1.6010   -2.3740    2.0990 n3        1 JHG     -0.269000
     17 C17         1.4310   -2.4760    0.5440 c3        1 JHG     -0.105000
     18 N18         0.6950   -0.2730   -0.4820 n3        1 JHG     -0.813000
     19 C19         0.0610    1.0740   -0.1610 c3        1 JHG     -0.019000
     20 C20         1.1830    2.1030    0.2050 c3        1 JHG     -0.170000
     21 C21         0.6820    3.5520   -0.0970 c3        1 JHG     -0.122000
     22 C22         1.8470    4.5570    0.0880 c2        1 JHG     -0.075000
     23 C23         2.7950    4.7250   -0.9350 c2        1 JHG     -0.125000
     24 C24         3.7960    5.7170   -0.8160 c1        1 JHG     -0.126000
     25 C25         3.8430    6.5330    0.3230 c1        1 JHG     -0.128500
     26 C26         2.8970    6.3670    1.3480 c1        1 JHG     -0.128500
     27 C27         1.8960    5.3770    1.2310 c1        1 JHG     -0.126000
     28 S28         1.8700   -0.3860   -1.6880 s4        1 JHG      2.051800
     29 O29         3.1260    0.1820   -1.2520 o         1 JHG     -0.531400
     30 O30         2.2500   -1.7780   -1.9230 o         1 JHG     -0.531400
     31 C31         1.2880    0.4140   -3.2290 c1        1 JHG     -0.805000
     32 C32         0.9730   -0.3700   -4.3500 c2        1 JHG     -0.033000
     33 C33         0.6220    0.2450   -5.5590 c1        1 JHG     -0.133000
     34 C34         0.5870    1.6250   -5.6500 c1        1 JHG     -0.058000
     35 C35         0.2840    2.2880   -6.9800 c2        1 JHG      0.336000
     36 N36         0.0390    1.4930   -8.1270 n         1 JHG     -0.425000
     37 O37         0.3340    3.5010   -7.0800 o         1 JHG     -0.362000
     38 C38         0.9030    2.4150   -4.5250 c1        1 JHG     -0.107000
     39 C39         1.2530    1.8040   -3.3190 c1        1 JHG     -0.029000
     40 H1         -0.7050   -0.2760    1.2950 h1        1 JHG      0.080000
     41 H2         -0.4230   -1.9520   -0.3900 h1        1 JHG      0.112000
     42 HN3        -2.1360   -2.0020    1.0330 hn        1 JHG      0.162000
     43 H4         -2.3940   -1.1290    3.0220 h1        1 JHG      0.083500
     44 H4A        -1.0760   -1.8980    3.5660 h1        1 JHG      0.083500
     45 H6         -1.6610   -4.6160    2.3830 ha        1 JHG      0.153000
     46 H7         -2.9420   -6.4700    3.1370 ha        1 JHG      0.152000
     47 H13        -5.3060   -3.9300    5.2610 ha        1 JHG      0.157000
     48 H14        -4.0750   -2.0460    4.5480 ha        1 JHG      0.145000
     49 H15         0.4700   -1.4880    3.3380 h1        1 JHG      0.095000
     50 H15A        1.4200   -0.4920    2.4620 h1        1 JHG      0.095000
     51 HN16        1.2710   -3.1420    2.4980 hn        1 JHG      0.151000
     52 H17         2.2400   -2.1790    0.1000 h1        1 JHG      0.106000
     53 H17A        1.2100   -3.4500    0.2720 h1        1 JHG      0.106000
     54 H19        -0.5730    0.9740    0.6250 h1        1 JHG      0.088000
     55 H19A       -0.4410    1.3980   -0.9490 h1        1 JHG      0.088000
     56 H20         1.3960    2.0240    1.1550 hc        1 JHG      0.098500
     57 H20A        1.9950    1.9120   -0.3340 hc        1 JHG      0.098500
     58 H21         0.3590    3.5980   -1.0140 hc        1 JHG      0.088500
     59 H21A       -0.0500    3.7800    0.5220 hc        1 JHG      0.088500
     60 H23         2.7600    4.1530   -1.7360 ha        1 JHG      0.134000
     61 H24         4.4730    5.8380   -1.5470 ha        1 JHG      0.133000
     62 H25         4.5540    7.2350    0.4060 ha        1 JHG      0.131500
     63 H26         2.9340    6.9730    2.1930 ha        1 JHG      0.131500
     64 H27         1.2060    5.2570    1.9770 ha        1 JHG      0.129000
     65 H32         0.9970   -1.3020   -4.2910 ha        1 JHG      0.156000
     66 H33         0.3950   -0.3200   -6.3670 ha        1 JHG      0.147000
     67 HN36       -0.3180    1.8590   -8.8490 hn        1 JHG      0.232000
     68 HN3A        0.3050    0.6030   -8.1410 hn        1 JHG      0.232000
     69 H38         0.8770    3.4160   -4.5910 ha        1 JHG      0.165000
     70 H39         1.4750    2.3570   -2.5310 ha        1 JHG      0.162000
@<TRIPOS>BOND
     1    1    2 1   
     2    1    3 1   
     3    1   15 1   
     4    1   40 1   
     5    2   17 1   
     6    2   18 1   
     7    2   41 1   
     8    3    4 1   
     9    3   42 1   
    10    4    5 1   
    11    4   43 1   
    12    4   44 1   
    13    5    6 1   
    14    5   14 1   
    15    6    7 1   
    16    6   45 1   
    17    7   46 1   
    18    8    9 1   
    19    8   13 1   
    20    9   10 1   
    21    9   11 1   
    22    9   12 1   
    23   13   47 1   
    24   14   48 1   
    25   15   16 1   
    26   15   49 1   
    27   15   50 1   
    28   16   17 1   
    29   16   51 1   
    30   17   52 1   
    31   17   53 1   
    32   18   19 1   
    33   18   28 1   
    34   19   20 1   
    35   19   54 1   
    36   19   55 1   
    37   20   21 1   
    38   20   56 1   
    39   20   57 1   
    40   21   22 1   
    41   21   58 1   
    42   21   59 1   
    43   22   23 1   
    44   22   27 1   
    45   23   24 1   
    46   23   60 1   
    47   24   61 1   
    48   25   26 1   
    49   25   62 1   
    50   26   63 1   
    51   27   64 1   
    52   28   29 1   
    53   28   30 1   
    54   31   32 1   
    55   31   39 1   
    56   32   33 1   
    57   32   65 1   
    58   33   66 1   
    59   34   35 1   
    60   34   38 1   
    61   35   36 1   
    62   35   37 1   
    63   36   67 1   
    64   36   68 1   
    65   38   69 1   
    66   39   70 1   
@<TRIPOS>SUBSTRUCTURE
     1 JHG         1 TEMP              0 ****  ****    0 ROOT
