@<TRIPOS>MOLECULE
JHG
   70    73     1     0     0
SMALL
bcc


@<TRIPOS>ATOM
      1 C1         -0.3800   -2.0090   -0.4240 c3        1 JHG      0.127500
      2 C2         -1.3580   -1.7420    0.7830 c3        1 JHG      0.201500
      3 N3          0.9840   -1.6130   -0.1220 n3        1 JHG     -0.814200
      4 C4          1.8840   -1.7680   -1.2510 c3        1 JHG      0.201100
      5 C5          3.2730   -1.2790   -0.9610 ca        1 JHG     -0.065300
      6 C6          3.9790   -1.7750    0.1410 ca        1 JHG     -0.121500
      7 C7          5.2790   -1.3410    0.3930 ca        1 JHG     -0.086000
      8 C8          5.8750   -0.4100   -0.4600 ca        1 JHG     -0.170300
      9 C9          7.3000    0.0570   -0.1950 c3        1 JHG      0.687200
     10 F10         8.2650   -0.6740   -0.8450 f         1 JHG     -0.237633
     11 F11         7.5550    1.3550   -0.5720 f         1 JHG     -0.237633
     12 F12         7.6810    0.0140    1.1250 f         1 JHG     -0.237633
     13 C13         5.1780    0.0880   -1.5630 ca        1 JHG     -0.086000
     14 C14         3.8770   -0.3460   -1.8100 ca        1 JHG     -0.121500
     15 C15        -0.5320   -3.5380   -0.6950 c3        1 JHG      0.143800
     16 N16        -1.8150   -3.9780   -0.1690 n3        1 JHG     -0.785200
     17 C17        -2.1880   -3.0640    0.9000 c3        1 JHG      0.136800
     18 N18        -2.1380   -0.5370    0.6580 n3        1 JHG     -0.803500
     19 C19        -3.0920   -0.4570   -0.4210 c3        1 JHG      0.223800
     20 C20        -4.5650   -0.5080   -0.0040 c3        1 JHG     -0.112400
     21 C21        -5.4430   -0.4030   -1.2360 c3        1 JHG     -0.031100
     22 C22        -6.8890   -0.4340   -0.8840 ca        1 JHG     -0.083300
     23 C23        -7.4600    0.6210   -0.1610 ca        1 JHG     -0.125000
     24 C24        -8.8160    0.6010    0.1580 ca        1 JHG     -0.127500
     25 C25        -9.6140   -0.4710   -0.2420 ca        1 JHG     -0.130000
     26 C26        -9.0510   -1.5240   -0.9630 ca        1 JHG     -0.127500
     27 C27        -7.6940   -1.5060   -1.2830 ca        1 JHG     -0.125000
     28 S28        -1.9290    0.7160    1.6880 sy        1 JHG      1.499200
     29 O29        -3.0590    1.5580    1.6620 o         1 JHG     -0.645300
     30 O30        -1.5140    0.2440    2.9510 o         1 JHG     -0.645300
     31 C31        -0.6290    1.5640    0.9960 ca        1 JHG     -0.358500
     32 C32        -0.8420    2.4570   -0.0590 ca        1 JHG     -0.031500
     33 C33         0.2150    3.1780   -0.6110 ca        1 JHG     -0.121500
     34 C34         1.5060    3.0190   -0.0940 ca        1 JHG     -0.080600
     35 C35         2.6250    3.7790   -0.7290 c         1 JHG      0.662700
     36 N36         3.5470    4.3720    0.0940 n         1 JHG     -0.665000
     37 O37         2.7220    3.8800   -1.9690 o         1 JHG     -0.603100
     38 C38         1.7310    2.1400    0.9690 ca        1 JHG     -0.121500
     39 C39         0.6670    1.4170    1.5040 ca        1 JHG     -0.031500
     40 H1         -0.7600   -1.4660   -1.3430 h1        1 JHG      0.025700
     41 H2         -0.7560   -1.6490    1.7390 h1        1 JHG      0.094700
     42 HN3         0.9980   -0.6650    0.2120 hn        1 JHG      0.365800
     43 H4          1.9390   -2.8720   -1.4880 h1        1 JHG      0.044700
     44 H4A         1.4960   -1.2480   -2.1780 h1        1 JHG      0.044700
     45 H6          3.5030   -2.5080    0.8110 ha        1 JHG      0.152500
     46 H7          5.8370   -1.7270    1.2610 ha        1 JHG      0.154500
     47 H13         5.6540    0.8270   -2.2280 ha        1 JHG      0.154500
     48 H14         3.3280    0.0540   -2.6780 ha        1 JHG      0.152500
     49 H15        -0.4430   -3.7480   -1.7920 h1        1 JHG      0.062700
     50 H15A        0.2690   -4.1170   -0.1570 h1        1 JHG      0.062700
     51 HN16       -2.5100   -3.9640   -0.8940 hn        1 JHG      0.347800
     52 H17        -1.9160   -3.5560    1.8750 h1        1 JHG      0.067200
     53 H17A       -3.2920   -2.8710    0.9060 h1        1 JHG      0.067200
     54 H19        -2.9160    0.5150   -0.9730 h1        1 JHG      0.044700
     55 H19A       -2.9050   -1.2960   -1.1510 h1        1 JHG      0.044700
     56 H20        -4.7870   -1.4640    0.5360 hc        1 JHG      0.068700
     57 H20A       -4.8000    0.3380    0.6970 hc        1 JHG      0.068700
     58 H21        -5.2180    0.5590   -1.7730 hc        1 JHG      0.045700
     59 H21A       -5.2010   -1.2410   -1.9430 hc        1 JHG      0.045700
     60 H23        -6.8310    1.4670    0.1570 ha        1 JHG      0.133500
     61 H24        -9.2570    1.4320    0.7280 ha        1 JHG      0.132000
     62 H25       -10.6840   -0.4860    0.0110 ha        1 JHG      0.132000
     63 H26        -9.6770   -2.3710   -1.2800 ha        1 JHG      0.132000
     64 H27        -7.2560   -2.3400   -1.8520 ha        1 JHG      0.133500
     65 H32        -1.8640    2.6030   -0.4490 ha        1 JHG      0.160000
     66 H33         0.0480    3.8650   -1.4550 ha        1 JHG      0.156000
     67 HN36        3.4660    4.3200    1.0760 hn        1 JHG      0.319000
     68 HN3A        4.2940    4.8870   -0.3020 hn        1 JHG      0.319000
     69 H38         2.7440    2.0020    1.3790 ha        1 JHG      0.156000
     70 H39         0.8410    0.7290    2.3510 ha        1 JHG      0.160000
@<TRIPOS>BOND
     1    1    2 1   
     2    1    3 1   
     3    1   15 1   
     4    1   40 1   
     5    2   17 1   
     6    2   18 1   
     7    2   41 1   
     8    3    4 1   
     9    3   42 1   
    10    4    5 1   
    11    4   43 1   
    12    4   44 1   
    13    5    6 ar  
    14    5   14 ar  
    15    6    7 ar  
    16    6   45 1   
    17    7    8 ar  
    18    7   46 1   
    19    8    9 1   
    20    8   13 ar  
    21    9   10 1   
    22    9   11 1   
    23    9   12 1   
    24   13   14 ar  
    25   13   47 1   
    26   14   48 1   
    27   15   16 1   
    28   15   49 1   
    29   15   50 1   
    30   16   17 1   
    31   16   51 1   
    32   17   52 1   
    33   17   53 1   
    34   18   19 1   
    35   18   28 1   
    36   19   20 1   
    37   19   54 1   
    38   19   55 1   
    39   20   21 1   
    40   20   56 1   
    41   20   57 1   
    42   21   22 1   
    43   21   58 1   
    44   21   59 1   
    45   22   23 ar  
    46   22   27 ar  
    47   23   24 ar  
    48   23   60 1   
    49   24   25 ar  
    50   24   61 1   
    51   25   26 ar  
    52   25   62 1   
    53   26   27 ar  
    54   26   63 1   
    55   27   64 1   
    56   28   29 2   
    57   28   30 2   
    58   28   31 1   
    59   31   32 ar  
    60   31   39 ar  
    61   32   33 ar  
    62   32   65 1   
    63   33   34 ar  
    64   33   66 1   
    65   34   35 1   
    66   34   38 ar  
    67   35   36 1   
    68   35   37 2   
    69   36   67 1   
    70   36   68 1   
    71   38   39 ar  
    72   38   69 1   
    73   39   70 1   
@<TRIPOS>SUBSTRUCTURE
     1 JHG         1 TEMP              0 ****  ****    0 ROOT
