@<TRIPOS>MOLECULE
JHG
   73    75     1     0     0
SMALL
bcc


@<TRIPOS>ATOM
      1 C1         -0.2870   -0.9460    0.3920 c3        1 JHG      0.100500
      2 C2          1.2820   -0.8570    0.3170 c3        1 JHG      0.114500
      3 N3         -0.8200   -2.2030   -0.2150 ny        1 JHG     -0.773000
      4 C4         -2.3330   -2.2460   -0.2280 c3        1 JHG      0.184100
      5 C5         -2.8080   -3.5890   -0.6580 ca        1 JHG     -0.190300
      6 C6         -3.0700   -4.5770    0.3000 ca        1 JHG     -0.103000
      7 C7         -3.5690   -5.8170   -0.0970 ca        1 JHG     -0.068000
      8 C8         -3.8040   -6.0660   -1.4510 ca        1 JHG     -0.107300
      9 C9         -4.3650   -7.4260   -1.8930 c3        1 JHG      0.687200
     10 F10        -5.7330   -7.4460   -1.9680 f         1 JHG     -0.209633
     11 F11        -3.9290   -7.8160   -3.1330 f         1 JHG     -0.209633
     12 F12        -4.0300   -8.4560   -1.0540 f         1 JHG     -0.209633
     13 C13        -3.5510   -5.0820   -2.4110 ca        1 JHG     -0.068000
     14 C14        -3.0510   -3.8430   -2.0140 ca        1 JHG     -0.103000
     15 C15        -0.6280   -0.8120    1.9130 c3        1 JHG      0.150800
     16 N16         0.5870   -0.4050    2.5910 n7        1 JHG     -0.826200
     17 C17         1.7270   -0.8520    1.8160 c3        1 JHG      0.143800
     18 N18         1.8050    0.2840   -0.4620 n7        1 JHG     -0.922200
     19 C19         1.1950    1.5910   -0.1570 c3        1 JHG      0.104800
     20 C20         2.2120    2.7130    0.0480 c3        1 JHG     -0.098400
     21 C21         1.4910    4.0420    0.1920 c3        1 JHG     -0.019100
     22 C22         2.4540    5.1480    0.4460 ca        1 JHG     -0.119300
     23 C23         3.3920    5.5110   -0.5280 ca        1 JHG     -0.125500
     24 C24         4.2810    6.5560   -0.2950 ca        1 JHG     -0.112500
     25 C25         4.2390    7.2540    0.9140 ca        1 JHG     -0.094000
     26 C26         3.3040    6.9000    1.8870 ca        1 JHG     -0.112500
     27 C27         2.4140    5.8500    1.6560 ca        1 JHG     -0.125500
     28 S28         1.7990   -0.2360   -2.6550 s4        1 JHG      1.632300
     29 O29         2.9350   -0.9750   -2.5640 o         1 JHG     -0.434400
     30 O30         0.5470   -0.7830   -2.5780 o         1 JHG     -0.434400
     31 C31         1.9330    1.1720   -3.4110 ca        1 JHG     -0.500500
     32 C32         3.2070    1.6610   -3.7840 ca        1 JHG      0.031500
     33 C33         3.3490    2.8380   -4.5180 ca        1 JHG     -0.092500
     34 C34         2.2120    3.5630   -4.8900 ca        1 JHG     -0.056600
     35 C35         2.2970    4.8710   -5.5840 c         1 JHG      0.534700
     36 N36         3.1780    4.9600   -6.8030 nz        1 JHG     -0.751400
     37 O37         1.7100    5.8930   -5.2760 o         1 JHG     -0.318100
     38 C38         0.9360    3.1070   -4.5260 ca        1 JHG     -0.092500
     39 C39         0.8050    1.9270   -3.7970 ca        1 JHG      0.031500
     40 H1         -0.7740   -0.0970   -0.1710 hx        1 JHG      0.112700
     41 H2          1.7210   -1.7760   -0.1760 h1        1 JHG      0.087700
     42 HN3        -0.4860   -2.2840   -1.1840 hn        1 JHG      0.457800
     43 H4         -2.6860   -1.4430   -0.9360 hx        1 JHG      0.111200
     44 H4A        -2.6950   -2.0050    0.8140 hx        1 JHG      0.111200
     45 H6         -2.9090   -4.3780    1.3720 ha        1 JHG      0.143500
     46 H7         -3.7840   -6.6000    0.6540 ha        1 JHG      0.188500
     47 H13        -3.7520   -5.2910   -3.4770 ha        1 JHG      0.188500
     48 H14        -2.8750   -3.0630   -2.7700 ha        1 JHG      0.143500
     49 H15        -1.0620   -1.7700    2.3210 h1        1 JHG      0.086200
     50 H15A       -1.3950    0.0020    2.0540 h1        1 JHG      0.086200
     51 HN16        0.6210   -0.6900    3.5530 hn        1 JHG      0.437800
     52 H17         2.0780   -1.8920    2.0760 h1        1 JHG      0.088700
     53 H17A        2.5810   -0.1450    2.0140 h1        1 JHG      0.088700
     54 H19         0.5170    1.8410   -1.0240 h1        1 JHG      0.080200
     55 H19A        0.5580    1.5360    0.7750 h1        1 JHG      0.080200
     56 H20         2.9260    2.7660   -0.8150 hc        1 JHG      0.062200
     57 H20A        2.8140    2.5170    0.9760 hc        1 JHG      0.062200
     58 H21         0.7510    3.9770    1.0350 hc        1 JHG      0.052200
     59 H21A        0.9110    4.2590   -0.7450 hc        1 JHG      0.052200
     60 H23         3.4230    4.9680   -1.4830 ha        1 JHG      0.113000
     61 H24         5.0190    6.8380   -1.0610 ha        1 JHG      0.150500
     62 H25         4.9410    8.0830    1.0980 ha        1 JHG      0.163000
     63 H26         3.2650    7.4520    2.8400 ha        1 JHG      0.150500
     64 H27         1.6770    5.5830    2.4290 ha        1 JHG      0.113000
     65 H32         4.1210    1.0950   -3.5020 ha        1 JHG      0.197500
     66 H33         4.3680    3.1860   -4.7660 ha        1 JHG      0.197500
     67 HN36        2.8200    4.3490   -7.5490 hn        1 JHG      0.489467
     68 HN3A        4.1410    4.6840   -6.5810 hn        1 JHG      0.489467
     69 H38         0.0320    3.6860   -4.8010 ha        1 JHG      0.197500
     70 H39        -0.2120    1.5780   -3.5270 ha        1 JHG      0.197500
     71 H321       -0.4790   -3.0180    0.3120 hn        1 JHG      0.457800
     72 H181        2.7980    0.3370   -0.2360 hn        1 JHG      0.431800
     73 H363        3.1850    5.9340   -7.1540 hn        1 JHG      0.489467
@<TRIPOS>BOND
     1    1    2 1   
     2    1    3 1   
     3    1   15 1   
     4    1   40 1   
     5    2   17 1   
     6    2   18 1   
     7    2   41 1   
     8    3    4 1   
     9    3   42 1   
    10    3   71 1   
    11    4    5 1   
    12    4   43 1   
    13    4   44 1   
    14    5    6 ar  
    15    5   14 ar  
    16    6    7 ar  
    17    6   45 1   
    18    7    8 ar  
    19    7   46 1   
    20    8    9 1   
    21    8   13 ar  
    22    9   10 1   
    23    9   11 1   
    24    9   12 1   
    25   13   14 ar  
    26   13   47 1   
    27   14   48 1   
    28   15   16 1   
    29   15   49 1   
    30   15   50 1   
    31   16   17 1   
    32   16   51 1   
    33   17   52 1   
    34   17   53 1   
    35   18   19 1   
    36   18   72 1   
    37   19   20 1   
    38   19   54 1   
    39   19   55 1   
    40   20   21 1   
    41   20   56 1   
    42   20   57 1   
    43   21   22 1   
    44   21   58 1   
    45   21   59 1   
    46   22   23 ar  
    47   22   27 ar  
    48   23   24 ar  
    49   23   60 1   
    50   24   25 ar  
    51   24   61 1   
    52   25   26 ar  
    53   25   62 1   
    54   26   27 ar  
    55   26   63 1   
    56   27   64 1   
    57   28   29 1   
    58   28   30 1   
    59   28   31 1   
    60   31   32 ar  
    61   31   39 ar  
    62   32   33 ar  
    63   32   65 1   
    64   33   34 ar  
    65   33   66 1   
    66   34   35 1   
    67   34   38 ar  
    68   35   36 1   
    69   35   37 2   
    70   36   67 1   
    71   36   68 1   
    72   36   73 1   
    73   38   39 ar  
    74   38   69 1   
    75   39   70 1   
@<TRIPOS>SUBSTRUCTURE
     1 JHG         1 TEMP              0 ****  ****    0 ROOT
