@<TRIPOS>MOLECULE
JHG
   73    75     1     0     0
SMALL
bcc


@<TRIPOS>ATOM
      1 C1        -96.5310 -147.2530  157.5320 c3        1 JHG      0.070500
      2 C2        -95.4150 -146.6070  156.6300 c3        1 JHG      0.148500
      3 N3        -96.1270 -148.5990  158.0260 n4        1 JHG     -0.751000
      4 C4        -97.2510 -149.3220  158.7060 c3        1 JHG      0.166100
      5 C5        -96.8030 -150.6460  159.2260 ca        1 JHG     -0.162300
      6 C6        -96.4820 -150.7940  160.5800 ca        1 JHG     -0.107000
      7 C7        -96.1010 -152.0420  161.0720 ca        1 JHG     -0.071500
      8 C8        -96.0400 -153.1360  160.2070 ca        1 JHG     -0.124300
      9 C9        -95.6360 -154.5100  160.7490 c3        1 JHG      0.686200
     10 F10       -94.7760 -154.4560  161.8170 f         1 JHG     -0.219300
     11 F11       -96.6970 -155.2590  161.1900 f         1 JHG     -0.219300
     12 F12       -95.0010 -155.3060  159.8290 f         1 JHG     -0.219300
     13 C13       -96.3620 -152.9950  158.8550 ca        1 JHG     -0.071500
     14 C14       -96.7450 -151.7480  158.3640 ca        1 JHG     -0.107000
     15 C15       -96.7880 -146.1880  158.6370 c3        1 JHG      0.148800
     16 N16       -96.3120 -144.9040  158.1440 n3        1 JHG     -0.789200
     17 C17       -95.7050 -145.0900  156.8330 c3        1 JHG      0.120800
     18 N18       -95.3950 -147.1850  155.3140 n3        1 JHG     -0.846200
     19 C19       -96.4170 -146.7730  154.3710 c3        1 JHG      0.149800
     20 C20       -96.0360 -145.6350  153.4250 c3        1 JHG     -0.110400
     21 C21       -97.1870 -145.3280  152.4850 c3        1 JHG     -0.028100
     22 C22       -96.8310 -144.2400  151.5340 ca        1 JHG     -0.098300
     23 C23       -97.3560 -142.9530  151.7000 ca        1 JHG     -0.126000
     24 C24       -97.0280 -141.9400  150.7990 ca        1 JHG     -0.123000
     25 C25       -96.1760 -142.2050  149.7270 ca        1 JHG     -0.120000
     26 C26       -95.6520 -143.4870  149.5560 ca        1 JHG     -0.123000
     27 C27       -95.9780 -144.5000  150.4550 ca        1 JHG     -0.126000
     28 S28       272.8540  423.0910 -448.0960 s4        1 JHG      1.648300
     29 O29       271.8500  422.2260 -447.8860 o         1 JHG     -0.341400
     30 O30       272.7430  424.3970 -448.3850 o         1 JHG     -0.341400
     31 C31       274.3260  422.5050 -448.0010 ca        1 JHG     -0.549500
     32 C32       274.5540  421.1410 -447.6930 ca        1 JHG      0.048000
     33 C33       275.8430  420.6270 -447.5850 ca        1 JHG     -0.099500
     34 C34       276.9430  421.4720 -447.7790 ca        1 JHG     -0.051600
     35 C35       278.3370  421.0110 -447.5730 c         1 JHG      0.536700
     36 N36       278.7410  419.7140 -448.2270 n4        1 JHG     -0.753400
     37 O37       279.2080  421.5780 -446.9380 o         1 JHG     -0.320100
     38 C38       276.7510  422.8250 -448.0900 ca        1 JHG     -0.099500
     39 C39       275.4570  423.3310 -448.2010 ca        1 JHG      0.048000
     40 H1        -97.4780 -147.3960  156.9320 hx        1 JHG      0.121700
     41 H2        -94.4060 -146.8200  157.0990 h1        1 JHG      0.060700
     42 HN3       -95.3410 -148.5080  158.6790 hn        1 JHG      0.454800
     43 H4        -97.6250 -148.6610  159.5420 hx        1 JHG      0.111200
     44 H4A       -98.0820 -149.4530  157.9530 hx        1 JHG      0.111200
     45 H6        -96.5430 -149.9360  161.2680 ha        1 JHG      0.149000
     46 H7        -95.8490 -152.1680  162.1400 ha        1 JHG      0.178000
     47 H13       -96.3140 -153.8690  158.1820 ha        1 JHG      0.178000
     48 H14       -97.0170 -151.6420  157.3030 ha        1 JHG      0.149000
     49 H15       -97.8970 -146.0970  158.8110 h1        1 JHG      0.067200
     50 H15A      -96.3080 -146.4780  159.6120 h1        1 JHG      0.067200
     51 HN16      -95.6760 -144.4790  158.7920 hn        1 JHG      0.383800
     52 H17       -94.7590 -144.4970  156.7190 h1        1 JHG      0.085200
     53 H17A      -96.4430 -144.7230  156.0650 h1        1 JHG      0.085200
     54 H19       -96.6460 -147.6880  153.7500 h1        1 JHG      0.057200
     55 H19A      -97.3580 -146.4910  154.9220 h1        1 JHG      0.057200
     56 H20       -95.7710 -144.7140  154.0070 hc        1 JHG      0.054200
     57 H20A      -95.1320 -145.9210  152.8230 hc        1 JHG      0.054200
     58 H21       -97.4540 -146.2550  151.9080 hc        1 JHG      0.050200
     59 H21A      -98.0910 -145.0370  153.0830 hc        1 JHG      0.050200
     60 H23       -98.0340 -142.7400  152.5390 ha        1 JHG      0.128500
     61 H24       -97.4470 -140.9320  150.9330 ha        1 JHG      0.139000
     62 H25       -95.9200 -141.4060  149.0160 ha        1 JHG      0.141000
     63 H26       -94.9840 -143.6990  148.7080 ha        1 JHG      0.139000
     64 H27       -95.5700 -145.5120  150.3140 ha        1 JHG      0.128500
     65 H32       273.6900  420.4630 -447.5260 ha        1 JHG      0.209500
     66 H33       275.9670  419.5640 -447.3120 ha        1 JHG      0.197000
     67 HN36      279.7210  419.4910 -447.9780 hn        1 JHG      0.487467
     68 HN3A      278.6760  419.7940 -449.2500 hn        1 JHG      0.487467
     69 H38       277.6170  423.5040 -448.2280 ha        1 JHG      0.197000
     70 H39       275.3230  424.4090 -448.4420 ha        1 JHG      0.209500
     71 H321      -95.8060 -149.1540  157.2200 hn        1 JHG      0.454800
     72 H181      -94.4830 -147.0860  154.9050 hn        1 JHG      0.396800
     73 H363      278.1390  418.9440 -447.9140 hn        1 JHG      0.487467
@<TRIPOS>BOND
     1    1    2 1   
     2    1    3 1   
     3    1   15 1   
     4    1   40 1   
     5    2   17 1   
     6    2   18 1   
     7    2   41 1   
     8    3    4 1   
     9    3   42 1   
    10    3   71 1   
    11    4    5 1   
    12    4   43 1   
    13    4   44 1   
    14    5    6 ar  
    15    5   14 ar  
    16    6    7 ar  
    17    6   45 1   
    18    7    8 ar  
    19    7   46 1   
    20    8    9 1   
    21    8   13 ar  
    22    9   10 1   
    23    9   11 1   
    24    9   12 1   
    25   13   14 ar  
    26   13   47 1   
    27   14   48 1   
    28   15   16 1   
    29   15   49 1   
    30   15   50 1   
    31   16   17 1   
    32   16   51 1   
    33   17   52 1   
    34   17   53 1   
    35   18   19 1   
    36   18   72 1   
    37   19   20 1   
    38   19   54 1   
    39   19   55 1   
    40   20   21 1   
    41   20   56 1   
    42   20   57 1   
    43   21   22 1   
    44   21   58 1   
    45   21   59 1   
    46   22   23 ar  
    47   22   27 ar  
    48   23   24 ar  
    49   23   60 1   
    50   24   25 ar  
    51   24   61 1   
    52   25   26 ar  
    53   25   62 1   
    54   26   27 ar  
    55   26   63 1   
    56   27   64 1   
    57   28   29 1   
    58   28   30 1   
    59   28   31 1   
    60   31   32 ar  
    61   31   39 ar  
    62   32   33 ar  
    63   32   65 1   
    64   33   34 ar  
    65   33   66 1   
    66   34   35 1   
    67   34   38 ar  
    68   35   36 1   
    69   35   37 2   
    70   36   67 1   
    71   36   68 1   
    72   36   73 1   
    73   38   39 ar  
    74   38   69 1   
    75   39   70 1   
@<TRIPOS>SUBSTRUCTURE
     1 JHG         1 TEMP              0 ****  ****    0 ROOT
