@<TRIPOS>MOLECULE
JHM
   26    26     1     0     0
SMALL
bcc


@<TRIPOS>ATOM
      1 S           0.8250   -0.3340   -0.4500 s6        1 JHM      1.709300
      2 C1          4.9410    1.4090   -0.5030 c3        1 JHM      0.351900
      3 O1          5.0260    0.0370   -0.7910 oh        1 JHM     -0.669800
      4 C2          6.0530    1.7950    0.4760 c3        1 JHM     -0.136400
      5 C3          5.7550    1.3080    1.8870 c3        1 JHM      0.098100
      6 O3          6.6050    1.9420    2.8390 oh        1 JHM     -0.621800
      7 C4          4.3090    1.6510    2.3010 c3        1 JHM      0.126100
      8 O4          4.0100    1.0890    3.5660 oh        1 JHM     -0.586800
      9 C5          3.3670    1.0390    1.2520 c3        1 JHM      0.093100
     10 O5          3.6500    1.6760    0.0000 os        1 JHM     -0.429600
     11 C6          1.8710    1.2780    1.5210 c3        1 JHM      0.230400
     12 O6          1.1280    0.1600    1.1840 os        1 JHM     -0.608500
     13 O7         -0.0450   -1.3990   -0.2490 o         1 JHM     -0.756533
     14 O8          0.2800    0.8140   -1.0170 o         1 JHM     -0.756533
     15 O9          2.1090   -0.6750   -0.8910 o         1 JHM     -0.756533
     16 H1          5.0090    2.0190   -1.4500 h2        1 JHM      0.054700
     17 H2A         7.0190    1.3570    0.1210 hc        1 JHM      0.050200
     18 H3          5.8970    0.1920    1.9450 h1        1 JHM      0.061700
     19 HO3         7.5090    1.7380    2.5780 ho        1 JHM      0.396000
     20 H4          4.1840    2.7680    2.3430 h1        1 JHM      0.044700
     21 HO4         4.6990    1.4040    4.1660 ho        1 JHM      0.401000
     22 H5          3.5560   -0.0680    1.1690 h1        1 JHM      0.092700
     23 H6          1.5220    2.1770    0.9400 h1        1 JHM      0.036200
     24 H6A         1.7310    1.4510    2.6230 h1        1 JHM      0.036200
     25 HO1         4.1300   -0.2800   -1.0260 ho        1 JHM      0.488000
     26 H2          6.1460    2.9110    0.4810 hc        1 JHM      0.050200
@<TRIPOS>BOND
     1    1   12 1   
     2    1   13 1   
     3    1   14 1   
     4    1   15 1   
     5    2    3 1   
     6    2    4 1   
     7    2   10 1   
     8    2   16 1   
     9    3   25 1   
    10    4    5 1   
    11    4   17 1   
    12    4   26 1   
    13    5    6 1   
    14    5    7 1   
    15    5   18 1   
    16    6   19 1   
    17    7    8 1   
    18    7    9 1   
    19    7   20 1   
    20    8   21 1   
    21    9   10 1   
    22    9   11 1   
    23    9   22 1   
    24   11   12 1   
    25   11   23 1   
    26   11   24 1   
@<TRIPOS>SUBSTRUCTURE
     1 JHM         1 TEMP              0 ****  ****    0 ROOT
