@<TRIPOS>MOLECULE
JHM
   26    26     1     0     0
SMALL
bcc


@<TRIPOS>ATOM
      1 S          -2.5070    0.6160   -0.4290 s6        1 JHM      1.709300
      2 C1          1.7370    1.6310    0.5410 c3        1 JHM      0.351900
      3 O1          1.4210    2.1620   -0.7200 oh        1 JHM     -0.669800
      4 C2          3.1270    0.9900    0.4920 c3        1 JHM     -0.136400
      5 C3          3.1070   -0.3390   -0.2490 c3        1 JHM      0.098100
      6 O3          4.3020   -1.0790   -0.0100 oh        1 JHM     -0.621800
      7 C4          1.9430   -1.2300    0.2320 c3        1 JHM      0.126100
      8 O4          1.8680   -2.4090   -0.5470 oh        1 JHM     -0.586800
      9 C5          0.6420   -0.4320    0.0520 c3        1 JHM      0.093100
     10 O5          0.7240    0.7170    0.9030 os        1 JHM     -0.429600
     11 C6         -0.6320   -1.1850    0.4770 c3        1 JHM      0.230400
     12 O6         -1.6760   -0.9050   -0.3870 os        1 JHM     -0.608500
     13 O7         -3.5160    0.3430   -1.3450 o         1 JHM     -0.756533
     14 O8         -2.9000    0.7830    0.8950 o         1 JHM     -0.756533
     15 O9         -1.5010    1.4820   -0.8750 o         1 JHM     -0.756533
     16 H1          1.6920    2.4340    1.3330 h2        1 JHM      0.054700
     17 H2A         3.4750    0.8220    1.5430 hc        1 JHM      0.050200
     18 H3          2.9960   -0.1590   -1.3560 h1        1 JHM      0.061700
     19 HO3         5.0320   -0.5220   -0.3010 ho        1 JHM      0.396000
     20 H4          2.0970   -1.4990    1.3130 h1        1 JHM      0.044700
     21 HO4         2.7440   -2.8130   -0.5040 ho        1 JHM      0.401000
     22 H5          0.5390   -0.1070   -1.0210 h1        1 JHM      0.092700
     23 H6         -0.4310   -2.2890    0.4110 h1        1 JHM      0.036200
     24 H6A        -0.9030   -0.9020    1.5320 h1        1 JHM      0.036200
     25 HO1         0.4470    2.1610   -0.8150 ho        1 JHM      0.488000
     26 H2          3.8350    1.6930   -0.0120 hc        1 JHM      0.050200
@<TRIPOS>BOND
     1    1   12 1   
     2    1   13 1   
     3    1   14 1   
     4    1   15 1   
     5    2    3 1   
     6    2    4 1   
     7    2   10 1   
     8    2   16 1   
     9    3   25 1   
    10    4    5 1   
    11    4   17 1   
    12    4   26 1   
    13    5    6 1   
    14    5    7 1   
    15    5   18 1   
    16    6   19 1   
    17    7    8 1   
    18    7    9 1   
    19    7   20 1   
    20    8   21 1   
    21    9   10 1   
    22    9   11 1   
    23    9   22 1   
    24   11   12 1   
    25   11   23 1   
    26   11   24 1   
@<TRIPOS>SUBSTRUCTURE
     1 JHM         1 TEMP              0 ****  ****    0 ROOT
