@<TRIPOS>MOLECULE
JHM
   26    26     1     0     0
SMALL
bcc


@<TRIPOS>ATOM
      1 S           0.8310   -0.3700   -0.4280 s6        1 JHM      1.709300
      2 C1          4.9420    1.3840   -0.5080 c3        1 JHM      0.351900
      3 O1          5.0320    0.0080   -0.7710 oh        1 JHM     -0.669800
      4 C2          6.0510    1.7930    0.4650 c3        1 JHM     -0.136400
      5 C3          5.7530    1.3310    1.8840 c3        1 JHM      0.098100
      6 O3          6.5990    1.9850    2.8260 oh        1 JHM     -0.621800
      7 C4          4.3050    1.6770    2.2900 c3        1 JHM      0.126100
      8 O4          4.0060    1.1380    3.5650 oh        1 JHM     -0.586800
      9 C5          3.3660    1.0430    1.2510 c3        1 JHM      0.093100
     10 O5          3.6490    1.6570   -0.0110 os        1 JHM     -0.429600
     11 C6          1.8690    1.2820    1.5140 c3        1 JHM      0.230400
     12 O6          1.1310    0.1550    1.1960 os        1 JHM     -0.608500
     13 O7         -0.0360   -1.4340   -0.2090 o         1 JHM     -0.756533
     14 O8          0.2830    0.7660   -1.0180 o         1 JHM     -0.756533
     15 O9          2.1170   -0.7150   -0.8620 o         1 JHM     -0.756533
     16 H1          5.0090    1.9770   -1.4660 h2        1 JHM      0.054700
     17 H2A         7.0190    1.3510    0.1200 hc        1 JHM      0.050200
     18 H3          5.8980    0.2170    1.9640 h1        1 JHM      0.061700
     19 HO3         7.5040    1.7800    2.5700 ho        1 JHM      0.396000
     20 H4          4.1760    2.7940    2.3110 h1        1 JHM      0.044700
     21 HO4         4.6930    1.4660    4.1600 ho        1 JHM      0.401000
     22 H5          3.5590   -0.0650    1.1900 h1        1 JHM      0.092700
     23 H6          1.5180    2.1680    0.9160 h1        1 JHM      0.036200
     24 H6A         1.7270    1.4750    2.6120 h1        1 JHM      0.036200
     25 HO1         4.1370   -0.3160   -1.0010 ho        1 JHM      0.488000
     26 H2          6.1410    2.9090    0.4500 hc        1 JHM      0.050200
@<TRIPOS>BOND
     1    1   12 1   
     2    1   13 1   
     3    1   14 1   
     4    1   15 1   
     5    2    3 1   
     6    2    4 1   
     7    2   10 1   
     8    2   16 1   
     9    3   25 1   
    10    4    5 1   
    11    4   17 1   
    12    4   26 1   
    13    5    6 1   
    14    5    7 1   
    15    5   18 1   
    16    6   19 1   
    17    7    8 1   
    18    7    9 1   
    19    7   20 1   
    20    8   21 1   
    21    9   10 1   
    22    9   11 1   
    23    9   22 1   
    24   11   12 1   
    25   11   23 1   
    26   11   24 1   
@<TRIPOS>SUBSTRUCTURE
     1 JHM         1 TEMP              0 ****  ****    0 ROOT
