@<TRIPOS>MOLECULE
JHZ
   60    62     1     0     0
SMALL
bcc


@<TRIPOS>ATOM
      1 P          -1.0280    2.4250    0.6360 p5        1 JHZ      1.603800
      2 C1         -2.9060   -1.1000   -0.1810 c3        1 JHZ      0.399900
      3 O1         -1.5690   -1.3390   -0.3720 os        1 JHZ     -0.555200
      4 C2         -3.2770   -1.0890    1.3060 c3        1 JHZ     -0.111400
      5 P2         -0.7250   -0.1950   -1.2600 p5        1 JHZ      1.600800
      6 C3         -4.7880   -0.8430    1.4850 c3        1 JHZ      0.098200
      7 N3         -5.1860   -1.1180    2.8690 n3        1 JHZ     -0.877800
      8 C4         -5.5760   -1.7180    0.4860 c         1 JHZ      0.513100
      9 O4         -6.7380   -2.0750    0.7420 o         1 JHZ     -0.598100
     10 C5         -4.9410   -2.1580   -0.8250 c3        1 JHZ      0.070100
     11 O5         -3.5350   -2.2640   -0.7730 os        1 JHZ     -0.429600
     12 C6         -5.4070   -1.2690   -1.9670 c3        1 JHZ     -0.119100
     13 C1X         4.5170    1.2880    0.7870 c3        1 JHZ      0.301500
     14 N11         4.6990   -0.1450    0.5110 n         1 JHZ     -0.374000
     15 O1P        -2.3730    2.5350    1.2280 o         1 JHZ     -0.876500
     16 C2X         4.0770    2.1050   -0.4430 c3        1 JHZ     -0.120400
     17 C21         5.9120   -0.7470    0.9150 c         1 JHZ      0.800500
     18 O21         6.8770   -0.0890    1.3800 o         1 JHZ     -0.699500
     19 O2P        -0.2970    3.4930   -0.0820 o         1 JHZ     -0.876500
     20 C3X         2.6410    2.5510   -0.1470 c3        1 JHZ      0.139100
     21 O3X         2.5630    3.9480   -0.3390 oh        1 JHZ     -0.650800
     22 N31         6.0630   -2.1330    0.7510 n         1 JHZ     -0.596500
     23 C3M        -5.0930    0.6240    1.1220 c3        1 JHZ     -0.101100
     24 O3P         0.7060   -0.5600   -1.1540 o         1 JHZ     -0.872000
     25 C4X         2.3840    2.1730    1.3280 c3        1 JHZ      0.070100
     26 O4X         3.5540    1.4860    1.8210 os        1 JHZ     -0.429600
     27 C41         5.0490   -2.9590    0.2260 c         1 JHZ      0.715700
     28 O41         5.2990   -4.1780    0.1290 o         1 JHZ     -0.669500
     29 O4P        -1.4780   -0.0220   -2.5110 o         1 JHZ     -0.872000
     30 C5X         1.1580    1.2670    1.5360 c3        1 JHZ      0.172400
     31 O5X         0.0210    1.9990    1.8500 os        1 JHZ     -0.591200
     32 C51         3.8050   -2.2870   -0.1560 cc        1 JHZ     -0.273400
     33 C5A         2.7170   -3.1120   -0.7170 c3        1 JHZ     -0.043900
     34 C61         3.6700   -0.9360    0.0150 cd        1 JHZ      0.065600
     35 OPP        -0.9700    1.0760   -0.2810 os        1 JHZ     -0.832800
     36 H1         -3.2400   -0.1640   -0.7150 h2        1 JHZ      0.059700
     37 H2         -2.9750   -2.0700    1.7520 hc        1 JHZ      0.076200
     38 H2A        -2.7070   -0.2770    1.8260 hc        1 JHZ      0.076200
     39 HN3        -6.1830   -1.0340    2.9460 hn        1 JHZ      0.336800
     40 HN3A       -4.9250   -2.0540    3.1100 hn        1 JHZ      0.336800
     41 H5         -5.2780   -3.2200   -1.0280 h1        1 JHZ      0.061700
     42 H6         -5.0410   -0.2220   -1.8440 hc        1 JHZ      0.048033
     43 H6A        -4.9910   -1.6620   -2.9260 hc        1 JHZ      0.048033
     44 H6B        -6.5220   -1.2680   -2.0140 hc        1 JHZ      0.048033
     45 H1X         5.4950    1.6670    1.2110 h2        1 JHZ      0.095700
     46 H2X         4.7470    2.9940   -0.5490 hc        1 JHZ      0.064700
     47 H2XA        4.1170    1.5180   -1.3910 hc        1 JHZ      0.064700
     48 H3X         1.9220    2.0240   -0.8320 h1        1 JHZ      0.092700
     49 HO3X        1.6110    4.1690   -0.3510 ho        1 JHZ      0.478000
     50 HN31        6.9250   -2.5310    1.0450 hn        1 JHZ      0.326500
     51 H3M        -5.0530    0.7520    0.0150 hc        1 JHZ      0.062700
     52 H3MA       -6.1060    0.9230    1.4790 hc        1 JHZ      0.062700
     53 H3MB       -4.3160    1.3010    1.5730 hc        1 JHZ      0.062700
     54 H4X         2.2900    3.0980    1.9590 h1        1 JHZ      0.078700
     55 H5X         0.9800    0.6310    0.6200 h1        1 JHZ      0.050200
     56 H5XA        1.3760    0.5940    2.4140 h1        1 JHZ      0.050200
     57 H5A         3.0830   -3.6690   -1.6150 hc        1 JHZ      0.059700
     58 H5AA        2.3770   -3.8620    0.0390 hc        1 JHZ      0.059700
     59 H5AB        1.8460   -2.4660   -1.0100 hc        1 JHZ      0.059700
     60 H61         2.7110   -0.4140   -0.2570 h4        1 JHZ      0.261000
@<TRIPOS>BOND
     1    1   15 1   
     2    1   19 1   
     3    1   31 1   
     4    1   35 1   
     5    2    3 1   
     6    2    4 1   
     7    2   11 1   
     8    2   36 1   
     9    3    5 1   
    10    4    6 1   
    11    4   37 1   
    12    4   38 1   
    13    5   24 1   
    14    5   29 1   
    15    5   35 1   
    16    6    7 1   
    17    6    8 1   
    18    6   23 1   
    19    7   39 1   
    20    7   40 1   
    21    8    9 2   
    22    8   10 1   
    23   10   11 1   
    24   10   12 1   
    25   10   41 1   
    26   12   42 1   
    27   12   43 1   
    28   12   44 1   
    29   13   14 1   
    30   13   16 1   
    31   13   26 1   
    32   13   45 1   
    33   14   17 1   
    34   14   34 1   
    35   16   20 1   
    36   16   46 1   
    37   16   47 1   
    38   17   18 2   
    39   17   22 1   
    40   20   21 1   
    41   20   25 1   
    42   20   48 1   
    43   21   49 1   
    44   22   27 1   
    45   22   50 1   
    46   23   51 1   
    47   23   52 1   
    48   23   53 1   
    49   25   26 1   
    50   25   30 1   
    51   25   54 1   
    52   27   28 2   
    53   27   32 1   
    54   30   31 1   
    55   30   55 1   
    56   30   56 1   
    57   32   33 1   
    58   32   34 2   
    59   33   57 1   
    60   33   58 1   
    61   33   59 1   
    62   34   60 1   
@<TRIPOS>SUBSTRUCTURE
     1 JHZ         1 TEMP              0 ****  ****    0 ROOT
