@<TRIPOS>MOLECULE
JHZ
   61    63     1     0     0
SMALL
bcc


@<TRIPOS>ATOM
      1 P           1.4310   -0.1970   -1.3890 p5        1 JHZ      1.789500
      2 C1         -1.2440   -3.6600    0.0520 c3        1 JHZ      0.365900
      3 O1         -1.4900   -2.3300   -0.2510 os        1 JHZ     -0.611200
      4 C2         -0.3820   -4.3600   -1.0020 c3        1 JHZ     -0.113400
      5 P2         -0.8360   -1.1640    0.7150 p5        1 JHZ      1.595800
      6 C3         -1.0440   -4.4190   -2.3930 c3        1 JHZ      0.101200
      7 N3         -0.9790   -3.1190   -3.0580 n8        1 JHZ     -0.913800
      8 C4         -2.5060   -4.8800   -2.2170 c         1 JHZ      0.508100
      9 O4         -3.0370   -5.6560   -3.0160 o         1 JHZ     -0.540100
     10 C5         -3.2730   -4.2460   -1.0710 c3        1 JHZ      0.057100
     11 O5         -2.5220   -4.2790    0.1400 os        1 JHZ     -0.423600
     12 C6         -4.5800   -4.9600   -0.7820 c3        1 JHZ     -0.083100
     13 C1X        -2.1740    4.1460   -1.5720 c3        1 JHZ      0.299500
     14 N11        -3.4860    3.6380   -1.1730 n         1 JHZ     -0.383000
     15 O1P         1.9920   -1.4800   -2.1370 oh        1 JHZ     -0.774400
     16 C2X        -1.1620    4.2470   -0.4140 c3        1 JHZ     -0.115400
     17 C21        -4.6360    4.3250   -1.6390 c         1 JHZ      0.806500
     18 O21        -4.5550    5.4070   -2.2680 o         1 JHZ     -0.672500
     19 O2P         2.3710    0.7940   -0.8850 o         1 JHZ     -0.854300
     20 C3X        -0.1340    3.1420   -0.6710 c3        1 JHZ      0.119100
     21 O3X         1.1540    3.7180   -0.5770 oh        1 JHZ     -0.616800
     22 N31        -5.9000    3.7920   -1.3470 ns        1 JHZ     -0.591500
     23 C3M        -0.3040   -5.4840   -3.2200 c3        1 JHZ     -0.084100
     24 O3P        -1.6970    0.0270    0.6420 o         1 JHZ     -0.834000
     25 C4X        -0.4210    2.6390   -2.1050 c3        1 JHZ      0.068100
     26 O4X        -1.5920    3.3140   -2.5870 os        1 JHZ     -0.417600
     27 C41        -6.0820    2.5930   -0.6320 c         1 JHZ      0.715700
     28 O41        -7.2490    2.2080   -0.4310 o         1 JHZ     -0.639500
     29 O4P        -0.2520   -1.8270    1.8790 o         1 JHZ     -0.834000
     30 C5X        -0.6710    1.1270   -2.2000 c3        1 JHZ      0.142400
     31 O5X         0.4970    0.4280   -2.5480 os        1 JHZ     -0.611200
     32 C51        -4.8580    1.9090   -0.1940 cc        1 JHZ     -0.259400
     33 C5A        -5.0110    0.6540    0.5670 c3        1 JHZ     -0.040900
     34 C61        -3.6340    2.4330   -0.4940 cd        1 JHZ      0.046600
     35 OPP         0.3950   -0.7860   -0.3750 os        1 JHZ     -0.816800
     36 H1         -0.8020   -3.7740    1.0900 h2        1 JHZ      0.121700
     37 H2          0.6100   -3.8450   -1.0770 hc        1 JHZ      0.064200
     38 H2A        -0.2080   -5.4100   -0.6500 hc        1 JHZ      0.064200
     39 HN3        -1.4580   -3.1590   -3.9350 hn        1 JHZ      0.368800
     40 HN3A       -1.3890   -2.4130   -2.4760 hn        1 JHZ      0.368800
     41 H5         -3.4620   -3.1690   -1.3540 h1        1 JHZ      0.079700
     42 H6         -4.3840   -6.0000   -0.4290 hc        1 JHZ      0.046700
     43 H6A        -5.1410   -4.4110    0.0100 hc        1 JHZ      0.046700
     44 H6B        -5.1890   -5.0020   -1.7160 hc        1 JHZ      0.046700
     45 H1X        -2.3380    5.1470   -2.0750 h2        1 JHZ      0.115700
     46 H2X        -1.6340    4.1230    0.5890 hc        1 JHZ      0.078200
     47 H2XA       -0.6660    5.2500   -0.4490 hc        1 JHZ      0.078200
     48 H3X        -0.2580    2.3180    0.0860 h1        1 JHZ      0.078700
     49 HO3X        1.7980    2.9910   -0.5650 ho        1 JHZ      0.451000
     50 HN31       -6.6910    4.2960   -1.6810 hn        1 JHZ      0.339500
     51 H3M        -0.3960   -6.4720   -2.7110 hc        1 JHZ      0.042367
     52 H3MA       -0.7530   -5.5720   -4.2380 hc        1 JHZ      0.042367
     53 H3MB        0.7740   -5.2170   -3.3150 hc        1 JHZ      0.042367
     54 H4X         0.4120    2.9380   -2.8010 h1        1 JHZ      0.089700
     55 H5X        -1.0840    0.7150   -1.2320 h1        1 JHZ      0.077700
     56 H5XA       -1.4090    0.9430   -3.0310 h1        1 JHZ      0.077700
     57 H5A        -5.6150    0.8380    1.4900 hc        1 JHZ      0.057700
     58 H5AA       -4.0080    0.2440    0.8570 hc        1 JHZ      0.057700
     59 H5AB       -5.5510   -0.1050   -0.0520 hc        1 JHZ      0.057700
     60 H61        -2.6930    1.9100   -0.1910 h4        1 JHZ      0.230000
     61 H33         1.3420   -2.0690   -2.5180 ho        1 JHZ      0.490000
@<TRIPOS>BOND
     1    1   15 1   
     2    1   19 2   
     3    1   31 1   
     4    1   35 1   
     5    2    3 1   
     6    2    4 1   
     7    2   11 1   
     8    2   36 1   
     9    3    5 1   
    10    4    6 1   
    11    4   37 1   
    12    4   38 1   
    13    5   24 1   
    14    5   29 1   
    15    5   35 1   
    16    6    7 1   
    17    6    8 1   
    18    6   23 1   
    19    7   39 1   
    20    7   40 1   
    21    8    9 2   
    22    8   10 1   
    23   10   11 1   
    24   10   12 1   
    25   10   41 1   
    26   12   42 1   
    27   12   43 1   
    28   12   44 1   
    29   13   14 1   
    30   13   16 1   
    31   13   26 1   
    32   13   45 1   
    33   14   17 1   
    34   14   34 1   
    35   15   61 1   
    36   16   20 1   
    37   16   46 1   
    38   16   47 1   
    39   17   18 2   
    40   17   22 1   
    41   20   21 1   
    42   20   25 1   
    43   20   48 1   
    44   21   49 1   
    45   22   27 1   
    46   22   50 1   
    47   23   51 1   
    48   23   52 1   
    49   23   53 1   
    50   25   26 1   
    51   25   30 1   
    52   25   54 1   
    53   27   28 2   
    54   27   32 1   
    55   30   31 1   
    56   30   55 1   
    57   30   56 1   
    58   32   33 1   
    59   32   34 2   
    60   33   57 1   
    61   33   58 1   
    62   33   59 1   
    63   34   60 1   
@<TRIPOS>SUBSTRUCTURE
     1 JHZ         1 TEMP              0 ****  ****    0 ROOT
