@<TRIPOS>MOLECULE
JHZ
   61    63     1     0     0
SMALL
bcc


@<TRIPOS>ATOM
      1 P           1.4360   -0.2420   -0.9550 p5        1 JHZ      1.789500
      2 C1         -1.4430   -3.6870    0.0790 c3        1 JHZ      0.365900
      3 O1         -1.6310   -2.3490   -0.2310 os        1 JHZ     -0.611200
      4 C2         -0.4630   -4.3850   -0.8680 c3        1 JHZ     -0.113400
      5 P2         -1.0910   -1.2070    0.8290 p5        1 JHZ      1.595800
      6 C3         -0.9430   -4.4140   -2.3330 c3        1 JHZ      0.101200
      7 N3         -0.7760   -3.1060   -2.9620 n3        1 JHZ     -0.913800
      8 C4         -2.4220   -4.8560   -2.3510 c         1 JHZ      0.508100
      9 O4         -2.8570   -5.6120   -3.2240 o         1 JHZ     -0.540100
     10 C5         -3.3200   -4.2260   -1.3020 c3        1 JHZ      0.057100
     11 O5         -2.7300   -4.2880   -0.0060 os        1 JHZ     -0.423600
     12 C6         -4.6620   -4.9240   -1.1940 c3        1 JHZ     -0.083100
     13 C1X        -2.0670    4.1500   -1.5280 c3        1 JHZ      0.299500
     14 N11        -3.4250    3.6540   -1.3060 n         1 JHZ     -0.383000
     15 O1P         2.0730   -1.5220   -1.6460 oh        1 JHZ     -0.774400
     16 C2X        -1.2090    4.2230   -0.2500 c3        1 JHZ     -0.115400
     17 C21        -4.4990    4.3620   -1.9030 c         1 JHZ      0.806500
     18 O21        -4.3270    5.4500   -2.5020 o         1 JHZ     -0.672500
     19 O2P         2.3160    0.7300   -0.3220 o         1 JHZ     -0.854300
     20 C3X        -0.1690    3.1070   -0.3910 c3        1 JHZ      0.119100
     21 O3X         1.1020    3.6650   -0.1270 oh        1 JHZ     -0.616800
     22 N31        -5.7950    3.8420   -1.7810 n         1 JHZ     -0.591500
     23 C3M        -0.1180   -5.4780   -3.0750 c3        1 JHZ     -0.084100
     24 O3P        -1.9210   -0.0030    0.6670 o         1 JHZ     -0.834000
     25 C4X        -0.2780    2.6280   -1.8570 c3        1 JHZ      0.068100
     26 O4X        -1.3710    3.3250   -2.4740 os        1 JHZ     -0.417600
     27 C41        -6.0800    2.6360   -1.1130 c         1 JHZ      0.715700
     28 O41        -7.2680    2.2640   -1.0660 o         1 JHZ     -0.639500
     29 O4P        -0.6670   -1.8960    2.0460 o         1 JHZ     -0.834000
     30 C5X        -0.5310    1.1200   -2.0060 c3        1 JHZ      0.142400
     31 O5X         0.6640    0.4110   -2.2140 os        1 JHZ     -0.611200
     32 C51        -4.9300    1.9310   -0.5340 cc        1 JHZ     -0.259400
     33 C5A        -5.1910    0.6670    0.1840 c3        1 JHZ     -0.040900
     34 C61        -3.6720    2.4430   -0.6690 cd        1 JHZ      0.046600
     35 OPP         0.2730   -0.8310   -0.0910 os        1 JHZ     -0.816800
     36 H1         -1.1390   -3.8220    1.1640 h2        1 JHZ      0.121700
     37 H2         -0.3490   -5.4420   -0.5130 hc        1 JHZ      0.064200
     38 H2A         0.5370   -3.8840   -0.8070 hc        1 JHZ      0.064200
     39 HN3        -1.2480   -2.4020   -2.4260 hn        1 JHZ      0.368800
     40 HN3A        1.4700   -2.0970   -2.1150 ho        1 JHZ      0.490000
     41 H5         -3.4570   -3.1430   -1.5900 h1        1 JHZ      0.079700
     42 H6         -5.3130   -4.3780   -0.4700 hc        1 JHZ      0.046700
     43 H6A        -5.1480   -4.9440   -2.1980 hc        1 JHZ      0.046700
     44 H6B        -4.5270   -5.9720   -0.8350 hc        1 JHZ      0.046700
     45 H1X        -2.1550    5.1600   -2.0330 h2        1 JHZ      0.115700
     46 H2X        -1.8060    4.0910    0.6830 hc        1 JHZ      0.078200
     47 H2XA       -0.7020    5.2190   -0.2070 hc        1 JHZ      0.078200
     48 H3X        -0.3980    2.2760    0.3310 h1        1 JHZ      0.078700
     49 HO3X        1.7310    2.9290   -0.0430 ho        1 JHZ      0.451000
     50 HN31       -6.5320    4.3610   -2.2060 hn        1 JHZ      0.339500
     51 H3M         0.9680   -5.2270   -3.0270 hc        1 JHZ      0.042367
     52 H3MA       -0.2870   -6.4720   -2.5980 hc        1 JHZ      0.042367
     53 H3MB       -0.4350   -5.5450   -4.1430 hc        1 JHZ      0.042367
     54 H4X         0.6390    2.9250   -2.4380 h1        1 JHZ      0.089700
     55 H5X        -1.0680    0.7010   -1.1050 h1        1 JHZ      0.077700
     56 H5XA       -1.1590    0.9580   -2.9260 h1        1 JHZ      0.077700
     57 H5A        -5.9060    0.8470    1.0250 hc        1 JHZ      0.057700
     58 H5AA       -5.6570   -0.0770   -0.5100 hc        1 JHZ      0.057700
     59 H5AB       -4.2390    0.2410    0.5930 hc        1 JHZ      0.057700
     60 H61        -2.7830    1.9030   -0.2570 h4        1 JHZ      0.230000
     61 H33        -1.1400   -3.1260   -3.8940 hn        1 JHZ      0.368800
@<TRIPOS>BOND
     1    1   15 1   
     2    1   19 2   
     3    1   31 1   
     4    1   35 1   
     5    2    3 1   
     6    2    4 1   
     7    2   11 1   
     8    2   36 1   
     9    3    5 1   
    10    4    6 1   
    11    4   37 1   
    12    4   38 1   
    13    5   24 1   
    14    5   29 1   
    15    5   35 1   
    16    6    7 1   
    17    6    8 1   
    18    6   23 1   
    19    7   39 1   
    20    7   61 1   
    21    8    9 2   
    22    8   10 1   
    23   10   11 1   
    24   10   12 1   
    25   10   41 1   
    26   12   42 1   
    27   12   43 1   
    28   12   44 1   
    29   13   14 1   
    30   13   16 1   
    31   13   26 1   
    32   13   45 1   
    33   14   17 1   
    34   14   34 1   
    35   15   40 1   
    36   16   20 1   
    37   16   46 1   
    38   16   47 1   
    39   17   18 2   
    40   17   22 1   
    41   20   21 1   
    42   20   25 1   
    43   20   48 1   
    44   21   49 1   
    45   22   27 1   
    46   22   50 1   
    47   23   51 1   
    48   23   52 1   
    49   23   53 1   
    50   25   26 1   
    51   25   30 1   
    52   25   54 1   
    53   27   28 2   
    54   27   32 1   
    55   30   31 1   
    56   30   55 1   
    57   30   56 1   
    58   32   33 1   
    59   32   34 2   
    60   33   57 1   
    61   33   58 1   
    62   33   59 1   
    63   34   60 1   
@<TRIPOS>SUBSTRUCTURE
     1 JHZ         1 TEMP              0 ****  ****    0 ROOT
