@<TRIPOS>MOLECULE
JHZ
   61    63     1     0     0
SMALL
bcc


@<TRIPOS>ATOM
      1 P           0.0830   -0.4580   -1.0960 p5        1 JHZ      1.799500
      2 C1         -1.4520   -4.6620   -0.1650 c3        1 JHZ      0.375900
      3 O1         -1.9910   -3.4300   -0.4830 os        1 JHZ     -0.583200
      4 C2         -0.2000   -4.9620   -0.9970 c3        1 JHZ     -0.124400
      5 P2         -1.9990   -2.2280    0.6640 p5        1 JHZ      1.578800
      6 C3         -0.5440   -5.5140   -2.3930 c3        1 JHZ      0.108200
      7 N3         -1.2980   -4.5420   -3.1770 n3        1 JHZ     -0.907800
      8 C4         -1.3440   -6.8090   -2.1630 c         1 JHZ      0.508100
      9 O4         -1.2970   -7.7680   -2.9380 o         1 JHZ     -0.544100
     10 C5         -2.2350   -6.8270   -0.9350 c3        1 JHZ      0.058100
     11 O5         -2.5590   -5.5290   -0.4810 os        1 JHZ     -0.430600
     12 C6         -1.6330   -7.6940    0.1580 c3        1 JHZ     -0.118100
     13 C1X        -2.0900    4.7710   -1.7250 c3        1 JHZ      0.308500
     14 N11        -3.3620    4.8540   -0.9960 n         1 JHZ     -0.379000
     15 O1P         0.7180   -1.5760   -2.0320 oh        1 JHZ     -0.780400
     16 C2X        -0.8050    4.8030   -0.8800 c3        1 JHZ     -0.107400
     17 C21        -3.5570    4.2320    0.2700 c         1 JHZ      0.808500
     18 O21        -2.6150    3.7610    0.9400 o         1 JHZ     -0.629500
     19 O2P         0.9930    0.5290   -0.5230 o         1 JHZ     -0.872300
     20 C3X        -0.2610    3.3700   -0.9270 c3        1 JHZ      0.139100
     21 O3X         1.1230    3.4330   -1.1960 oh        1 JHZ     -0.624800
     22 N31        -4.8540    4.2100    0.8140 n         1 JHZ     -0.582500
     23 C3M         0.7680   -5.8850   -3.1020 c3        1 JHZ     -0.082100
     24 O3P        -3.2410   -1.4650    0.5730 o         1 JHZ     -0.818500
     25 C4X        -1.0220    2.6880   -2.0870 c3        1 JHZ      0.072100
     26 O4X        -2.0520    3.5880   -2.5320 os        1 JHZ     -0.429600
     27 C41        -5.9840    4.6880    0.1350 c         1 JHZ      0.720700
     28 O41        -7.0920    4.6430    0.6980 o         1 JHZ     -0.626500
     29 O4P        -1.3170   -2.7780    1.8370 o         1 JHZ     -0.818500
     30 C5X        -1.6740    1.3490   -1.7050 c3        1 JHZ      0.180400
     31 O5X        -0.8930    0.2750   -2.1580 os        1 JHZ     -0.602200
     32 C51        -5.7470    5.2250   -1.2170 cc        1 JHZ     -0.266400
     33 C5A        -6.9220    5.6910   -1.9770 c3        1 JHZ     -0.025900
     34 C61        -4.4820    5.2490   -1.7200 cd        1 JHZ      0.046600
     35 OPP        -0.8640   -1.2980   -0.1960 os        1 JHZ     -0.807800
     36 H1         -1.2370   -4.7500    0.9420 h2        1 JHZ      0.091700
     37 H2          0.4080   -4.0270   -1.1050 hc        1 JHZ      0.064700
     38 H2A         0.4270   -5.7170   -0.4580 hc        1 JHZ      0.064700
     39 HN3        -1.7460   -4.9950   -3.9470 hn        1 JHZ      0.374300
     40 HN3A        0.1150   -2.2330   -2.3780 ho        1 JHZ      0.489000
     41 H5         -3.2430   -7.2490   -1.2320 h1        1 JHZ      0.085700
     42 H6         -1.4310   -8.7160   -0.2420 hc        1 JHZ      0.046700
     43 H6A        -0.6810   -7.2540    0.5390 hc        1 JHZ      0.046700
     44 H6B        -2.3500   -7.7650    1.0100 hc        1 JHZ      0.046700
     45 H1X        -2.1060    5.6300   -2.4630 h2        1 JHZ      0.069700
     46 H2X        -0.9750    5.1320    0.1720 hc        1 JHZ      0.080200
     47 H2XA       -0.0770    5.5050   -1.3600 hc        1 JHZ      0.080200
     48 H3X        -0.4540    2.8430    0.0480 h1        1 JHZ      0.089700
     49 HO3X        1.5030    2.5840   -0.9120 ho        1 JHZ      0.461000
     50 HN31       -4.9630    3.7460    1.6910 hn        1 JHZ      0.355500
     51 H3M         1.3320   -6.6140   -2.4740 hc        1 JHZ      0.042033
     52 H3MA        0.5560   -6.3570   -4.0900 hc        1 JHZ      0.042033
     53 H3MB        1.3930   -4.9740   -3.2550 hc        1 JHZ      0.042033
     54 H4X        -0.3440    2.5440   -2.9740 h1        1 JHZ      0.089700
     55 H5X        -2.6720    1.2690   -2.2210 h1        1 JHZ      0.062200
     56 H5XA       -1.8220    1.2680   -0.5940 h1        1 JHZ      0.062200
     57 H5A        -6.6170    6.2540   -2.8920 hc        1 JHZ      0.045700
     58 H5AA       -7.5490    4.8160   -2.2850 hc        1 JHZ      0.045700
     59 H5AB       -7.5530    6.3560   -1.3340 hc        1 JHZ      0.045700
     60 H61        -4.2790    5.6130   -2.7460 h4        1 JHZ      0.160000
     61 H33        -1.9800   -4.0800   -2.6010 hn        1 JHZ      0.374300
@<TRIPOS>BOND
     1    1   15 1   
     2    1   19 2   
     3    1   31 1   
     4    1   35 1   
     5    2    3 1   
     6    2    4 1   
     7    2   11 1   
     8    2   36 1   
     9    3    5 1   
    10    4    6 1   
    11    4   37 1   
    12    4   38 1   
    13    5   24 1   
    14    5   29 1   
    15    5   35 1   
    16    6    7 1   
    17    6    8 1   
    18    6   23 1   
    19    7   39 1   
    20    7   61 1   
    21    8    9 2   
    22    8   10 1   
    23   10   11 1   
    24   10   12 1   
    25   10   41 1   
    26   12   42 1   
    27   12   43 1   
    28   12   44 1   
    29   13   14 1   
    30   13   16 1   
    31   13   26 1   
    32   13   45 1   
    33   14   17 1   
    34   14   34 1   
    35   15   40 1   
    36   16   20 1   
    37   16   46 1   
    38   16   47 1   
    39   17   18 2   
    40   17   22 1   
    41   20   21 1   
    42   20   25 1   
    43   20   48 1   
    44   21   49 1   
    45   22   27 1   
    46   22   50 1   
    47   23   51 1   
    48   23   52 1   
    49   23   53 1   
    50   25   26 1   
    51   25   30 1   
    52   25   54 1   
    53   27   28 2   
    54   27   32 1   
    55   30   31 1   
    56   30   55 1   
    57   30   56 1   
    58   32   33 1   
    59   32   34 2   
    60   33   57 1   
    61   33   58 1   
    62   33   59 1   
    63   34   60 1   
@<TRIPOS>SUBSTRUCTURE
     1 JHZ         1 TEMP              0 ****  ****    0 ROOT
