@<TRIPOS>MOLECULE
JI1
   40    41     1     0     0
SMALL
bcc


@<TRIPOS>ATOM
      1 N1         -3.0210    0.1310   -0.7720 nb        1 JI1     -0.727000
      2 C2         -4.3640    0.3740   -0.6390 ca        1 JI1      0.628200
      3 N2         -5.2720   -0.4040   -1.3760 nh        1 JI1     -0.923500
      4 C3         -4.8670    1.3440    0.2820 ca        1 JI1     -0.300300
      5 C4         -3.9640    2.0350    1.0800 ca        1 JI1     -0.061000
      6 C5         -2.6000    1.7760    0.9630 ca        1 JI1     -0.291300
      7 C6         -2.1710    0.8150    0.0230 ca        1 JI1      0.446600
      8 N1'         0.2260   -3.0440    0.1420 n3        1 JI1     -0.793200
      9 C2'         1.4780   -2.4180    0.5410 c3        1 JI1      0.107800
     10 C3'         1.2470   -0.8930    0.8290 c3        1 JI1      0.158500
     11 C4'        -0.2850   -0.7000    0.6310 c3        1 JI1     -0.079700
     12 C5'        -0.7550   -1.9860   -0.0800 c3        1 JI1      0.142800
     13 C7         -0.6910    0.5550   -0.1110 c3        1 JI1     -0.115700
     14 C10         4.3490    0.7020   -0.6310 c3        1 JI1     -0.090400
     15 C11         5.8010    0.6360   -0.1900 c3        1 JI1      0.133400
     16 O12         6.5610    1.3300   -1.1670 oh        1 JI1     -0.599800
     17 HN21       -4.8830   -0.9280   -2.1300 hn        1 JI1      0.401300
     18 HN22       -6.1070    0.0820   -1.6140 hn        1 JI1      0.401300
     19 H3         -5.9450    1.5300    0.3630 ha        1 JI1      0.141000
     20 H4         -4.3270    2.7830    1.8000 ha        1 JI1      0.135000
     21 H5         -1.8680    2.3080    1.5840 ha        1 JI1      0.144000
     22 HN1'       -0.0940   -3.6670    0.8600 hn        1 JI1      0.346800
     23 H2'1        1.9190   -2.9090    1.4480 h1        1 JI1      0.045200
     24 H2'2        2.2030   -2.5590   -0.3070 h1        1 JI1      0.045200
     25 H3'         1.4900   -0.6990    1.9140 h1        1 JI1      0.057700
     26 H4'        -0.7430   -0.6650    1.6580 hc        1 JI1      0.052700
     27 H5'1       -0.8190   -1.8100   -1.1890 h1        1 JI1      0.061700
     28 H5'2       -1.7740   -2.2890    0.2790 h1        1 JI1      0.061700
     29 H71        -0.4120    0.4730   -1.1950 hc        1 JI1      0.067200
     30 H72        -0.1430    1.4390    0.3140 hc        1 JI1      0.067200
     31 HN8         1.9050   -0.1150   -0.9280 hn        1 JI1      0.365800
     32 H91         3.6190    0.3840    1.3910 h1        1 JI1      0.029200
     33 H92         3.8490   -1.1290    0.4130 h1        1 JI1      0.029200
     34 H101        4.2550    0.2630   -1.6590 hc        1 JI1      0.062700
     35 H102        4.0290    1.7750   -0.6960 hc        1 JI1      0.062700
     36 H111        5.9320    1.1230    0.8140 h1        1 JI1      0.020700
     37 H112        6.1480   -0.4300   -0.1230 h1        1 JI1      0.020700
     38 HO12        7.4790    1.2960   -0.8760 ho        1 JI1      0.400000
     39 N8          2.0650    0.0160    0.0540 n3        1 JI1     -0.818200
     40 C9          3.4800   -0.0610    0.3640 c3        1 JI1      0.165800
@<TRIPOS>BOND
     1    1    2 ar  
     2    1    7 ar  
     3    2    3 1   
     4    2    4 ar  
     5    3   17 1   
     6    3   18 1   
     7    4    5 ar  
     8    4   19 1   
     9    5    6 ar  
    10    5   20 1   
    11    6    7 ar  
    12    6   21 1   
    13    7   13 1   
    14    8    9 1   
    15    8   12 1   
    16    8   22 1   
    17    9   10 1   
    18    9   23 1   
    19    9   24 1   
    20   10   11 1   
    21   10   25 1   
    22   10   39 1   
    23   11   12 1   
    24   11   13 1   
    25   11   26 1   
    26   12   27 1   
    27   12   28 1   
    28   13   29 1   
    29   13   30 1   
    30   14   15 1   
    31   14   34 1   
    32   14   35 1   
    33   14   40 1   
    34   15   16 1   
    35   15   36 1   
    36   15   37 1   
    37   16   38 1   
    38   31   39 1   
    39   32   40 1   
    40   33   40 1   
    41   39   40 1   
@<TRIPOS>SUBSTRUCTURE
     1 JI1         1 TEMP              0 ****  ****    0 ROOT
