@<TRIPOS>MOLECULE
JI1
   40    36     1     0     0
SMALL
bcc


@<TRIPOS>ATOM
      1 N1          0.8460   -0.6760   -0.2190 n2        1 JI1     -0.179000
      2 C2          2.0620   -1.1180    0.0410 c2        1 JI1      0.021000
      3 N2          2.3490   -2.4900   -0.0510 n3        1 JI1     -0.318000
      4 C3          3.2060   -0.2380    0.5400 c3        1 JI1     -0.252000
      5 C4          3.1080    0.3010    1.8810 c1        1 JI1     -0.037000
      6 C5          1.3490    1.5480    0.6880 c1        1 JI1      0.111000
      7 C6          0.5510    0.6710    0.0560 c2        1 JI1     -0.279000
      8 N1'        -6.6910    1.1930    1.4310 n2        1 JI1     -0.366000
      9 C2'        -5.5960    1.6210    1.4510 c1        1 JI1      0.020000
     10 C3'        -1.8510    3.0340    1.0490 c2        1 JI1      0.001000
     11 C4'        -0.9510    2.5830    0.1460 c2        1 JI1     -0.342000
     12 C5'        -0.9910    1.1380   -1.8590 c3        1 JI1     -0.200000
     13 C7         -0.8210    1.1850   -0.3520 c3        1 JI1      0.023000
     14 C10        -9.9760   -1.2520    1.7550 c3        1 JI1     -0.266000
     15 C11        -9.4150    0.0690    1.3900 c1        1 JI1     -0.008000
     16 O12       -10.1600    1.0130    0.9340 oh        1 JI1     -0.139000
     17 HN21        1.6360   -3.0580   -0.4580 hn        1 JI1      0.193000
     18 HN22        3.2570   -2.6790   -0.4140 hn        1 JI1      0.193000
     19 H3          3.3260    0.6470   -0.1640 hc        1 JI1      0.163500
     20 H4          4.1960   -0.7840    0.4990 hc        1 JI1      0.163500
     21 H5          2.1800    0.1650    2.4550 ha        1 JI1      0.074000
     22 HN1'       -0.2240    1.7710   -2.3650 hc        1 JI1      0.076333
     23 H2'1       -3.6900    0.4360   -0.7490 ha        1 JI1      0.001000
     24 H2'2       -7.6110    0.8320    1.4130 hn        1 JI1      0.319000
     25 H3'        -4.2000    0.5120   -0.3080 ha        1 JI1      0.001000
     26 H4'        -1.8370    4.1120    1.3150 h4        1 JI1      0.127000
     27 H5'1       -2.0050    1.5220   -2.1300 hc        1 JI1      0.076333
     28 H5'2       -0.2440    3.3020   -0.2960 ha        1 JI1      0.132000
     29 H71        -0.8940    0.0910   -2.2320 hc        1 JI1      0.076333
     30 H72        -1.5930    0.5070    0.1120 hc        1 JI1      0.104000
     31 HN8        -2.9680    1.3860    1.4430 hn        1 JI1      0.196000
     32 H91        -3.5820    2.7930    2.0550 hn        1 JI1      0.196000
     33 H92        -9.8610   -2.7070    3.3490 hc        1 JI1      0.086333
     34 H101       -8.3910   -1.6560    3.1820 hc        1 JI1      0.086333
     35 H102       -9.9090   -0.9850    3.9090 hc        1 JI1      0.086333
     36 H111       -9.5950   -1.9860    0.9890 hc        1 JI1      0.103000
     37 H112      -11.1010   -1.2780    1.7110 hc        1 JI1      0.103000
     38 HO12      -11.1210    0.8170    0.8560 ho        1 JI1      0.169000
     39 N8         -2.7560    2.2990    1.7880 n3        1 JI1     -0.327000
     40 C9         -9.5060   -1.6720    3.1270 c3        1 JI1     -0.192000
@<TRIPOS>BOND
     1    1    2 1   
     2    1    7 1   
     3    2    3 1   
     4    2    4 1   
     5    3   17 1   
     6    3   18 1   
     7    4    5 1   
     8    4   19 1   
     9    4   20 1   
    10    5   21 1   
    11    6    7 1   
    12    7   13 1   
    13    8    9 1   
    14    8   24 1   
    15   10   11 1   
    16   10   26 1   
    17   10   39 1   
    18   11   13 1   
    19   11   28 1   
    20   12   13 1   
    21   12   22 1   
    22   12   27 1   
    23   12   29 1   
    24   13   30 1   
    25   14   15 1   
    26   14   36 1   
    27   14   37 1   
    28   14   40 1   
    29   15   16 1   
    30   16   38 1   
    31   23   25 1   
    32   31   39 1   
    33   32   39 1   
    34   33   40 1   
    35   34   40 1   
    36   35   40 1   
@<TRIPOS>SUBSTRUCTURE
     1 JI1         1 TEMP              0 ****  ****    0 ROOT
