@<TRIPOS>MOLECULE
JI1
   40    37     1     0     0
SMALL
bcc


@<TRIPOS>ATOM
      1 N1          2.4930    1.9010   -0.0080 n1        1 JI1     -0.202000
      2 C2          3.8250    2.1730    0.1130 c1        1 JI1      0.113000
      3 N2          4.4270    3.1290   -0.7310 n2        1 JI1     -0.323000
      4 C3          4.6240    1.3920    0.9480 c1        1 JI1     -0.236000
      5 C4          4.0760    0.3590    1.6420 c1        1 JI1     -0.143000
      6 C5          2.7470    0.0870    1.5220 c1        1 JI1     -0.143000
      7 C6          1.9460    0.8700    0.6860 c1        1 JI1      0.029000
      8 N1'        -1.7350    2.1720    1.8190 n3        1 JI1     -0.273000
      9 C2'        -2.4840    1.1630    0.9140 c3        1 JI1     -0.091000
     10 C3'        -1.5460   -0.1370    0.8350 c3        1 JI1     -0.041000
     11 C4'        -0.4380    0.2560    1.3200 c3        1 JI1     -0.166000
     12 C5'        -0.8000    1.4990    2.3650 c3        1 JI1     -0.092000
     13 C7          0.5030    0.7770    0.1690 c3        1 JI1     -0.117000
     14 N8         -1.3760   -0.5650   -0.5840 n3        1 JI1     -0.298000
     15 C9         -2.2400   -1.7350   -0.8530 c3        1 JI1     -0.071000
     16 C10        -2.1650   -2.0950   -2.3360 c3        1 JI1     -0.173000
     17 C11        -2.8660   -3.4380   -2.5710 c3        1 JI1     -0.016000
     18 O12        -2.6600   -3.8530   -3.9250 oh        1 JI1     -0.327000
     19 HN21        3.9480    3.5080   -1.4090 hn        1 JI1      0.199000
     20 HN22        5.2900    3.3760   -0.5910 hn        1 JI1      0.199000
     21 H3          5.5730    1.5860    1.0320 ha        1 JI1      0.142000
     22 H4          4.6430   -0.1950    2.2340 ha        1 JI1      0.138500
     23 H5          2.3570   -0.6490    2.0170 ha        1 JI1      0.138500
     24 HN1'       -1.3810    2.8160    1.3140 hn        1 JI1      0.144000
     25 H2'1       -2.6120    1.5410    0.0230 h1        1 JI1      0.096500
     26 H2'2       -3.3440    0.9330    1.3090 h1        1 JI1      0.096500
     27 H3'        -1.9180   -0.8630    1.3710 h1        1 JI1      0.101000
     28 H4'        -0.0050   -0.4730    1.8040 hc        1 JI1      0.099000
     29 H5'1       -0.0050    2.0690    2.5010 h1        1 JI1      0.097000
     30 H5'2       -1.1020    1.1410    3.2160 h1        1 JI1      0.097000
     31 H71         0.4670    0.1580   -0.5840 hc        1 JI1      0.099500
     32 H72         0.2010    1.6680   -0.1240 hc        1 JI1      0.099500
     33 HN8        -0.5190   -0.7830   -0.7310 hn        1 JI1      0.159000
     34 H91        -3.1660   -1.5180   -0.6160 h1        1 JI1      0.070500
     35 H92        -1.9320   -2.5040   -0.3100 h1        1 JI1      0.070500
     36 H101       -2.6090   -1.3950   -2.8670 hc        1 JI1      0.102000
     37 H102       -1.2330   -2.1650   -2.6060 hc        1 JI1      0.102000
     38 H111       -3.8410   -3.3360   -2.4000 h1        1 JI1      0.061000
     39 H112       -2.4840   -4.1310   -1.9450 h1        1 JI1      0.061000
     40 HO12       -2.6590   -4.7390   -3.9670 ho        1 JI1      0.200000
@<TRIPOS>BOND
     1    1    7 1   
     2    2    4 1   
     3    3   19 1   
     4    3   20 1   
     5    4   21 1   
     6    5    6 1   
     7    5   22 1   
     8    6   23 1   
     9    7   13 1   
    10    8    9 1   
    11    8   12 1   
    12    8   24 1   
    13    9   10 1   
    14    9   25 1   
    15    9   26 1   
    16   10   11 1   
    17   10   14 1   
    18   10   27 1   
    19   11   12 1   
    20   11   13 1   
    21   11   28 1   
    22   12   29 1   
    23   12   30 1   
    24   13   31 1   
    25   13   32 1   
    26   14   15 1   
    27   14   33 1   
    28   15   16 1   
    29   15   34 1   
    30   15   35 1   
    31   16   17 1   
    32   16   36 1   
    33   16   37 1   
    34   17   18 1   
    35   17   38 1   
    36   17   39 1   
    37   18   40 1   
@<TRIPOS>SUBSTRUCTURE
     1 JI1         1 TEMP              0 ****  ****    0 ROOT
