@<TRIPOS>MOLECULE
JI1
   41    63     1     0     0
SMALL
bcc


@<TRIPOS>ATOM
      1 N1          0.0000    0.0000    0.0000 n2        1 JI1      0.156000
      2 C2          1.3240    0.0000    0.0000 DU        1 JI1      0.058000
      3 N2          2.0120    0.0000   -1.2080 n8        1 JI1      0.463000
      4 C3          2.0320    0.0000    1.1980 c3        1 JI1      0.151000
      5 C4          1.3340    0.0000    2.3910 c2        1 JI1      0.274000
      6 C5         -0.0550   -0.0000    2.3480 c2        1 JI1      0.047000
      7 C6         -0.6930   -0.0000    1.1230 c2        1 JI1     -0.249000
      8 N1'        -3.4810    1.5090   -2.0110 ny        1 JI1      0.093000
      9 C2'        -4.6620    1.0980   -1.2100 DU        1 JI1      0.112000
     10 C3'        -4.2180    1.2740    0.2580 DU        1 JI1      0.025000
     11 C4'        -2.6780    1.1820    0.2240 DU        1 JI1     -0.214000
     12 C5'        -2.3230    0.9580   -1.2610 DU        1 JI1      0.334000
     13 C7         -2.1990   -0.0000    1.0700 c3        1 JI1     -0.156000
     14 C10        -6.6670   -0.5910    2.4300 DU        1 JI1      0.074000
     15 C11        -8.0690   -0.2290    2.9250 DU        1 JI1      0.148000
     16 O12        -8.5800   -1.2930    3.7310 oh        1 JI1     -0.323000
     17 HN21        1.0900    0.0930   -0.8300 DU        1 JI1     -0.430000
     18 HN22        1.0900    0.0930   -0.8300 DU        1 JI1     -0.430000
     19 H3          2.3990   -0.1820    0.1950 DU        1 JI1      0.319000
     20 H4          1.3960    0.0940    1.3140 DU        1 JI1     -0.192000
     21 H5          0.9640   -0.0020    1.9810 ha        1 JI1     -0.163000
     22 HN1'       -2.7880    1.3130   -1.3160 DU        1 JI1     -0.043000
     23 H2'1       -3.9520    0.8770   -0.4220 DU        1 JI1     -0.515000
     24 H2'2       -4.0640    1.0890   -2.1130 DU        1 JI1      0.221000
     25 H3'        -4.5620    0.6600   -0.5660 DU        1 JI1     -0.145000
     26 H4'        -3.6010    1.3660   -0.3130 DU        1 JI1      0.461000
     27 H5'1       -3.0630    1.4790   -0.6660 DU        1 JI1     -0.676000
     28 H5'2       -2.2810    1.5320   -0.3430 DU        1 JI1      0.086000
     29 H71        -2.2050   -0.0450   -0.0130 DU        1 JI1      0.224500
     30 H72        -1.9150    0.5260    0.1660 DU        1 JI1      0.224500
     31 HN8        -3.9010   -0.2480    0.9070 hn        1 JI1      0.179000
     32 H91        -5.0580    0.4090    1.7200 DU        1 JI1      0.058000
     33 H92        -5.7180    1.3140    2.2200 ha        1 JI1      0.113000
     34 H101       -5.8240   -0.1300    1.9310 DU        1 JI1     -0.256500
     35 H102       -5.9240    0.1850    2.5660 DU        1 JI1     -0.256500
     36 H111       -7.1000   -0.6900    3.0680 DU        1 JI1      0.028500
     37 H112       -7.4080   -0.7630    2.2530 DU        1 JI1      0.028500
     38 HO12       -8.3250   -0.3910    3.6320 DU        1 JI1      0.269000
     39 H82        -5.7570    0.0730    1.2420 DU        1 JI1      0.058000
     40 N8         -4.7760    0.2010    1.0920 nz        1 JI1      0.542000
     41 C9         -6.1210    0.5480    1.5670 DU        1 JI1      0.300000
@<TRIPOS>BOND
     1    1    2 1   
     2    1    7 1   
     3    2    3 1   
     4    2    4 1   
     5    2   17 1   
     6    2   18 1   
     7    2   19 1   
     8    3   17 1   
     9    3   18 1   
    10    4    5 1   
    11    4   19 1   
    12    4   20 1   
    13    5    6 1   
    14    5   20 1   
    15    6    7 1   
    16    6   21 1   
    17    7   13 1   
    18    8    9 1   
    19    8   12 1   
    20    8   22 1   
    21    8   24 1   
    22    9   10 1   
    23    9   23 1   
    24    9   24 1   
    25    9   25 1   
    26   10   11 1   
    27   10   23 1   
    28   10   25 1   
    29   10   26 1   
    30   10   40 1   
    31   11   12 1   
    32   11   13 1   
    33   11   26 1   
    34   11   27 1   
    35   11   28 1   
    36   12   22 1   
    37   12   27 1   
    38   12   28 1   
    39   13   29 1   
    40   13   30 1   
    41   14   15 1   
    42   14   34 1   
    43   14   35 1   
    44   14   36 1   
    45   14   37 1   
    46   14   41 1   
    47   15   16 1   
    48   15   36 1   
    49   15   37 1   
    50   15   38 1   
    51   16   38 1   
    52   23   25 1   
    53   23   26 1   
    54   26   27 1   
    55   29   30 1   
    56   31   40 1   
    57   32   40 1   
    58   32   41 1   
    59   33   41 1   
    60   34   41 1   
    61   35   41 1   
    62   39   40 1   
    63   39   41 1   
@<TRIPOS>SUBSTRUCTURE
     1 JI1         1 TEMP              0 ****  ****    0 ROOT
