@<TRIPOS>MOLECULE
JI2
   38    39     1     0     0
SMALL
bcc


@<TRIPOS>ATOM
      1 C6         -3.9790    0.0830   -0.5850 ca        1 JI2      0.628200
      2 N6         -4.8330   -0.8040   -1.2610 nh        1 JI2     -0.924500
      3 C5         -4.5410    1.0400    0.3150 ca        1 JI2     -0.301300
      4 C4         -3.6820    1.8410    1.0560 ca        1 JI2     -0.060000
      5 C3         -2.3030    1.7020    0.9030 ca        1 JI2     -0.292300
      6 C2         -1.8170    0.7470   -0.0150 ca        1 JI2      0.446600
      7 N1         -2.6240   -0.0430   -0.7550 nb        1 JI2     -0.727000
      8 N1'         0.9260   -2.8610    0.2710 n3        1 JI2     -0.794200
      9 C2'         2.1270   -2.1010    0.5900 c3        1 JI2      0.106800
     10 C3'         1.7690   -0.5850    0.7700 c3        1 JI2      0.159500
     11 C4'         0.2210   -0.5430    0.6200 c3        1 JI2     -0.080700
     12 C5'        -0.1520   -1.9130    0.0150 c3        1 JI2      0.142800
     13 C7         -0.3240    0.6160   -0.1870 c3        1 JI2     -0.114700
     14 C10         4.6480    1.1940   -0.9370 c3        1 JI2      0.152800
     15 N11         6.0610    1.2940   -0.6600 n3        1 JI2     -0.915800
     16 HN61       -4.4210   -1.3210   -2.0060 hn        1 JI2      0.401300
     17 HN62       -5.7170   -0.4070   -1.4880 hn        1 JI2      0.401300
     18 H5         -5.6290    1.1310    0.4260 ha        1 JI2      0.141000
     19 H4         -4.0900    2.5820    1.7600 ha        1 JI2      0.135000
     20 H3         -1.6050    2.3230    1.4780 ha        1 JI2      0.143000
     21 HN1'        0.6840   -3.4630    1.0370 hn        1 JI2      0.346800
     22 H2'1        2.6270   -2.4810    1.5200 h1        1 JI2      0.047200
     23 H2'2        2.8460   -2.2440   -0.2630 h1        1 JI2      0.047200
     24 H3'         2.0300   -0.2830    1.8250 h1        1 JI2      0.057700
     25 H4'        -0.2050   -0.4780    1.6600 hc        1 JI2      0.052700
     26 H5'1       -0.2660   -1.8210   -1.1000 h1        1 JI2      0.061700
     27 H5'2       -1.1280   -2.2780    0.4300 h1        1 JI2      0.061700
     28 H71        -0.0720    0.4850   -1.2730 hc        1 JI2      0.066700
     29 H72         0.1520    1.5730    0.1590 hc        1 JI2      0.066700
     30 HN8         2.3010    0.0920   -1.0680 hn        1 JI2      0.362800
     31 H91         4.0220    0.9310    1.1480 h1        1 JI2      0.037700
     32 H92         4.3720   -0.6150    0.2580 h1        1 JI2      0.037700
     33 H101        4.5380    0.6540   -1.9210 h1        1 JI2      0.032200
     34 H102        4.1550    2.2040   -1.0520 h1        1 JI2      0.032200
     35 H111        6.5060    1.8720   -1.3450 hn        1 JI2      0.350300
     36 H112        6.2240    1.6770    0.2500 hn        1 JI2      0.350300
     37 N8          2.4740    0.3280   -0.1070 n3        1 JI2     -0.819200
     38 C9          3.8980    0.4050    0.1590 c3        1 JI2      0.158800
@<TRIPOS>BOND
     1    1    2 1   
     2    1    3 ar  
     3    1    7 ar  
     4    2   16 1   
     5    2   17 1   
     6    3    4 ar  
     7    3   18 1   
     8    4    5 ar  
     9    4   19 1   
    10    5    6 ar  
    11    5   20 1   
    12    6    7 ar  
    13    6   13 1   
    14    8    9 1   
    15    8   12 1   
    16    8   21 1   
    17    9   10 1   
    18    9   22 1   
    19    9   23 1   
    20   10   11 1   
    21   10   24 1   
    22   10   37 1   
    23   11   12 1   
    24   11   13 1   
    25   11   25 1   
    26   12   26 1   
    27   12   27 1   
    28   13   28 1   
    29   13   29 1   
    30   14   15 1   
    31   14   33 1   
    32   14   34 1   
    33   14   38 1   
    34   15   35 1   
    35   15   36 1   
    36   30   37 1   
    37   31   38 1   
    38   32   38 1   
    39   37   38 1   
@<TRIPOS>SUBSTRUCTURE
     1 JI2         1 TEMP              0 ****  ****    0 ROOT
