@<TRIPOS>MOLECULE
JI2
   38    36     1     0     0
SMALL
bcc


@<TRIPOS>ATOM
      1 C6          2.7280    0.1470   -3.1600 c1        1 JI2      0.492600
      2 N6          4.0560    0.6430   -3.2040 n3        1 JI2     -0.788400
      3 C5          2.1200   -0.3090   -4.3190 c1        1 JI2     -0.089000
      4 C4          0.8410   -0.7840   -4.2770 c1        1 JI2     -0.089000
      5 C3          0.1620   -0.8080   -3.0940 c1        1 JI2     -0.169500
      6 C2          0.7720   -0.3510   -1.9360 c1        1 JI2      0.052900
      7 N1          2.0490    0.1220   -1.9790 n1        1 JI2     -0.527800
      8 N1'        -1.7800    2.4240    0.1520 n3        1 JI2     -0.788200
      9 C2'        -1.9410    1.4260    1.0090 c3        1 JI2      0.148800
     10 C3'        -0.4510    0.8370    1.3150 c3        1 JI2      0.147500
     11 C4'         0.2070    0.8950    0.1770 c3        1 JI2     -0.085700
     12 C5'        -0.4680    2.0800   -0.6250 c3        1 JI2      0.145800
     13 C7          0.0490   -0.4540   -0.6110 c3        1 JI2     -0.056300
     14 N8         -0.5420   -0.5410    1.7700 n3        1 JI2     -0.825200
     15 C9         -0.7610   -0.5630    3.1770 c3        1 JI2      0.156800
     16 C10        -1.4120   -1.8730    3.5660 c3        1 JI2      0.153800
     17 N11        -1.6350   -1.8930    4.9740 n3        1 JI2     -0.915800
     18 HN61        4.4080    1.0730   -2.4780 hn        1 JI2      0.402800
     19 HN62        4.5560    0.5430   -3.9620 hn        1 JI2      0.402800
     20 H5          2.6070   -0.2910   -5.1650 ha        1 JI2      0.081500
     21 H4          0.4130   -1.1050   -5.0930 ha        1 JI2      0.081500
     22 H3         -0.7530   -1.1470   -3.0630 ha        1 JI2      0.085500
     23 HN1'       -2.4830    2.4420   -0.4310 hn        1 JI2      0.349800
     24 H2'1       -2.5020    0.7280    0.6110 h1        1 JI2      0.054200
     25 H2'2       -2.3490    1.7550    1.8360 h1        1 JI2      0.054200
     26 H3'        -0.0040    1.3860    1.9900 h1        1 JI2      0.033700
     27 H4'         1.1520    1.0870    0.3390 hc        1 JI2      0.074700
     28 H5'1       -0.6800    1.7940   -1.5350 h1        1 JI2      0.050200
     29 H5'2        0.1270    2.8570   -0.6440 h1        1 JI2      0.050200
     30 H71        -0.8990   -0.6300   -0.7710 hc        1 JI2      0.058700
     31 H72         0.4320   -1.1840   -0.0870 hc        1 JI2      0.058700
     32 HN8         0.2370   -0.9790    1.5760 hn        1 JI2      0.360800
     33 H91         0.0960   -0.4740    3.6420 h1        1 JI2      0.037200
     34 H92        -1.3480    0.1800    3.4280 h1        1 JI2      0.037200
     35 H101       -2.2670   -1.9640    3.0980 h1        1 JI2      0.031200
     36 H102       -0.8230   -2.6160    3.3180 h1        1 JI2      0.031200
     37 H111       -1.3910   -2.7090    5.3100 hn        1 JI2      0.350800
     38 H112       -2.5230   -1.7460    5.1440 hn        1 JI2      0.350800
@<TRIPOS>BOND
     1    1    2 1   
     2    1    7 3   
     3    2   18 1   
     4    2   19 1   
     5    3    4 3   
     6    3   20 1   
     7    4   21 1   
     8    5    6 3   
     9    5   22 1   
    10    6   13 1   
    11    8    9 1   
    12    8   12 1   
    13    8   23 1   
    14    9   10 1   
    15    9   24 1   
    16    9   25 1   
    17   10   11 1   
    18   10   14 1   
    19   10   26 1   
    20   11   12 1   
    21   11   13 1   
    22   11   27 1   
    23   12   28 1   
    24   12   29 1   
    25   13   30 1   
    26   13   31 1   
    27   14   15 1   
    28   14   32 1   
    29   15   16 1   
    30   15   33 1   
    31   15   34 1   
    32   16   17 1   
    33   16   35 1   
    34   16   36 1   
    35   17   37 1   
    36   17   38 1   
@<TRIPOS>SUBSTRUCTURE
     1 JI2         1 TEMP              0 ****  ****    0 ROOT
