@<TRIPOS>MOLECULE
JI3
   54    56     1     0     0
SMALL
bcc


@<TRIPOS>ATOM
      1 C21        -1.5870    9.4890   -6.0630 ca        1 JI3     -0.109000
      2 C22        -2.5560   10.2420   -6.7230 ca        1 JI3     -0.127500
      3 C23        -3.8360   10.3500   -6.1730 ca        1 JI3      0.018400
      4 CL         -5.0240   11.2660   -6.9740 cl        1 JI3     -0.096400
      5 C24        -4.1480    9.7120   -4.9680 ca        1 JI3     -0.127500
      6 C25        -3.1710    8.9640   -4.3140 ca        1 JI3     -0.109000
      7 C26        -1.8870    8.8480   -4.8570 ca        1 JI3     -0.094300
      8 C6          5.1390   -0.6020   -1.0160 ca        1 JI3      0.630200
      9 N6          5.6950   -0.9710    0.2210 nh        1 JI3     -0.923500
     10 C5          5.4810   -1.3550   -2.1800 ca        1 JI3     -0.302300
     11 C4          4.8510   -1.0550   -3.3860 ca        1 JI3     -0.006300
     12 C3          3.9090   -0.0200   -3.4210 ca        1 JI3     -0.293300
     13 C2          3.6310    0.6900   -2.2360 ca        1 JI3      0.448600
     14 N1          4.2310    0.4240   -1.0550 nb        1 JI3     -0.730000
     15 N1'        -0.0510    1.5850    0.2870 n3        1 JI3     -0.796200
     16 C2'        -0.7540    2.3260   -0.7510 c3        1 JI3      0.107800
     17 C3'         0.0960    2.3360   -2.0700 c3        1 JI3      0.160500
     18 C4'         1.2820    1.3790   -1.7550 c3        1 JI3     -0.079700
     19 C5'         1.2730    1.2400   -0.2190 c3        1 JI3      0.143800
     20 C7          2.6270    1.8140   -2.2960 c3        1 JI3     -0.113700
     21 N8          0.5040    3.6470   -2.5340 n3        1 JI3     -0.819200
     22 C9         -0.5980    4.4720   -2.9900 c3        1 JI3      0.159800
     23 C10        -0.1520    5.9240   -3.2650 c3        1 JI3      0.157800
     24 N11        -1.2490    6.7430   -3.7400 n3        1 JI3     -0.824200
     25 C12        -0.8230    8.0720   -4.1380 c3        1 JI3      0.208100
     26 H21        -0.5790    9.4030   -6.4990 ha        1 JI3      0.145000
     27 H22        -2.3120   10.7460   -7.6700 ha        1 JI3      0.147500
     28 H24        -5.1570    9.7990   -4.5370 ha        1 JI3      0.147500
     29 H25        -3.4110    8.4610   -3.3640 ha        1 JI3      0.145000
     30 HN61        6.6200   -1.3310    0.1470 hn        1 JI3      0.400300
     31 HN62        5.5800   -0.3130    0.9600 hn        1 JI3      0.400300
     32 H5          6.2210   -2.1640   -2.1250 ha        1 JI3      0.141000
     33 H3          3.3970    0.2390   -4.3560 ha        1 JI3      0.143000
     34 HN1'       -0.5600    0.7530    0.5230 hn        1 JI3      0.347800
     35 H2'1       -0.9090    3.3710   -0.3640 h1        1 JI3      0.046200
     36 H2'2       -1.7660    1.8910   -0.9640 h1        1 JI3      0.046200
     37 H3'        -0.5230    1.8780   -2.8940 h1        1 JI3      0.058700
     38 H4'         1.0240    0.3830   -2.2110 hc        1 JI3      0.052700
     39 H5'1        1.5760    0.2040    0.0880 h1        1 JI3      0.061700
     40 H5'2        2.0090    1.9610    0.2350 h1        1 JI3      0.061700
     41 H71         3.0090    2.6990   -1.7200 hc        1 JI3      0.066200
     42 H72         2.5170    2.1280   -3.3680 hc        1 JI3      0.066200
     43 H81         6.1690   -2.3050   -4.5440 hc        1 JI3      0.049367
     44 H82         4.3990   -2.6330   -4.7540 hc        1 JI3      0.049367
     45 H83         5.1420   -1.1640   -5.5130 hc        1 JI3      0.049367
     46 HN8         1.0360    4.1180   -1.8260 hn        1 JI3      0.364800
     47 H91        -0.9840    4.0130   -3.9440 h1        1 JI3      0.037700
     48 H92        -1.4560    4.4890   -2.2540 h1        1 JI3      0.037700
     49 H101        0.2210    6.3880   -2.3080 h1        1 JI3      0.037200
     50 H102        0.7150    5.9080   -3.9900 h1        1 JI3      0.037200
     51 HN11       -1.7360    6.2870   -4.4890 hn        1 JI3      0.362800
     52 H121        0.1080    8.0430   -4.7820 h1        1 JI3      0.040200
     53 H122       -0.5520    8.6310   -3.1940 h1        1 JI3      0.040200
     54 C8          5.1620   -1.8260   -4.6120 c3        1 JI3     -0.060800
@<TRIPOS>BOND
     1    1    2 ar  
     2    1    7 ar  
     3    1   26 1   
     4    2    3 ar  
     5    2   27 1   
     6    3    4 1   
     7    3    5 ar  
     8    5    6 ar  
     9    5   28 1   
    10    6    7 ar  
    11    6   29 1   
    12    7   25 1   
    13    8    9 1   
    14    8   10 ar  
    15    8   14 ar  
    16    9   30 1   
    17    9   31 1   
    18   10   11 ar  
    19   10   32 1   
    20   11   12 ar  
    21   11   54 1   
    22   12   13 ar  
    23   12   33 1   
    24   13   14 ar  
    25   13   20 1   
    26   15   16 1   
    27   15   19 1   
    28   15   34 1   
    29   16   17 1   
    30   16   35 1   
    31   16   36 1   
    32   17   18 1   
    33   17   21 1   
    34   17   37 1   
    35   18   19 1   
    36   18   20 1   
    37   18   38 1   
    38   19   39 1   
    39   19   40 1   
    40   20   41 1   
    41   20   42 1   
    42   21   22 1   
    43   21   46 1   
    44   22   23 1   
    45   22   47 1   
    46   22   48 1   
    47   23   24 1   
    48   23   49 1   
    49   23   50 1   
    50   24   25 1   
    51   24   51 1   
    52   25   52 1   
    53   25   53 1   
    54   43   54 1   
    55   44   54 1   
    56   45   54 1   
@<TRIPOS>SUBSTRUCTURE
     1 JI3         1 TEMP              0 ****  ****    0 ROOT
