@<TRIPOS>MOLECULE
JI3
   56    58     1     0     0
SMALL
bcc


@<TRIPOS>ATOM
      1 C21        -0.3630   -1.0890    0.3700 ca        1 JI3     -0.079000
      2 C22         0.9600   -1.5110    0.4240 ca        1 JI3     -0.120000
      3 C23         1.5670   -1.7560    1.6670 ca        1 JI3      0.076400
      4 CL          3.1660   -2.2710    1.7340 cl        1 JI3      0.010600
      5 C24         0.8360   -1.5770    2.8530 ca        1 JI3     -0.120000
      6 C25        -0.4860   -1.1540    2.7940 ca        1 JI3     -0.079000
      7 C26        -1.0940   -0.9050    1.5540 ca        1 JI3     -0.233300
      8 C6         -6.2710    5.5890   -4.5020 ca        1 JI3      0.689200
      9 N6         -7.2820    5.1500   -5.3350 nh        1 JI3     -0.954500
     10 C5         -5.4580    6.7040   -4.9060 ca        1 JI3     -0.290300
     11 C4         -4.4950    7.1950   -4.0380 ca        1 JI3      0.021700
     12 C3         -4.3350    6.5800   -2.7800 ca        1 JI3     -0.302300
     13 C2         -5.1550    5.4930   -2.4610 ca        1 JI3      0.414600
     14 N1         -6.1010    4.9810   -3.2820 nb        1 JI3     -0.773000
     15 N1'        -8.1270    4.9940    0.8500 n3        1 JI3     -0.839200
     16 C2'        -7.1980    5.2780    1.9350 c3        1 JI3      0.133800
     17 C3'        -5.7930    4.9120    1.3580 c3        1 JI3      0.110500
     18 C4'        -5.9240    5.4300   -0.1000 c3        1 JI3     -0.102700
     19 C5'        -7.4250    5.2140   -0.4170 c3        1 JI3      0.135800
     20 C7         -4.9810    4.8290   -1.1170 c3        1 JI3     -0.118700
     21 N8         -5.6260    3.4040    1.4210 n4        1 JI3     -0.757000
     22 C9         -4.2080    2.9760    1.5020 c3        1 JI3      0.071800
     23 C10        -4.0600    1.4390    1.4690 c3        1 JI3      0.071800
     24 N11        -2.6450    1.0000    1.5250 n4        1 JI3     -0.774000
     25 C12        -2.5220   -0.5190    1.4920 c3        1 JI3      0.198100
     26 H21        -0.8380   -0.9240   -0.6100 ha        1 JI3      0.143000
     27 H22         1.5300   -1.6660   -0.5090 ha        1 JI3      0.183500
     28 H24         1.3080   -1.7830    3.8290 ha        1 JI3      0.183500
     29 H25        -1.0590   -1.0410    3.7280 ha        1 JI3      0.143000
     30 HN61       -7.2660    5.4630   -6.2760 hn        1 JI3      0.440300
     31 HN62       -7.7520    4.3010   -5.1370 hn        1 JI3      0.440300
     32 H3         -3.5790    6.9530   -2.0780 ha        1 JI3      0.138000
     33 HN1'       -8.9700    5.5310    0.9230 hn        1 JI3      0.415800
     34 H2'1       -7.1530    6.3620    2.2450 h1        1 JI3      0.084200
     35 H2'2       -7.4880    4.6780    2.8400 h1        1 JI3      0.084200
     36 H3'        -4.9530    5.3880    1.9270 hx        1 JI3      0.116700
     37 H4'        -5.7180    6.5390   -0.0500 hc        1 JI3      0.117700
     38 H5'1       -7.8200    6.0930   -0.9950 h1        1 JI3      0.091700
     39 H5'2       -7.5750    4.2970   -1.0520 h1        1 JI3      0.091700
     40 H71        -5.1470    3.7240   -1.2250 hc        1 JI3      0.034700
     41 H72        -3.9200    4.9930   -0.7810 hc        1 JI3      0.034700
     42 H81        -3.5530    8.4380   -5.5230 hc        1 JI3      0.064367
     43 H82        -2.6300    8.2640   -3.9690 hc        1 JI3      0.064367
     44 H83        -4.1190    9.2980   -4.0310 hc        1 JI3      0.064367
     45 HN8        -6.1420    3.0560    2.2410 hn        1 JI3      0.468300
     46 H91        -3.7730    3.3900    2.4600 hx        1 JI3      0.125700
     47 H92        -3.6570    3.4410    0.6300 hx        1 JI3      0.125700
     48 H101       -4.6010    0.9750    2.3470 hx        1 JI3      0.125200
     49 H102       -4.5130    1.0240    0.5190 hx        1 JI3      0.125200
     50 HN11       -2.1970    1.3410    2.3850 hn        1 JI3      0.458800
     51 H121       -3.0980   -0.9190    2.3740 hx        1 JI3      0.112700
     52 H122       -3.0050   -0.8710    0.5350 hx        1 JI3      0.112700
     53 C8         -3.6520    8.3540   -4.4120 c3        1 JI3     -0.073800
     54 H821       -6.0740    3.0100    0.5780 hn        1 JI3      0.468300
     55 H112       -2.1190    1.3830    0.7280 hn        1 JI3      0.458800
     56 H5         -5.6060    7.1660   -5.8930 ha        1 JI3      0.164000
@<TRIPOS>BOND
     1    1    2 ar  
     2    1    7 ar  
     3    1   26 1   
     4    2    3 ar  
     5    2   27 1   
     6    3    4 1   
     7    3    5 ar  
     8    5    6 ar  
     9    5   28 1   
    10    6    7 ar  
    11    6   29 1   
    12    7   25 1   
    13    8    9 1   
    14    8   10 ar  
    15    8   14 ar  
    16    9   30 1   
    17    9   31 1   
    18   10   11 ar  
    19   10   56 1   
    20   11   12 ar  
    21   11   53 1   
    22   12   13 ar  
    23   12   32 1   
    24   13   14 ar  
    25   13   20 1   
    26   15   16 1   
    27   15   19 1   
    28   15   33 1   
    29   16   17 1   
    30   16   34 1   
    31   16   35 1   
    32   17   18 1   
    33   17   21 1   
    34   17   36 1   
    35   18   19 1   
    36   18   20 1   
    37   18   37 1   
    38   19   38 1   
    39   19   39 1   
    40   20   40 1   
    41   20   41 1   
    42   21   22 1   
    43   21   45 1   
    44   21   54 1   
    45   22   23 1   
    46   22   46 1   
    47   22   47 1   
    48   23   24 1   
    49   23   48 1   
    50   23   49 1   
    51   24   25 1   
    52   24   50 1   
    53   24   55 1   
    54   25   51 1   
    55   25   52 1   
    56   42   53 1   
    57   43   53 1   
    58   44   53 1   
@<TRIPOS>SUBSTRUCTURE
     1 JI3         1 TEMP              0 ****  ****    0 ROOT
