@<TRIPOS>MOLECULE
JI3
   56    57     1     0     0
SMALL
bcc


@<TRIPOS>ATOM
      1 C21         0.2760   -0.3990    1.1370 ce        1 JI3     -0.150000
      2 C22         1.5140   -0.4220    1.6530 c2        1 JI3     -0.115700
      3 C23         1.7870   -0.2210    3.1000 c3        1 JI3      0.087100
      4 Cl          2.6160   -1.6430    3.7470 cl        1 JI3     -0.132400
      5 C24         0.5650    0.0430    3.9040 c2        1 JI3     -0.115700
      6 C25        -0.6680    0.0630    3.3740 ce        1 JI3     -0.150000
      7 C26        -0.9070   -0.1930    1.9630 ce        1 JI3     -0.037000
      8 C6         -6.8400    7.1600   -3.1840 ce        1 JI3      0.161600
      9 N6         -7.7910    8.0210   -2.5390 nv        1 JI3     -0.825600
     10 C5         -6.3430    7.3860   -4.4400 cf        1 JI3     -0.077000
     11 C4         -5.3690    6.5020   -5.0460 cf        1 JI3     -0.146200
     12 C3         -4.9300    5.3090   -4.2630 c3        1 JI3     -0.122500
     13 C2         -5.5590    5.2200   -2.9020 c2        1 JI3      0.439300
     14 N1         -6.4290    6.0450   -2.4030 ne        1 JI3     -0.649300
     15 N1'        -6.8770    6.0660    0.4720 nu        1 JI3     -0.218100
     16 C2'        -6.8850    4.6120    0.3860 c3        1 JI3     -0.039700
     17 C3'        -5.4610    3.9910    0.4670 c3        1 JI3      0.111500
     18 C4'        -4.5790    4.3870   -0.7230 c3        1 JI3     -0.109400
     19 C5'        -7.8010    6.8220   -0.0550 c2        1 JI3      0.507100
     20 C7         -5.1120    4.0220   -2.0960 c3        1 JI3     -0.141700
     21 N8         -5.5600    2.4940    0.6150 ny        1 JI3     -0.757000
     22 C9         -4.4050    1.9100    1.3640 c3        1 JI3      0.024800
     23 C10        -4.4790    0.3470    1.4250 c3        1 JI3      0.204800
     24 N11        -3.3670   -0.2650    2.0590 nu        1 JI3     -0.708000
     25 C12        -2.1380   -0.2840    1.3890 c2        1 JI3     -0.041000
     26 H21         0.1130   -0.5590    0.0590 ha        1 JI3      0.126000
     27 H22         2.3990   -0.6020    1.0200 ha        1 JI3      0.158000
     28 H24         2.5180    0.6270    3.2330 h1        1 JI3      0.103700
     29 H25         0.7320    0.2190    4.9810 ha        1 JI3      0.158000
     30 HN61       -8.6990    7.8800   -2.9460 hn        1 JI3      0.385800
     31 HN62       -7.5180    8.9790   -2.6730 hn        1 JI3      0.385800
     32 H3         -3.8100    5.3310   -4.1420 hc        1 JI3      0.086700
     33 HN1'       -8.6700    6.3850   -0.5960 h4        1 JI3      0.090800
     34 H2'1       -6.0790    6.4780    0.9330 hn        1 JI3      0.328700
     35 H2'2       -7.5140    4.2370    1.2500 h1        1 JI3      0.113700
     36 H3'        -7.3770    4.3040   -0.5850 h1        1 JI3      0.113700
     37 H4'        -4.9560    4.3660    1.4130 hx        1 JI3      0.116700
     38 H5'1       -4.4040    5.4960   -0.6530 hc        1 JI3      0.097700
     39 H5'2       -7.7400    7.9310    0.0530 h4        1 JI3      0.090800
     40 H71        -5.9720    3.3020   -2.0350 hc        1 JI3      0.072700
     41 H72        -4.2950    3.5030   -2.6710 hc        1 JI3      0.072700
     42 H81        -5.1830    4.3710   -4.8340 hc        1 JI3      0.086700
     43 H82        -4.1420    6.0720   -6.7490 ha        1 JI3      0.143500
     44 H83        -5.1860    7.6050   -6.8770 ha        1 JI3      0.143500
     45 HN8        -3.5650    3.9130   -0.5870 hc        1 JI3      0.097700
     46 H91        -5.5930    2.0670   -0.3210 hn        1 JI3      0.456300
     47 H92        -4.4130    2.3340    2.4070 hx        1 JI3      0.109200
     48 H101       -3.4530    2.2200    0.8490 hx        1 JI3      0.109200
     49 H102       -5.4110    0.0610    1.9930 h1        1 JI3      0.073200
     50 HN11       -4.5560   -0.0420    0.3690 h1        1 JI3      0.073200
     51 H121       -3.3250   -0.1520    3.0510 hn        1 JI3      0.421800
     52 H122       -2.2280   -0.5020    0.3070 h4        1 JI3      0.147000
     53 C8         -4.8790    6.7370   -6.2750 c2        1 JI3     -0.114000
     54 H821       -6.4250    2.2450    1.1080 hn        1 JI3      0.456300
     55 H112       -1.5340    0.2630    4.0240 ha        1 JI3      0.126000
     56 H5         -6.6660    8.2580   -5.0350 ha        1 JI3      0.165000
@<TRIPOS>BOND
     1    1    2 2   
     2    1    7 1   
     3    1   26 1   
     4    2    3 1   
     5    2   27 1   
     6    3    4 1   
     7    3    5 1   
     8    3   28 1   
     9    5    6 2   
    10    5   29 1   
    11    6    7 1   
    12    6   55 1   
    13    7   25 2   
    14    8    9 1   
    15    8   10 2   
    16    8   14 1   
    17    9   30 1   
    18    9   31 1   
    19   10   11 1   
    20   10   56 1   
    21   11   12 1   
    22   11   53 2   
    23   12   13 1   
    24   12   32 1   
    25   12   42 1   
    26   13   14 2   
    27   13   20 1   
    28   15   16 1   
    29   15   19 2   
    30   15   34 1   
    31   16   17 1   
    32   16   35 1   
    33   16   36 1   
    34   17   18 1   
    35   17   21 1   
    36   17   37 1   
    37   18   20 1   
    38   18   38 1   
    39   18   45 1   
    40   19   33 1   
    41   19   39 1   
    42   20   40 1   
    43   20   41 1   
    44   21   22 1   
    45   21   46 1   
    46   21   54 1   
    47   22   23 1   
    48   22   47 1   
    49   22   48 1   
    50   23   24 1   
    51   23   49 1   
    52   23   50 1   
    53   24   25 1   
    54   24   51 1   
    55   25   52 1   
    56   43   53 1   
    57   44   53 1   
@<TRIPOS>SUBSTRUCTURE
     1 JI3         1 TEMP              0 ****  ****    0 ROOT
