@<TRIPOS>MOLECULE
JI4
   59    61     1     0     0
SMALL
bcc


@<TRIPOS>ATOM
      1 C1          0.0010   -0.1890   -0.1600 c3        1 JI4      0.072800
      2 N1          1.4600    0.0870   -0.1730 n4        1 JI4     -0.760000
      3 C2         -0.6730    0.1300   -1.5120 c3        1 JI4      0.073800
      4 N2         -2.1310   -0.1620   -1.5040 n4        1 JI4     -0.763000
      5 C3         -2.7650    0.1530   -2.8360 c3        1 JI4      0.104800
      6 C4         -4.2600   -0.1740   -2.8490 c3        1 JI4     -0.046100
      7 N1'         2.9620    1.8930    2.1910 n3        1 JI4     -0.802200
      8 C11        -4.7800    0.0940   -4.2190 ca        1 JI4     -0.118300
      9 C12        -4.4950   -0.8090   -5.2480 ca        1 JI4     -0.175000
     10 C13        -5.0130   -0.5770   -6.5350 ca        1 JI4      0.153900
     11 F13        -4.7350   -1.4450   -7.5310 f         1 JI4     -0.111900
     12 C14        -5.8180    0.5550   -6.7830 ca        1 JI4     -0.123000
     13 C15        -6.0930    1.4370   -5.7440 ca        1 JI4     -0.086000
     14 C16        -5.5760    1.2150   -4.4650 ca        1 JI4     -0.123000
     15 N11         6.5570    0.1300    0.1120 nb        1 JI4     -0.770000
     16 C2'         1.8220    1.0080    2.1840 c3        1 JI4      0.147800
     17 C21         5.7260   -0.9260   -0.0520 ca        1 JI4      0.420600
     18 C3'         2.0980   -0.1600    1.1800 c3        1 JI4      0.072500
     19 C31         6.1460   -2.2600   -0.1040 ca        1 JI4     -0.299300
     20 C4'         3.6490   -0.1950    1.1130 c3        1 JI4     -0.100700
     21 C41         7.5220   -2.5360    0.0210 ca        1 JI4      0.020700
     22 C5'         4.0970    1.2140    1.5750 c3        1 JI4      0.147800
     23 C51         8.4050   -1.4810    0.1970 ca        1 JI4     -0.287300
     24 C61         7.8960   -0.1380    0.2510 ca        1 JI4      0.688200
     25 N61         8.7660    0.9070    0.5070 nh        1 JI4     -0.950500
     26 C71         4.2540   -0.6270   -0.2050 c3        1 JI4     -0.129700
     27 C81         8.0050   -3.9350   -0.0230 c3        1 JI4     -0.072800
     28 H1         -0.1410   -1.2810    0.1000 hx        1 JI4      0.126700
     29 H1A        -0.4620    0.4310    0.6650 hx        1 JI4      0.126700
     30 HN1         1.6350    1.0650   -0.4370 hn        1 JI4      0.460800
     31 H2         -0.5430    1.2240   -1.7680 hx        1 JI4      0.128200
     32 H2A        -0.2050   -0.4840   -2.3390 hx        1 JI4      0.128200
     33 HN2        -2.5990    0.3950   -0.7770 hn        1 JI4      0.461800
     34 H3         -2.6070    1.2500   -3.0440 hx        1 JI4      0.118700
     35 H3A        -2.2350   -0.4550   -3.6260 hx        1 JI4      0.118700
     36 H4         -4.4310   -1.2540   -2.5890 hc        1 JI4      0.079200
     37 H4A        -4.8070    0.4570   -2.0970 hc        1 JI4      0.079200
     38 HN1'        2.7730    2.7810    1.7720 hn        1 JI4      0.382800
     39 H12        -3.8960   -1.7120   -5.0660 ha        1 JI4      0.140000
     40 H14        -6.2260    0.7210   -7.7940 ha        1 JI4      0.181000
     41 H15        -6.7310    2.3170   -5.9300 ha        1 JI4      0.168000
     42 H16        -5.8170    1.9190   -3.6540 ha        1 JI4      0.142000
     43 H2'         1.7490    0.5310    3.2070 h1        1 JI4      0.082200
     44 H2'A        0.8590    1.5460    1.9830 h1        1 JI4      0.082200
     45 H3'         1.6860   -1.1360    1.5570 hx        1 JI4      0.114700
     46 H31         5.4330   -3.0810   -0.2450 ha        1 JI4      0.136000
     47 H4'         3.9630   -0.9390    1.9040 hc        1 JI4      0.125700
     48 H5'         4.9070    1.1140    2.3520 h1        1 JI4      0.100700
     49 H5'A        4.5220    1.8050    0.7170 h1        1 JI4      0.100700
     50 H51         9.4840   -1.6680    0.2990 ha        1 JI4      0.163000
     51 HN61        8.4570    1.8410    0.3890 hn        1 JI4      0.437800
     52 HN6A        9.7340    0.7270    0.3900 hn        1 JI4      0.437800
     53 H71         3.7500   -1.5650   -0.5660 hc        1 JI4      0.040200
     54 H71A        4.1240    0.1710   -0.9870 hc        1 JI4      0.040200
     55 H81         7.4080   -4.5400   -0.7480 hc        1 JI4      0.063700
     56 H81A        7.9060   -4.4010    0.9910 hc        1 JI4      0.063700
     57 H81B        9.0810   -3.9810   -0.3240 hc        1 JI4      0.063700
     58 H121        1.9220   -0.5190   -0.8670 hn        1 JI4      0.460800
     59 H22        -2.2910   -1.1560   -1.2910 hn        1 JI4      0.461800
@<TRIPOS>BOND
     1    1    2 1   
     2    1    3 1   
     3    1   28 1   
     4    1   29 1   
     5    2   18 1   
     6    2   30 1   
     7    2   58 1   
     8    3    4 1   
     9    3   31 1   
    10    3   32 1   
    11    4    5 1   
    12    4   33 1   
    13    4   59 1   
    14    5    6 1   
    15    5   34 1   
    16    5   35 1   
    17    6    8 1   
    18    6   36 1   
    19    6   37 1   
    20    7   16 1   
    21    7   22 1   
    22    7   38 1   
    23    8    9 ar  
    24    8   14 ar  
    25    9   10 ar  
    26    9   39 1   
    27   10   11 1   
    28   10   12 ar  
    29   12   13 ar  
    30   12   40 1   
    31   13   14 ar  
    32   13   41 1   
    33   14   42 1   
    34   15   17 ar  
    35   15   24 ar  
    36   16   18 1   
    37   16   43 1   
    38   16   44 1   
    39   17   19 ar  
    40   17   26 1   
    41   18   20 1   
    42   18   45 1   
    43   19   21 ar  
    44   19   46 1   
    45   20   22 1   
    46   20   26 1   
    47   20   47 1   
    48   21   23 ar  
    49   21   27 1   
    50   22   48 1   
    51   22   49 1   
    52   23   24 ar  
    53   23   50 1   
    54   24   25 1   
    55   25   51 1   
    56   25   52 1   
    57   26   53 1   
    58   26   54 1   
    59   27   55 1   
    60   27   56 1   
    61   27   57 1   
@<TRIPOS>SUBSTRUCTURE
     1 JI4         1 TEMP              0 ****  ****    0 ROOT
