@<TRIPOS>MOLECULE
JI4
   57    59     1     0     0
SMALL
bcc


@<TRIPOS>ATOM
      1 C1          0.4490    1.3550   -0.9460 c3        1 JI4      0.160800
      2 N1         -0.8170    1.1590   -0.2680 n3        1 JI4     -0.826200
      3 C2          1.6360    0.8650   -0.0900 c3        1 JI4      0.160800
      4 N2          2.9080    1.1250   -0.7350 n3        1 JI4     -0.825200
      5 C3          4.0310    0.5790   -0.0000 c3        1 JI4      0.167800
      6 C4          5.3570    0.7240   -0.7530 c3        1 JI4     -0.044100
      7 N1'        -3.2360    3.3510    0.0490 n3        1 JI4     -0.790200
      8 C11         6.4870    0.2410    0.0880 ca        1 JI4     -0.054300
      9 C12         7.1050   -0.9780   -0.1990 ca        1 JI4     -0.165000
     10 C13         8.1790   -1.4170    0.5970 ca        1 JI4      0.125900
     11 F13         8.7810   -2.5990    0.3190 f         1 JI4     -0.142900
     12 C14         8.6320   -0.6380    1.6770 ca        1 JI4     -0.167000
     13 C15         8.0040    0.5750    1.9490 ca        1 JI4     -0.103000
     14 C16         6.9410    1.0140    1.1640 ca        1 JI4     -0.142000
     15 N11        -5.3020   -0.8350    1.4560 nb        1 JI4     -0.728000
     16 C2'        -2.2070    3.1130   -0.9530 c3        1 JI4      0.149800
     17 C21        -4.6510   -0.9290    0.2780 ca        1 JI4      0.451600
     18 C3'        -1.9620    1.5690   -1.0630 c3        1 JI4      0.149500
     19 C31        -5.1790   -1.5890   -0.8500 ca        1 JI4     -0.296300
     20 C4'        -3.3330    0.9850   -0.6160 c3        1 JI4     -0.085700
     21 C41        -6.4430   -2.1820   -0.7570 ca        1 JI4     -0.003300
     22 C5'        -4.0180    2.1240    0.1780 c3        1 JI4      0.146800
     23 C51        -7.1430   -2.0940    0.4460 ca        1 JI4     -0.302300
     24 C61        -6.5500   -1.3980    1.5420 ca        1 JI4      0.635200
     25 N61        -7.2950   -1.2190    2.7180 nh        1 JI4     -0.925500
     26 C71        -3.2790   -0.3130    0.1610 c3        1 JI4     -0.127700
     27 C81        -7.0200   -2.9000   -1.9160 c3        1 JI4     -0.061800
     28 H1          0.4790    0.8300   -1.9480 h1        1 JI4      0.034700
     29 H1A         0.5650    2.4580   -1.1440 h1        1 JI4      0.034700
     30 HN1        -0.9060    0.2060    0.0300 hn        1 JI4      0.361800
     31 H2          1.6370    1.4160    0.8930 h1        1 JI4      0.036200
     32 H2A         1.4940   -0.2330    0.1400 h1        1 JI4      0.036200
     33 HN2         2.9030    0.7850   -1.6790 hn        1 JI4      0.354800
     34 H3          4.1030    1.1410    0.9740 h1        1 JI4      0.035200
     35 H3A         3.8850   -0.5130    0.2550 h1        1 JI4      0.035200
     36 H4          5.3160    0.1440   -1.7140 hc        1 JI4      0.058200
     37 H4A         5.5270    1.8020   -1.0190 hc        1 JI4      0.058200
     38 HN1'       -2.8100    3.5790    0.9290 hn        1 JI4      0.352800
     39 H12         6.7660   -1.5990   -1.0400 ha        1 JI4      0.147000
     40 H14         9.4720   -0.9920    2.2910 ha        1 JI4      0.149000
     41 H15         8.3540    1.1900    2.7920 ha        1 JI4      0.138000
     42 H16         6.4520    1.9750    1.3850 ha        1 JI4      0.140000
     43 H2'        -2.6020    3.4720   -1.9420 h1        1 JI4      0.054200
     44 H2'A       -1.2690    3.6790   -0.7190 h1        1 JI4      0.054200
     45 H3'        -1.8070    1.3110   -2.1520 h1        1 JI4      0.027700
     46 H31        -4.6050   -1.6350   -1.7830 ha        1 JI4      0.140000
     47 H4'        -3.9240    0.8050   -1.5560 hc        1 JI4      0.057700
     48 H5'        -4.1550    1.8320    1.2540 h1        1 JI4      0.057200
     49 H5'A       -5.0350    2.3240   -0.2570 h1        1 JI4      0.057200
     50 H51        -8.1400   -2.5430    0.5430 ha        1 JI4      0.142000
     51 HN61       -6.7870   -0.8940    3.5110 hn        1 JI4      0.402800
     52 HN6A       -7.9160   -1.9710    2.9160 hn        1 JI4      0.402800
     53 H71        -2.8360   -0.1390    1.1780 hc        1 JI4      0.060700
     54 H71A       -2.6270   -1.0520   -0.3800 hc        1 JI4      0.060700
     55 H81        -6.5810   -3.9280   -1.9820 hc        1 JI4      0.049700
     56 H81A       -8.1300   -2.9970   -1.8210 hc        1 JI4      0.049700
     57 H81B       -6.7910   -2.3600   -2.8680 hc        1 JI4      0.049700
@<TRIPOS>BOND
     1    1    2 1   
     2    1    3 1   
     3    1   28 1   
     4    1   29 1   
     5    2   18 1   
     6    2   30 1   
     7    3    4 1   
     8    3   31 1   
     9    3   32 1   
    10    4    5 1   
    11    4   33 1   
    12    5    6 1   
    13    5   34 1   
    14    5   35 1   
    15    6    8 1   
    16    6   36 1   
    17    6   37 1   
    18    7   16 1   
    19    7   22 1   
    20    7   38 1   
    21    8    9 ar  
    22    8   14 ar  
    23    9   10 ar  
    24    9   39 1   
    25   10   11 1   
    26   10   12 ar  
    27   12   13 ar  
    28   12   40 1   
    29   13   14 ar  
    30   13   41 1   
    31   14   42 1   
    32   15   17 ar  
    33   15   24 ar  
    34   16   18 1   
    35   16   43 1   
    36   16   44 1   
    37   17   19 ar  
    38   17   26 1   
    39   18   20 1   
    40   18   45 1   
    41   19   21 ar  
    42   19   46 1   
    43   20   22 1   
    44   20   26 1   
    45   20   47 1   
    46   21   23 ar  
    47   21   27 1   
    48   22   48 1   
    49   22   49 1   
    50   23   24 ar  
    51   23   50 1   
    52   24   25 1   
    53   25   51 1   
    54   25   52 1   
    55   26   53 1   
    56   26   54 1   
    57   27   55 1   
    58   27   56 1   
    59   27   57 1   
@<TRIPOS>SUBSTRUCTURE
     1 JI4         1 TEMP              0 ****  ****    0 ROOT
