@<TRIPOS>MOLECULE
JI4
   60    62     1     0     0
SMALL
bcc


@<TRIPOS>ATOM
      1 C1          0.0290   -0.3200   -0.2950 c3        1 JI4      0.072800
      2 N1          1.4720    0.0550   -0.2900 n4        1 JI4     -0.759000
      3 C2         -0.6980    0.1060   -1.5890 c3        1 JI4      0.075800
      4 N2         -2.1390   -0.2590   -1.5850 n4        1 JI4     -0.765000
      5 C3         -2.8240    0.1680   -2.8640 c3        1 JI4      0.105800
      6 C4         -4.2940   -0.2590   -2.8920 c3        1 JI4     -0.044100
      7 N1'         2.8660    1.8180    2.1850 n3        1 JI4     -0.808200
      8 C11        -4.8540    0.1150   -4.2210 ca        1 JI4     -0.123300
      9 C12        -4.4990   -0.6320   -5.3490 ca        1 JI4     -0.179000
     10 C13        -5.0580   -0.3080   -6.5970 ca        1 JI4      0.155900
     11 F13        -4.7100   -1.0240   -7.6880 f         1 JI4     -0.109900
     12 C14        -5.9770    0.7560   -6.7100 ca        1 JI4     -0.118000
     13 C15        -6.3200    1.4820   -5.5750 ca        1 JI4     -0.083000
     14 C16        -5.7610    1.1710   -4.3320 ca        1 JI4     -0.120000
     15 N11         6.7020    0.1210    0.1660 nb        1 JI4     -0.670000
     16 C2'         1.7610    0.8930    2.1070 c3        1 JI4      0.151800
     17 C21         5.8260   -0.8940    0.0120 ca        1 JI4      0.429600
     18 C3'         2.1110   -0.2180    1.0550 c3        1 JI4      0.076500
     19 C31         6.2180   -2.2530    0.0460 ca        1 JI4     -0.202300
     20 C4'         3.6640   -0.1900    1.0490 c3        1 JI4     -0.110700
     21 C41         7.5630   -2.5840    0.2410 ca        1 JI4      0.030700
     22 C5'         4.0370    1.2240    1.5600 c3        1 JI4      0.156800
     23 C51         8.4950   -1.5390    0.3970 ca        1 JI4     -0.189300
     24 C61         8.0110   -0.2180    0.3490 ca        1 JI4      0.465200
     25 N61         8.9730    0.8990    0.5020 n4        1 JI4     -0.820300
     26 C71         4.3700   -0.5680   -0.2350 c3        1 JI4     -0.134700
     27 C81         8.0200   -3.9890    0.2780 c3        1 JI4     -0.094800
     28 H1         -0.0350   -1.4420   -0.1620 hx        1 JI4      0.131200
     29 H1A        -0.4570    0.1690    0.6030 hx        1 JI4      0.131200
     30 HN1         1.5730    1.0550   -0.5040 hn        1 JI4      0.457800
     31 H2         -0.6300    1.2260   -1.7280 hx        1 JI4      0.128200
     32 H2A        -0.2220   -0.3910   -2.4880 hx        1 JI4      0.128200
     33 HN2        -2.6190    0.1910   -0.7940 hn        1 JI4      0.464300
     34 H3         -2.2730   -0.3070   -3.7280 hx        1 JI4      0.118200
     35 H3A        -2.7440    1.2900   -2.9410 hx        1 JI4      0.118200
     36 H4         -4.3860   -1.3700   -2.7480 hc        1 JI4      0.080700
     37 H4A        -4.8670    0.2500   -2.0720 hc        1 JI4      0.080700
     38 HN1'        2.6540    2.7330    1.8410 hn        1 JI4      0.400800
     39 H12        -3.8140   -1.4880   -5.2740 ha        1 JI4      0.136000
     40 H14        -6.4190    0.9930   -7.6920 ha        1 JI4      0.185000
     41 H15        -7.0480    2.3080   -5.6550 ha        1 JI4      0.172000
     42 H16        -6.0590    1.7500   -3.4450 ha        1 JI4      0.144000
     43 H2'         0.7850    1.4060    1.9030 h1        1 JI4      0.094700
     44 H2'A        1.6760    0.3680    3.1050 h1        1 JI4      0.094700
     45 H3'         1.7340   -1.2250    1.3910 hx        1 JI4      0.124700
     46 H31         5.4710   -3.0520   -0.0850 ha        1 JI4      0.175000
     47 H4'         3.9590   -0.9360    1.8470 hc        1 JI4      0.121700
     48 H5'         4.8390    1.1400    2.3460 h1        1 JI4      0.082200
     49 H5'A        4.4380    1.8600    0.7230 h1        1 JI4      0.082200
     50 H51         9.5610   -1.7810    0.5470 ha        1 JI4      0.192000
     51 HN61        8.9410    1.5100   -0.3260 hn        1 JI4      0.481467
     52 HN6A        8.7400    1.4560    1.3350 hn        1 JI4      0.481467
     53 H71         4.3000    0.2630   -0.9890 hc        1 JI4      0.063700
     54 H71A        3.8960   -1.4850   -0.6800 hc        1 JI4      0.063700
     55 H81         8.6840   -4.2020   -0.6010 hc        1 JI4      0.091700
     56 H81A        7.1590   -4.7030    0.2480 hc        1 JI4      0.091700
     57 H81B        8.6100   -4.1860    1.2110 hc        1 JI4      0.091700
     58 H121        1.9700   -0.4790   -1.0140 hn        1 JI4      0.457800
     59 H22        -2.2480   -1.2770   -1.4820 hn        1 JI4      0.464300
     60 H613        9.9220    0.5160    0.6040 hn        1 JI4      0.481467
@<TRIPOS>BOND
     1    1    2 1   
     2    1    3 1   
     3    1   28 1   
     4    1   29 1   
     5    2   18 1   
     6    2   30 1   
     7    2   58 1   
     8    3    4 1   
     9    3   31 1   
    10    3   32 1   
    11    4    5 1   
    12    4   33 1   
    13    4   59 1   
    14    5    6 1   
    15    5   34 1   
    16    5   35 1   
    17    6    8 1   
    18    6   36 1   
    19    6   37 1   
    20    7   16 1   
    21    7   22 1   
    22    7   38 1   
    23    8    9 ar  
    24    8   14 ar  
    25    9   10 ar  
    26    9   39 1   
    27   10   11 1   
    28   10   12 ar  
    29   12   13 ar  
    30   12   40 1   
    31   13   14 ar  
    32   13   41 1   
    33   14   42 1   
    34   15   17 ar  
    35   15   24 ar  
    36   16   18 1   
    37   16   43 1   
    38   16   44 1   
    39   17   19 ar  
    40   17   26 1   
    41   18   20 1   
    42   18   45 1   
    43   19   21 ar  
    44   19   46 1   
    45   20   22 1   
    46   20   26 1   
    47   20   47 1   
    48   21   23 ar  
    49   21   27 1   
    50   22   48 1   
    51   22   49 1   
    52   23   24 ar  
    53   23   50 1   
    54   24   25 1   
    55   25   51 1   
    56   25   52 1   
    57   25   60 1   
    58   26   53 1   
    59   26   54 1   
    60   27   55 1   
    61   27   56 1   
    62   27   57 1   
@<TRIPOS>SUBSTRUCTURE
     1 JI4         1 TEMP              0 ****  ****    0 ROOT
