@<TRIPOS>MOLECULE
JI4
   59    61     1     0     0
SMALL
bcc


@<TRIPOS>ATOM
      1 C1          0.0000   -0.1840   -0.1590 c3        1 JI4      0.072800
      2 N1          1.4590    0.0890   -0.1710 ny        1 JI4     -0.760000
      3 C2         -0.6720    0.1360   -1.5120 c3        1 JI4      0.073800
      4 N2         -2.1310   -0.1520   -1.5040 ny        1 JI4     -0.763000
      5 C3         -2.7630    0.1630   -2.8380 c3        1 JI4      0.104800
      6 C4         -4.2590   -0.1590   -2.8510 c3        1 JI4     -0.046100
      7 N1'         2.9650    1.8890    2.1970 n7        1 JI4     -0.802200
      8 C11        -4.7760    0.1060   -4.2230 ca        1 JI4     -0.118300
      9 C12        -4.4940   -0.8020   -5.2490 ca        1 JI4     -0.175000
     10 C13        -5.0100   -0.5710   -6.5360 ca        1 JI4      0.153900
     11 F13        -4.7340   -1.4430   -7.5300 f         1 JI4     -0.111900
     12 C14        -5.8100    0.5620   -6.7900 ca        1 JI4     -0.123000
     13 C15        -6.0830    1.4480   -5.7530 ca        1 JI4     -0.086000
     14 C16        -5.5680    1.2290   -4.4730 ca        1 JI4     -0.123000
     15 N11         6.5570    0.1190    0.1190 nb        1 JI4     -0.770000
     16 C2'         1.8220    1.0060    2.1870 c3        1 JI4      0.147800
     17 C21         5.7230   -0.9340   -0.0480 ca        1 JI4      0.420600
     18 C3'         2.0960   -0.1610    1.1820 c3        1 JI4      0.072500
     19 C31         6.1390   -2.2690   -0.0990 ca        1 JI4     -0.299300
     20 C4'         3.6470   -0.1990    1.1160 c3        1 JI4     -0.100700
     21 C41         7.5140   -2.5500    0.0310 ca        1 JI4      0.020700
     22 C5'         4.0980    1.2080    1.5800 c3        1 JI4      0.147800
     23 C51         8.3990   -1.4980    0.2130 ca        1 JI4     -0.288300
     24 C61         7.8950   -0.1520    0.2640 ca        1 JI4      0.688200
     25 N61         8.7670    0.8890    0.5230 nv        1 JI4     -0.950500
     26 C71         4.2530   -0.6300   -0.2030 c3        1 JI4     -0.129700
     27 C81         7.9960   -3.9470   -0.0390 c3        1 JI4     -0.072800
     28 H1         -0.1440   -1.2760    0.1000 hx        1 JI4      0.126700
     29 H1A        -0.4630    0.4370    0.6650 hx        1 JI4      0.126700
     30 HN1         1.9210   -0.5170   -0.8650 hn        1 JI4      0.460800
     31 H2         -0.5390    1.2290   -1.7680 hx        1 JI4      0.128200
     32 H2A        -0.2050   -0.4790   -2.3380 hx        1 JI4      0.128200
     33 HN2        -2.2940   -1.1450   -1.2900 hn        1 JI4      0.461800
     34 H3         -2.2340   -0.4490   -3.6260 hx        1 JI4      0.118700
     35 H3A        -2.6010    1.2580   -3.0480 hx        1 JI4      0.118700
     36 H4         -4.4330   -1.2380   -2.5880 hc        1 JI4      0.079200
     37 H4A        -4.8040    0.4760   -2.1020 hc        1 JI4      0.079200
     38 HN1'        2.7780    2.7780    1.7780 hn        1 JI4      0.382800
     39 H12        -3.8980   -1.7060   -5.0620 ha        1 JI4      0.140000
     40 H14        -6.2170    0.7270   -7.8010 ha        1 JI4      0.181000
     41 H15        -6.7180    2.3300   -5.9430 ha        1 JI4      0.168000
     42 H16        -5.8080    1.9360   -3.6650 ha        1 JI4      0.142000
     43 H2'         1.7470    0.5290    3.2090 h1        1 JI4      0.082200
     44 H2'A        0.8600    1.5470    1.9860 h1        1 JI4      0.082200
     45 H3'         1.6830   -1.1360    1.5580 hx        1 JI4      0.114700
     46 H31         5.4240   -3.0880   -0.2410 ha        1 JI4      0.136000
     47 H4'         3.9590   -0.9450    1.9060 hc        1 JI4      0.125700
     48 H5'         4.9070    1.1050    2.3590 h1        1 JI4      0.100700
     49 H5'A        4.5260    1.7990    0.7240 h1        1 JI4      0.100700
     50 H51         9.4770   -1.6880    0.3240 ha        1 JI4      0.163000
     51 HN61        9.7350    0.7060    0.4110 hn        1 JI4      0.437800
     52 HN6A        8.4610    1.8250    0.4050 hn        1 JI4      0.437800
     53 H71         4.1260    0.1690   -0.9820 hc        1 JI4      0.040200
     54 H71A        3.7470   -1.5660   -0.5660 hc        1 JI4      0.040200
     55 H81         7.2600   -4.6470    0.4280 hc        1 JI4      0.063367
     56 H81A        8.9770   -4.0630    0.4850 hc        1 JI4      0.063367
     57 H81B        8.1350   -4.2460   -1.1100 hc        1 JI4      0.063367
     58 H121        1.6370    1.0660   -0.4340 hn        1 JI4      0.460800
     59 H22        -2.5980    0.4080   -0.7790 hn        1 JI4      0.461800
@<TRIPOS>BOND
     1    1    2 1   
     2    1    3 1   
     3    1   28 1   
     4    1   29 1   
     5    2   18 1   
     6    2   30 1   
     7    2   58 1   
     8    3    4 1   
     9    3   31 1   
    10    3   32 1   
    11    4    5 1   
    12    4   33 1   
    13    4   59 1   
    14    5    6 1   
    15    5   34 1   
    16    5   35 1   
    17    6    8 1   
    18    6   36 1   
    19    6   37 1   
    20    7   16 1   
    21    7   22 1   
    22    7   38 1   
    23    8    9 ar  
    24    8   14 ar  
    25    9   10 ar  
    26    9   39 1   
    27   10   11 1   
    28   10   12 ar  
    29   12   13 ar  
    30   12   40 1   
    31   13   14 ar  
    32   13   41 1   
    33   14   42 1   
    34   15   17 ar  
    35   15   24 ar  
    36   16   18 1   
    37   16   43 1   
    38   16   44 1   
    39   17   19 ar  
    40   17   26 1   
    41   18   20 1   
    42   18   45 1   
    43   19   21 ar  
    44   19   46 1   
    45   20   22 1   
    46   20   26 1   
    47   20   47 1   
    48   21   23 ar  
    49   21   27 1   
    50   22   48 1   
    51   22   49 1   
    52   23   24 ar  
    53   23   50 1   
    54   24   25 1   
    55   25   51 1   
    56   25   52 1   
    57   26   53 1   
    58   26   54 1   
    59   27   55 1   
    60   27   56 1   
    61   27   57 1   
@<TRIPOS>SUBSTRUCTURE
     1 JI4         1 TEMP              0 ****  ****    0 ROOT
