@<TRIPOS>MOLECULE
JI5
   60    62     1     0     0
SMALL
bcc


@<TRIPOS>ATOM
      1 C1         -0.0770    0.4530   -0.2130 c3        1 JI5      0.072800
      2 N1          1.4110    0.3860   -0.2710 n4        1 JI5     -0.760000
      3 C2         -0.7400    0.2810   -1.5970 c3        1 JI5      0.075800
      4 N2         -2.2250    0.2890   -1.5290 n4        1 JI5     -0.765000
      5 C3         -2.8450    0.0950   -2.8940 c3        1 JI5      0.105800
      6 C4         -4.3730    0.0420   -2.8220 c3        1 JI5     -0.044100
      7 N1'         3.1600   -1.7290    1.6790 n3        1 JI5     -0.809200
      8 C11        -4.8860   -0.2530   -4.1900 ca        1 JI5     -0.123300
      9 N11         5.9060    2.5710    1.3530 nb        1 JI5     -0.672000
     10 C12        -4.7570   -1.5460   -4.7060 ca        1 JI5     -0.179000
     11 C13        -5.2770   -1.8380   -5.9790 ca        1 JI5      0.155900
     12 F13        -5.1460   -3.0840   -6.4820 f         1 JI5     -0.109900
     13 C14        -5.9330   -0.8360   -6.7260 ca        1 JI5     -0.118000
     14 C15        -6.0550    0.4420   -6.1910 ca        1 JI5     -0.084000
     15 C16        -5.5320    0.7410   -4.9300 ca        1 JI5     -0.121000
     16 C2'         1.8970   -1.0400    1.7950 c3        1 JI5      0.152800
     17 C21         5.6030    1.7970    0.2890 ca        1 JI5      0.430600
     18 C3'         2.0230    0.3660    1.1130 c3        1 JI5      0.078500
     19 C31         6.5820    1.3310   -0.6200 ca        1 JI5     -0.202300
     20 C4'         3.5550    0.6190    1.1460 c3        1 JI5     -0.109700
     21 C41         7.9250    1.6750   -0.4310 ca        1 JI5      0.030700
     22 C5'         4.1880   -0.7910    1.2610 c3        1 JI5      0.154800
     23 C51         8.2620    2.4850    0.6710 ca        1 JI5     -0.190300
     24 C61         7.2200    2.8990    1.5220 ca        1 JI5      0.466200
     25 N61         7.5480    3.7550    2.6860 n4        1 JI5     -0.820300
     26 C71         4.1540    1.4480    0.0320 c3        1 JI5     -0.132700
     27 C81         8.9810    1.2170   -1.3580 c3        1 JI5     -0.095800
     28 H1         -0.3590    1.4540    0.2330 hx        1 JI5      0.130700
     29 H1A        -0.4310   -0.3580    0.4930 hx        1 JI5      0.130700
     30 HN1         1.7020   -0.4640   -0.7710 hn        1 JI5      0.457800
     31 H2         -0.4250    1.1180   -2.2900 hx        1 JI5      0.128200
     32 H2A        -0.4260   -0.7010   -2.0640 hx        1 JI5      0.128200
     33 HN2        -2.5590    1.1820   -1.1430 hn        1 JI5      0.463800
     34 H3         -2.4510   -0.8730   -3.3210 hx        1 JI5      0.118700
     35 H3A        -2.5170    0.9530   -3.5470 hx        1 JI5      0.118700
     36 H4         -4.7840    1.0200   -2.4550 hc        1 JI5      0.080700
     37 H4A        -4.7090   -0.7660   -2.1160 hc        1 JI5      0.080700
     38 HN1'        3.1250   -2.5570    1.1190 hn        1 JI5      0.405800
     39 H12        -4.2820   -2.3480   -4.1240 ha        1 JI5      0.137000
     40 H14        -6.3480   -1.0800   -7.7180 ha        1 JI5      0.185000
     41 H15        -6.5790    1.2250   -6.7650 ha        1 JI5      0.172000
     42 H16        -5.6540    1.7550   -4.5200 ha        1 JI5      0.143000
     43 H2'         1.0390   -1.6490    1.4020 h1        1 JI5      0.092200
     44 H2'A        1.7080   -0.8450    2.8930 h1        1 JI5      0.092200
     45 H3'         1.4820    1.1530    1.7100 hx        1 JI5      0.123700
     46 H31         6.2930    0.7020   -1.4760 ha        1 JI5      0.175000
     47 H4'         3.7250    1.1590    2.1260 hc        1 JI5      0.128700
     48 H5'         4.6690   -1.0920    0.2900 h1        1 JI5      0.079700
     49 H5'A        4.9880   -0.7840    2.0550 h1        1 JI5      0.079700
     50 H51         9.3160    2.7680    0.8340 ha        1 JI5      0.192000
     51 HN61        7.3220    3.2630    3.5610 hn        1 JI5      0.481467
     52 HN6A        8.5520    3.9760    2.6710 hn        1 JI5      0.481467
     53 H71         3.5790    2.4090   -0.0820 hc        1 JI5      0.062700
     54 H71A        4.1080    0.8930   -0.9440 hc        1 JI5      0.062700
     55 H81         8.5780    0.5090   -2.1240 hc        1 JI5      0.092033
     56 H81A        9.4330    2.0930   -1.8930 hc        1 JI5      0.092033
     57 H81B        9.8000    0.6980   -0.7940 hc        1 JI5      0.092033
     58 H121        1.7730    1.2010   -0.7840 hn        1 JI5      0.457800
     59 H22        -2.5570   -0.4660   -0.9120 hn        1 JI5      0.463800
     60 H613        7.0080    4.6300    2.6480 hn        1 JI5      0.481467
@<TRIPOS>BOND
     1    1    2 1   
     2    1    3 1   
     3    1   28 1   
     4    1   29 1   
     5    2   18 1   
     6    2   30 1   
     7    2   58 1   
     8    3    4 1   
     9    3   31 1   
    10    3   32 1   
    11    4    5 1   
    12    4   33 1   
    13    4   59 1   
    14    5    6 1   
    15    5   34 1   
    16    5   35 1   
    17    6    8 1   
    18    6   36 1   
    19    6   37 1   
    20    7   16 1   
    21    7   22 1   
    22    7   38 1   
    23    8   10 ar  
    24    8   15 ar  
    25    9   17 ar  
    26    9   24 ar  
    27   10   11 ar  
    28   10   39 1   
    29   11   12 1   
    30   11   13 ar  
    31   13   14 ar  
    32   13   40 1   
    33   14   15 ar  
    34   14   41 1   
    35   15   42 1   
    36   16   18 1   
    37   16   43 1   
    38   16   44 1   
    39   17   19 ar  
    40   17   26 1   
    41   18   20 1   
    42   18   45 1   
    43   19   21 ar  
    44   19   46 1   
    45   20   22 1   
    46   20   26 1   
    47   20   47 1   
    48   21   23 ar  
    49   21   27 1   
    50   22   48 1   
    51   22   49 1   
    52   23   24 ar  
    53   23   50 1   
    54   24   25 1   
    55   25   51 1   
    56   25   52 1   
    57   25   60 1   
    58   26   53 1   
    59   26   54 1   
    60   27   55 1   
    61   27   56 1   
    62   27   57 1   
@<TRIPOS>SUBSTRUCTURE
     1 JI5         1 TEMP              0 ****  ****    0 ROOT
