@<TRIPOS>MOLECULE
JI5
   59    61     1     0     0
SMALL
bcc


@<TRIPOS>ATOM
      1 C1         -0.0450    0.1110   -0.1130 c3        1 JI5      0.073800
      2 N1          1.4380    0.1790   -0.1760 ny        1 JI5     -0.758000
      3 C2         -0.6960    0.1160   -1.5130 c3        1 JI5      0.073800
      4 N2         -2.1800    0.0730   -1.4490 ny        1 JI5     -0.763000
      5 C3         -2.7930    0.0690   -2.8280 c3        1 JI5      0.104800
      6 C4         -4.3200   -0.0040   -2.7750 c3        1 JI5     -0.046100
      7 N1'         3.4290   -1.8100    1.8050 n7        1 JI5     -0.785200
      8 C11        -4.8280   -0.0840   -4.1730 ca        1 JI5     -0.118300
      9 N11         5.6510    2.7510    0.9150 nb        1 JI5     -0.774000
     10 C12        -4.7200   -1.2900   -4.8730 ca        1 JI5     -0.175000
     11 C13        -5.2290   -1.3790   -6.1810 ca        1 JI5      0.153900
     12 F13        -5.1210   -2.5410   -6.8610 f         1 JI5     -0.111900
     13 C14        -5.8490   -0.2620   -6.7790 ca        1 JI5     -0.123000
     14 C15        -5.9510    0.9250   -6.0630 ca        1 JI5     -0.086000
     15 C16        -5.4410    1.0220   -4.7660 ca        1 JI5     -0.123000
     16 C2'         2.0760   -1.3100    1.8090 c3        1 JI5      0.144800
     17 C21         5.5180    1.6540    0.1320 ca        1 JI5      0.421600
     18 C3'         2.0640    0.1350    1.2020 c3        1 JI5      0.072500
     19 C31         6.5790    1.0050   -0.5060 ca        1 JI5     -0.305300
     20 C4'         3.5540    0.5750    1.2250 c3        1 JI5     -0.111700
     21 C41         7.8800    1.5220   -0.3400 ca        1 JI5      0.023700
     22 C5'         4.3350   -0.6760    1.7090 c3        1 JI5      0.144800
     23 C51         8.0580    2.6490    0.4470 ca        1 JI5     -0.292300
     24 C61         6.9150    3.2650    1.0680 ca        1 JI5      0.697200
     25 N61         7.0840    4.4210    1.8000 nv        1 JI5     -0.961500
     26 C71         4.1180    1.1260   -0.0700 c3        1 JI5     -0.129700
     27 C81         9.0280    0.8710   -1.0090 c3        1 JI5     -0.072800
     28 H1         -0.4050    0.9990    0.4880 hx        1 JI5      0.127200
     29 H1A        -0.3240   -0.8310    0.4480 hx        1 JI5      0.127200
     30 HN1         1.8070   -0.6050   -0.7270 hn        1 JI5      0.461300
     31 H2         -0.4030    1.0500   -2.0800 hx        1 JI5      0.128200
     32 H2A        -0.3510   -0.7810   -2.1090 hx        1 JI5      0.128200
     33 HN2        -2.4890   -0.7730   -0.9510 hn        1 JI5      0.462300
     34 H3         -2.3880   -0.8240   -3.3860 hx        1 JI5      0.118700
     35 H3A        -2.4680    1.0130   -3.3530 hx        1 JI5      0.118700
     36 H4         -4.6530   -0.9130   -2.2040 hc        1 JI5      0.079200
     37 H4A        -4.7390    0.9030   -2.2630 hc        1 JI5      0.079200
     38 HN1'        3.5890   -2.4890    1.0860 hn        1 JI5      0.379800
     39 H12        -4.2680   -2.1790   -4.4110 ha        1 JI5      0.140000
     40 H14        -6.2530   -0.3470   -7.8020 ha        1 JI5      0.181000
     41 H15        -6.4450    1.7980   -6.5220 ha        1 JI5      0.168000
     42 H16        -5.5440    1.9680   -4.2130 ha        1 JI5      0.142000
     43 H2'         1.3630   -2.0100    1.3000 h1        1 JI5      0.081700
     44 H2'A        1.7540   -1.2040    2.8880 h1        1 JI5      0.081700
     45 H3'         1.4510    0.8270    1.8460 hx        1 JI5      0.113700
     46 H31         6.4180    0.1170   -1.1290 ha        1 JI5      0.136000
     47 H4'         3.6350    1.3760    2.0160 hc        1 JI5      0.133700
     48 H5'         4.7450   -0.4780    2.7400 h1        1 JI5      0.099700
     49 H5'A        5.2050   -0.8920    1.0300 h1        1 JI5      0.099700
     50 H51         9.0610    3.0760    0.5910 ha        1 JI5      0.163000
     51 HN61        6.3330    4.7990    2.3230 hn        1 JI5      0.443800
     52 HN6A        8.0070    4.6920    2.0360 hn        1 JI5      0.443800
     53 H71         4.1500    0.3280   -0.8590 hc        1 JI5      0.038200
     54 H71A        3.4870    1.9780   -0.4470 hc        1 JI5      0.038200
     55 H81         8.8970   -0.2390   -1.0390 hc        1 JI5      0.063367
     56 H81A        9.9880    1.1010   -0.4820 hc        1 JI5      0.063367
     57 H81B        9.1110    1.2430   -2.0630 hc        1 JI5      0.063367
     58 H121        1.7260    1.0570   -0.6340 hn        1 JI5      0.461300
     59 H22        -2.5360    0.8890   -0.9340 hn        1 JI5      0.462300
@<TRIPOS>BOND
     1    1    2 1   
     2    1    3 1   
     3    1   28 1   
     4    1   29 1   
     5    2   18 1   
     6    2   30 1   
     7    2   58 1   
     8    3    4 1   
     9    3   31 1   
    10    3   32 1   
    11    4    5 1   
    12    4   33 1   
    13    4   59 1   
    14    5    6 1   
    15    5   34 1   
    16    5   35 1   
    17    6    8 1   
    18    6   36 1   
    19    6   37 1   
    20    7   16 1   
    21    7   22 1   
    22    7   38 1   
    23    8   10 ar  
    24    8   15 ar  
    25    9   17 ar  
    26    9   24 ar  
    27   10   11 ar  
    28   10   39 1   
    29   11   12 1   
    30   11   13 ar  
    31   13   14 ar  
    32   13   40 1   
    33   14   15 ar  
    34   14   41 1   
    35   15   42 1   
    36   16   18 1   
    37   16   43 1   
    38   16   44 1   
    39   17   19 ar  
    40   17   26 1   
    41   18   20 1   
    42   18   45 1   
    43   19   21 ar  
    44   19   46 1   
    45   20   22 1   
    46   20   26 1   
    47   20   47 1   
    48   21   23 ar  
    49   21   27 1   
    50   22   48 1   
    51   22   49 1   
    52   23   24 ar  
    53   23   50 1   
    54   24   25 1   
    55   25   51 1   
    56   25   52 1   
    57   26   53 1   
    58   26   54 1   
    59   27   55 1   
    60   27   56 1   
    61   27   57 1   
@<TRIPOS>SUBSTRUCTURE
     1 JI5         1 TEMP              0 ****  ****    0 ROOT
