@<TRIPOS>MOLECULE
JI5
   59    61     1     0     0
SMALL
bcc


@<TRIPOS>ATOM
      1 C1         -0.0440    0.1130   -0.1110 c3        1 JI5      0.073800
      2 N1          1.4380    0.1780   -0.1720 n4        1 JI5     -0.758000
      3 C2         -0.6940    0.1180   -1.5120 c3        1 JI5      0.073800
      4 N2         -2.1790    0.0760   -1.4500 n4        1 JI5     -0.763000
      5 C3         -2.7890    0.0710   -2.8290 c3        1 JI5      0.104800
      6 C4         -4.3170   -0.0010   -2.7780 c3        1 JI5     -0.046100
      7 N1'         3.4240   -1.8140    1.8110 n3        1 JI5     -0.785200
      8 C11        -4.8230   -0.0850   -4.1770 ca        1 JI5     -0.118300
      9 N11         5.6540    2.7440    0.9250 nb        1 JI5     -0.774000
     10 C12        -4.7160   -1.2930   -4.8730 ca        1 JI5     -0.175000
     11 C13        -5.2240   -1.3840   -6.1810 ca        1 JI5      0.153900
     12 F13        -5.1170   -2.5480   -6.8570 f         1 JI5     -0.111900
     13 C14        -5.8410   -0.2680   -6.7830 ca        1 JI5     -0.123000
     14 C15        -5.9410    0.9220   -6.0710 ca        1 JI5     -0.086000
     15 C16        -5.4330    1.0220   -4.7740 ca        1 JI5     -0.123000
     16 C2'         2.0720   -1.3110    1.8140 c3        1 JI5      0.144800
     17 C21         5.5200    1.6480    0.1410 ca        1 JI5      0.421600
     18 C3'         2.0630    0.1330    1.2060 c3        1 JI5      0.072500
     19 C31         6.5810    0.9980   -0.4980 ca        1 JI5     -0.305300
     20 C4'         3.5530    0.5710    1.2310 c3        1 JI5     -0.111700
     21 C41         7.8820    1.5130   -0.3300 ca        1 JI5      0.023700
     22 C5'         4.3320   -0.6810    1.7160 c3        1 JI5      0.144800
     23 C51         8.0620    2.6390    0.4590 ca        1 JI5     -0.292300
     24 C61         6.9200    3.2560    1.0800 ca        1 JI5      0.697200
     25 N61         7.0890    4.4100    1.8140 nh        1 JI5     -0.961500
     26 C71         4.1200    1.1220   -0.0630 c3        1 JI5     -0.129700
     27 C81         9.0300    0.8620   -1.0000 c3        1 JI5     -0.072800
     28 H1         -0.4040    1.0020    0.4890 hx        1 JI5      0.127200
     29 H1A        -0.3260   -0.8280    0.4500 hx        1 JI5      0.127200
     30 HN1         1.8070   -0.6060   -0.7230 hn        1 JI5      0.461300
     31 H2         -0.3490   -0.7800   -2.1070 hx        1 JI5      0.128200
     32 H2A        -0.4000    1.0510   -2.0790 hx        1 JI5      0.128200
     33 HN2        -2.4880   -0.7690   -0.9510 hn        1 JI5      0.462300
     34 H3         -2.3840   -0.8240   -3.3860 hx        1 JI5      0.118700
     35 H3A        -2.4640    1.0140   -3.3560 hx        1 JI5      0.118700
     36 H4         -4.7360    0.9070   -2.2680 hc        1 JI5      0.079200
     37 H4A        -4.6510   -0.9080   -2.2050 hc        1 JI5      0.079200
     38 HN1'        3.5840   -2.4930    1.0920 hn        1 JI5      0.379800
     39 H12        -4.2660   -2.1810   -4.4080 ha        1 JI5      0.140000
     40 H14        -6.2440   -0.3540   -7.8060 ha        1 JI5      0.181000
     41 H15        -6.4340    1.7940   -6.5330 ha        1 JI5      0.168000
     42 H16        -5.5360    1.9690   -4.2220 ha        1 JI5      0.142000
     43 H2'         1.3590   -2.0110    1.3040 h1        1 JI5      0.081700
     44 H2'A        1.7500   -1.2050    2.8920 h1        1 JI5      0.081700
     45 H3'         1.4500    0.8260    1.8500 hx        1 JI5      0.113700
     46 H31         6.4190    0.1110   -1.1220 ha        1 JI5      0.136000
     47 H4'         3.6350    1.3720    2.0220 hc        1 JI5      0.133700
     48 H5'         4.7420   -0.4840    2.7470 h1        1 JI5      0.099700
     49 H5'A        5.2020   -0.8980    1.0370 h1        1 JI5      0.099700
     50 H51         9.0650    3.0640    0.6040 ha        1 JI5      0.163000
     51 HN61        8.0120    4.6790    2.0510 hn        1 JI5      0.443800
     52 HN6A        6.3380    4.7880    2.3370 hn        1 JI5      0.443800
     53 H71         3.4900    1.9750   -0.4400 hc        1 JI5      0.037700
     54 H71A        4.1520    0.3240   -0.8520 hc        1 JI5      0.037700
     55 H81         8.8970   -0.2480   -1.0310 hc        1 JI5      0.063367
     56 H81A        9.1140    1.2360   -2.0520 hc        1 JI5      0.063367
     57 H81B        9.9890    1.0890   -0.4710 hc        1 JI5      0.063367
     58 H121        1.7290    1.0560   -0.6310 hn        1 JI5      0.461300
     59 H22        -2.5340    0.8930   -0.9360 hn        1 JI5      0.462300
@<TRIPOS>BOND
     1    1    2 1   
     2    1    3 1   
     3    1   28 1   
     4    1   29 1   
     5    2   18 1   
     6    2   30 1   
     7    2   58 1   
     8    3    4 1   
     9    3   31 1   
    10    3   32 1   
    11    4    5 1   
    12    4   33 1   
    13    4   59 1   
    14    5    6 1   
    15    5   34 1   
    16    5   35 1   
    17    6    8 1   
    18    6   36 1   
    19    6   37 1   
    20    7   16 1   
    21    7   22 1   
    22    7   38 1   
    23    8   10 ar  
    24    8   15 ar  
    25    9   17 ar  
    26    9   24 ar  
    27   10   11 ar  
    28   10   39 1   
    29   11   12 1   
    30   11   13 ar  
    31   13   14 ar  
    32   13   40 1   
    33   14   15 ar  
    34   14   41 1   
    35   15   42 1   
    36   16   18 1   
    37   16   43 1   
    38   16   44 1   
    39   17   19 ar  
    40   17   26 1   
    41   18   20 1   
    42   18   45 1   
    43   19   21 ar  
    44   19   46 1   
    45   20   22 1   
    46   20   26 1   
    47   20   47 1   
    48   21   23 ar  
    49   21   27 1   
    50   22   48 1   
    51   22   49 1   
    52   23   24 ar  
    53   23   50 1   
    54   24   25 1   
    55   25   51 1   
    56   25   52 1   
    57   26   53 1   
    58   26   54 1   
    59   27   55 1   
    60   27   56 1   
    61   27   57 1   
@<TRIPOS>SUBSTRUCTURE
     1 JI5         1 TEMP              0 ****  ****    0 ROOT
