@<TRIPOS>MOLECULE
JI5
   57    59     1     0     0
SMALL
bcc


@<TRIPOS>ATOM
      1 C1          0.4080   -1.5570   -0.7420 c3        1 JI5      0.161800
      2 N1         -0.8620   -1.0340   -0.2800 n3        1 JI5     -0.818200
      3 C2          1.5830   -0.6350   -0.3470 c3        1 JI5      0.159800
      4 N2          2.8460   -1.1210   -0.8660 n3        1 JI5     -0.824200
      5 C3          3.9770   -0.3320   -0.4190 c3        1 JI5      0.166800
      6 C4          5.3210   -0.9320   -0.8410 c3        1 JI5     -0.044100
      7 N1'        -3.1040   -3.1740    1.3090 n3        1 JI5     -0.799200
      8 C11         6.4380   -0.0280   -0.4500 ca        1 JI5     -0.053300
      9 N11        -5.6350    0.5350   -1.1290 nb        1 JI5     -0.732000
     10 C12         7.2660   -0.3590    0.6250 ca        1 JI5     -0.164000
     11 C13         8.3250    0.4980    0.9760 ca        1 JI5      0.125900
     12 F13         9.1300    0.1780    2.0180 f         1 JI5     -0.142900
     13 C14         8.5540    1.6830    0.2530 ca        1 JI5     -0.167000
     14 C15         7.7190    1.9970   -0.8160 ca        1 JI5     -0.103000
     15 C16         6.6690    1.1520   -1.1680 ca        1 JI5     -0.142000
     16 C2'        -1.9910   -3.2250    0.3690 c3        1 JI5      0.107800
     17 C21        -4.7810    0.7890   -0.1130 ca        1 JI5      0.449600
     18 C3'        -1.9800   -1.9270   -0.5100 c3        1 JI5      0.164500
     19 C31        -5.1220    1.5860    0.9980 ca        1 JI5     -0.293300
     20 C4'        -3.3680   -1.2840   -0.2230 c3        1 JI5     -0.080700
     21 C41        -6.4040    2.1440    1.0670 ca        1 JI5     -0.006300
     22 C5'        -3.8160   -1.9160    1.1100 c3        1 JI5      0.140800
     23 C51        -7.3060    1.8920    0.0350 ca        1 JI5     -0.302300
     24 C61        -6.8960    1.0650   -1.0540 ca        1 JI5      0.630200
     25 N61        -7.8360    0.7240   -2.0420 nh        1 JI5     -0.922500
     26 C71        -3.3840    0.2280   -0.1880 c3        1 JI5     -0.110700
     27 C81        -6.7950    2.9800    2.2250 c3        1 JI5     -0.060800
     28 H1          0.6120   -2.5960   -0.3470 h1        1 JI5      0.036200
     29 H1A         0.3570   -1.6280   -1.8650 h1        1 JI5      0.036200
     30 HN1        -0.8130   -0.7750    0.6880 hn        1 JI5      0.361800
     31 H2          1.4110    0.3900   -0.7810 h1        1 JI5      0.036700
     32 H2A         1.6010   -0.5260    0.7780 h1        1 JI5      0.036700
     33 HN2         2.9760   -2.0890   -0.6340 hn        1 JI5      0.354800
     34 H3          3.8760    0.6930   -0.8790 h1        1 JI5      0.035700
     35 H3A         3.9860   -0.1940    0.7040 h1        1 JI5      0.035700
     36 H4          5.4540   -1.9400   -0.3640 hc        1 JI5      0.057700
     37 H4A         5.3370   -1.0820   -1.9540 hc        1 JI5      0.057700
     38 HN1'       -3.7200   -3.9510    1.1600 hn        1 JI5      0.350800
     39 H12         7.1020   -1.2820    1.2000 ha        1 JI5      0.148000
     40 H14         9.3850    2.3440    0.5370 ha        1 JI5      0.148000
     41 H15         7.8930    2.9220   -1.3870 ha        1 JI5      0.138000
     42 H16         6.0160    1.4080   -2.0160 ha        1 JI5      0.140000
     43 H2'        -1.0480   -3.3160    0.9750 h1        1 JI5      0.043200
     44 H2'A       -2.0480   -4.1230   -0.3020 h1        1 JI5      0.043200
     45 H3'        -1.9420   -2.2280   -1.5950 h1        1 JI5      0.064700
     46 H31        -4.3920    1.7680    1.7970 ha        1 JI5      0.142000
     47 H4'        -4.0560   -1.6340   -1.0410 hc        1 JI5      0.072700
     48 H5'        -4.9290   -2.0610    1.1240 h1        1 JI5      0.051200
     49 H5'A       -3.5460   -1.2390    1.9670 h1        1 JI5      0.051200
     50 H51        -8.3190    2.3130    0.0660 ha        1 JI5      0.141000
     51 HN61       -7.4630    0.3130   -2.8690 hn        1 JI5      0.399300
     52 HN6A       -8.5000    1.4450   -2.2190 hn        1 JI5      0.399300
     53 H71        -2.8820    0.6230   -1.1130 hc        1 JI5      0.065200
     54 H71A       -2.8030    0.6020    0.6980 hc        1 JI5      0.065200
     55 H81        -5.9440    3.6280    2.5500 hc        1 JI5      0.049367
     56 H81A       -7.6660    3.6340    1.9770 hc        1 JI5      0.049367
     57 H81B       -7.0820    2.3220    3.0850 hc        1 JI5      0.049367
@<TRIPOS>BOND
     1    1    2 1   
     2    1    3 1   
     3    1   28 1   
     4    1   29 1   
     5    2   18 1   
     6    2   30 1   
     7    3    4 1   
     8    3   31 1   
     9    3   32 1   
    10    4    5 1   
    11    4   33 1   
    12    5    6 1   
    13    5   34 1   
    14    5   35 1   
    15    6    8 1   
    16    6   36 1   
    17    6   37 1   
    18    7   16 1   
    19    7   22 1   
    20    7   38 1   
    21    8   10 ar  
    22    8   15 ar  
    23    9   17 ar  
    24    9   24 ar  
    25   10   11 ar  
    26   10   39 1   
    27   11   12 1   
    28   11   13 ar  
    29   13   14 ar  
    30   13   40 1   
    31   14   15 ar  
    32   14   41 1   
    33   15   42 1   
    34   16   18 1   
    35   16   43 1   
    36   16   44 1   
    37   17   19 ar  
    38   17   26 1   
    39   18   20 1   
    40   18   45 1   
    41   19   21 ar  
    42   19   46 1   
    43   20   22 1   
    44   20   26 1   
    45   20   47 1   
    46   21   23 ar  
    47   21   27 1   
    48   22   48 1   
    49   22   49 1   
    50   23   24 ar  
    51   23   50 1   
    52   24   25 1   
    53   25   51 1   
    54   25   52 1   
    55   26   53 1   
    56   26   54 1   
    57   27   55 1   
    58   27   56 1   
    59   27   57 1   
@<TRIPOS>SUBSTRUCTURE
     1 JI5         1 TEMP              0 ****  ****    0 ROOT
