@<TRIPOS>MOLECULE
JI5
   57    54     1     0     0
SMALL
bcc


@<TRIPOS>ATOM
      1 C1         -1.2310   -0.2770    1.0760 c3        1 JI5     -0.077000
      2 N1          0.1910   -0.4110    1.0680 n3        1 JI5     -0.301000
      3 C2         -1.7650   -0.3340   -0.3830 c3        1 JI5     -0.079000
      4 N2         -3.2200   -0.2500   -0.3710 n3        1 JI5     -0.304000
      5 C3         -3.7410   -0.5620   -1.7080 c3        1 JI5     -0.071000
      6 C4         -5.2800   -0.5720   -1.6690 c3        1 JI5     -0.130000
      7 N1'         2.1020   -1.7480    3.8380 n3        1 JI5     -0.269000
      8 C11        -5.8400   -1.1440   -3.0220 c2        1 JI5     -0.046000
      9 N11         3.8350    2.4180    1.9840 n1        1 JI5     -0.203000
     10 C12        -6.1490   -2.5050   -3.0990 c1        1 JI5     -0.164000
     11 C13        -6.8120   -3.0100   -4.2240 c1        1 JI5      0.092000
     12 F13        -7.0590   -4.3390   -4.3260 f         1 JI5     -0.107000
     13 C14        -7.1640   -2.1530   -5.2700 c1        1 JI5     -0.167000
     14 C15        -6.8550   -0.7940   -5.1940 c1        1 JI5     -0.104000
     15 C16        -6.1930   -0.2880   -4.0690 c2        1 JI5     -0.143000
     16 C2'         0.8420   -1.7300    2.8640 c3        1 JI5     -0.133000
     17 C21         3.9270    1.2220    1.3140 c1        1 JI5      0.028000
     18 C3'         0.6920   -0.4590    2.4670 c3        1 JI5     -0.047000
     19 C31         5.0420    0.9480    0.5290 c1        1 JI5     -0.231000
     20 C4'         2.0960    0.1500    2.5500 c3        1 JI5     -0.118000
     21 C41         6.0530    1.8750    0.4250 c1        1 JI5      0.002000
     22 C5'         2.9620   -0.8910    3.3360 c3        1 JI5     -0.100000
     23 C51         5.9600    3.0700    1.0950 c1        1 JI5     -0.237000
     24 C61         4.8410    3.3420    1.8810 c1        1 JI5      0.111000
     25 N61         4.7550    4.5870    2.6090 n3        1 JI5     -0.321000
     26 C71         2.6390    0.3500    1.2210 c3        1 JI5     -0.099000
     27 C81         7.3490    1.5860   -0.3690 c3        1 JI5     -0.186000
     28 H1         -1.4770    0.5820    1.4800 h1        1 JI5      0.077000
     29 H1A        -1.6230   -1.0040    1.5940 h1        1 JI5      0.077000
     30 HN1         0.4220   -1.1800    0.6360 hn        1 JI5      0.152000
     31 H2         -1.4880   -1.1810   -0.8000 h1        1 JI5      0.076000
     32 H2A        -1.3980    0.4170   -0.8940 h1        1 JI5      0.076000
     33 HN2        -3.4780    0.6040   -0.1320 hn        1 JI5      0.152000
     34 H3         -3.4160   -1.4400   -1.9880 h1        1 JI5      0.075000
     35 H3A        -3.4350    0.1170   -2.3440 h1        1 JI5      0.075000
     36 H4         -5.5810   -1.1310   -0.9310 hc        1 JI5      0.097000
     37 H4A        -5.6080    0.3410   -1.5410 hc        1 JI5      0.097000
     38 HN1'        2.4730   -2.5870    3.8430 hn        1 JI5      0.139000
     39 H12        -5.8420   -3.1170   -2.3970 ha        1 JI5      0.151000
     40 H14        -7.6330   -2.5100   -6.0650 ha        1 JI5      0.149000
     41 H15        -7.1040   -0.1890   -5.9330 ha        1 JI5      0.137000
     42 H16        -5.9740    0.6750   -4.0160 ha        1 JI5      0.136000
     43 H2'         1.0090   -2.3120    2.0830 h1        1 JI5      0.093500
     44 H2'A        0.0340   -2.0320    3.3470 h1        1 JI5      0.093500
     45 H3'         0.0750    0.0180    3.0690 h1        1 JI5      0.107000
     46 H31         5.1080    0.0930    0.0500 ha        1 JI5      0.140000
     47 H4'         2.0660    0.9960    3.0320 hc        1 JI5      0.117000
     48 H5'         3.4580   -0.4460    4.0550 h1        1 JI5      0.092000
     49 H5'A        3.5780   -1.3460    2.7300 h1        1 JI5      0.092000
     50 H51         6.6810    3.7320    1.0210 ha        1 JI5      0.141000
     51 HN61        4.0230    4.7650    3.1210 hn        1 JI5      0.195500
     52 HN6A        5.4460    5.2030    2.5570 hn        1 JI5      0.195500
     53 H71         2.8610   -0.5240    0.8210 hc        1 JI5      0.102000
     54 H71A        1.9770    0.8060    0.6620 hc        1 JI5      0.102000
     55 H81         8.1160    1.5770    0.2470 hc        1 JI5      0.088333
     56 H81A        7.4810    2.2860   -1.0480 hc        1 JI5      0.088333
     57 H81B        7.2740    0.7090   -0.8120 hc        1 JI5      0.088333
@<TRIPOS>BOND
     1    1    2 1   
     2    1    3 1   
     3    1   28 1   
     4    1   29 1   
     5    2   18 1   
     6    2   30 1   
     7    3    4 1   
     8    3   31 1   
     9    3   32 1   
    10    4    5 1   
    11    4   33 1   
    12    5    6 1   
    13    5   34 1   
    14    5   35 1   
    15    6    8 1   
    16    6   36 1   
    17    6   37 1   
    18    7   16 1   
    19    7   22 1   
    20    7   38 1   
    21    8   10 1   
    22    8   15 1   
    23    9   17 1   
    24   10   39 1   
    25   11   12 1   
    26   11   13 1   
    27   13   40 1   
    28   14   15 1   
    29   14   41 1   
    30   15   42 1   
    31   16   18 1   
    32   16   43 1   
    33   16   44 1   
    34   17   26 1   
    35   18   20 1   
    36   18   45 1   
    37   19   21 1   
    38   19   46 1   
    39   20   22 1   
    40   20   26 1   
    41   20   47 1   
    42   21   27 1   
    43   22   48 1   
    44   22   49 1   
    45   23   24 1   
    46   23   50 1   
    47   24   25 1   
    48   25   51 1   
    49   25   52 1   
    50   26   53 1   
    51   26   54 1   
    52   27   55 1   
    53   27   56 1   
    54   27   57 1   
@<TRIPOS>SUBSTRUCTURE
     1 JI5         1 TEMP              0 ****  ****    0 ROOT
