@<TRIPOS>MOLECULE
JI7
   54    49     1     0     0
SMALL
bcc


@<TRIPOS>ATOM
      1 C5         -2.5360   -1.0300   -6.2460 c1        1 JI7     -0.236000
      2 C4         -1.2970   -0.7450   -5.7710 c1        1 JI7      0.003000
      3 C3         -1.0200   -0.9150   -4.4420 c1        1 JI7     -0.230000
      4 C2         -1.9940   -1.3720   -3.5910 c1        1 JI7      0.028000
      5 N1         -3.2380   -1.6580   -4.0710 n1        1 JI7     -0.203000
      6 C6         -3.5150   -1.4900   -5.3890 c1        1 JI7      0.113000
      7 C7         -1.6430   -1.7010   -2.1370 c2        1 JI7     -0.107000
      8 C4'        -1.8400   -0.5240   -1.3130 c3        1 JI7     -0.130000
      9 C3'        -1.1420   -0.7000    0.0440 c3        1 JI7     -0.047000
     10 C2'        -2.0650   -0.3700    0.9540 c3        1 JI7     -0.088000
     11 N1'        -3.4770   -0.6690    0.2850 n3        1 JI7     -0.272000
     12 C5'        -3.3580   -0.3430   -0.9830 c3        1 JI7     -0.083000
     13 N8          0.0290    0.2130    0.1440 n3        1 JI7     -0.302000
     14 C9          0.8660   -0.1910    1.2640 c3        1 JI7     -0.076000
     15 C10         1.9180    0.9310    1.5630 c3        1 JI7     -0.075000
     16 N11         2.5610    0.6660    2.8400 n3        1 JI7     -0.304000
     17 C12         3.0800    1.9040    3.3870 c3        1 JI7     -0.034000
     18 C26         3.4580    1.6920    4.8540 c1        1 JI7     -0.079000
     19 C25         4.7890    1.4570    5.2050 c1        1 JI7     -0.125000
     20 C24         5.1370    1.2960    6.5450 c1        1 JI7     -0.125000
     21 C23         4.1570    1.3690    7.5340 c1        1 JI7     -0.123000
     22 C22         2.8290    1.6040    7.1830 c1        1 JI7     -0.065000
     23 C21         2.4800    1.7650    5.8420 c2        1 JI7     -0.104000
     24 CL          1.5840    1.6230    8.4220 cl        1 JI7     -0.017000
     25 C8         -0.2120   -0.2990   -6.7160 c3        1 JI7     -0.187000
     26 N6         -4.7730   -1.8560   -5.8930 n3        1 JI7     -0.322000
     27 H5         -2.7330   -0.9090   -7.1910 ha        1 JI7      0.142000
     28 H3         -0.1400   -0.7120   -4.1030 ha        1 JI7      0.140000
     29 H71        -0.7020   -1.9840   -2.0830 ha        1 JI7      0.095000
     30 H72        -2.2200   -2.4230   -1.8170 ha        1 JI7      0.095000
     31 H4'        -1.4980    0.2670   -1.7670 hc        1 JI7      0.106000
     32 H3'        -0.8660   -1.6120    0.1620 h1        1 JI7      0.066000
     33 H2'1       -1.9520   -0.9210    1.7700 h1        1 JI7      0.093500
     34 H2'2       -1.9930    0.5830    1.1770 h1        1 JI7      0.093500
     35 HN1'       -4.1040   -0.1540    0.6690 hn        1 JI7      0.144000
     36 H5'1       -3.8960   -0.9340   -1.5360 h1        1 JI7      0.100000
     37 H5'2       -3.6250    0.5880   -1.1200 h1        1 JI7      0.100000
     38 HN8         0.5060    0.1740   -0.6170 hn        1 JI7      0.154000
     39 H91         1.3400   -1.0390    1.0350 h1        1 JI7      0.075500
     40 H92         0.3060   -0.3330    2.0560 h1        1 JI7      0.075500
     41 H101        1.4720    1.7940    1.5980 h1        1 JI7      0.075000
     42 H102        2.5820    0.9420    0.8660 h1        1 JI7      0.075000
     43 HN11        3.2490    0.0740    2.7180 hn        1 JI7      0.157000
     44 H121        3.8750    2.1780    2.8810 h1        1 JI7      0.080500
     45 H122        2.3880    2.6100    3.3230 h1        1 JI7      0.080500
     46 H25         5.4830    1.4040    4.5050 ha        1 JI7      0.136000
     47 H24         6.0780    1.1290    6.7930 ha        1 JI7      0.136000
     48 H23         4.4040    1.2550    8.4820 ha        1 JI7      0.147000
     49 H21         1.5600    1.9270    5.5990 ha        1 JI7      0.163000
     50 H81         0.3920   -1.0610   -6.9090 hc        1 JI7      0.089000
     51 H82        -0.6200    0.0220   -7.5620 hc        1 JI7      0.089000
     52 H83         0.2980    0.4230   -6.3070 hc        1 JI7      0.089000
     53 HN61       -4.9910   -1.6720   -6.7750 hn        1 JI7      0.197500
     54 HN62       -5.3670   -2.2730   -5.3600 hn        1 JI7      0.197500
@<TRIPOS>BOND
     1    1    6 1   
     2    1   27 1   
     3    2    3 1   
     4    2   25 1   
     5    3   28 1   
     6    4    5 1   
     7    6   26 1   
     8    7    8 1   
     9    7   29 1   
    10    7   30 1   
    11    8    9 1   
    12    8   12 1   
    13    8   31 1   
    14    9   10 1   
    15    9   13 1   
    16    9   32 1   
    17   10   11 1   
    18   10   33 1   
    19   10   34 1   
    20   11   12 1   
    21   11   35 1   
    22   12   36 1   
    23   12   37 1   
    24   13   14 1   
    25   13   38 1   
    26   14   15 1   
    27   14   39 1   
    28   14   40 1   
    29   15   16 1   
    30   15   41 1   
    31   15   42 1   
    32   16   17 1   
    33   16   43 1   
    34   17   18 1   
    35   17   44 1   
    36   17   45 1   
    37   18   23 1   
    38   19   20 1   
    39   19   46 1   
    40   20   47 1   
    41   21   22 1   
    42   21   48 1   
    43   22   23 1   
    44   23   49 1   
    45   25   50 1   
    46   25   51 1   
    47   25   52 1   
    48   26   53 1   
    49   26   54 1   
@<TRIPOS>SUBSTRUCTURE
     1 JI7         1 TEMP              0 ****  ****    0 ROOT
