@<TRIPOS>MOLECULE
JI7
   56    58     1     0     0
SMALL
bcc


@<TRIPOS>ATOM
      1 C5         -0.3270    0.5160   -0.3230 ca        1 JI7     -0.236000
      2 C4         -0.3240   -0.6250    0.4570 ca        1 JI7      0.095700
      3 C3          0.6230   -0.7360    1.5140 ca        1 JI7     -0.185000
      4 C2          1.5270    0.2810    1.7540 ca        1 JI7      0.039400
      5 N1          1.5180    1.4300    0.9730 na        1 JI7     -0.193100
      6 C6          0.6140    1.5770   -0.0710 ca        1 JI7      0.195500
      7 C7          2.5560    0.1630    2.8420 c3        1 JI7     -0.056100
      8 C4'         2.2440    1.0110    4.0660 c3        1 JI7     -0.076700
      9 C3'         3.2960    0.6970    5.1770 c3        1 JI7      0.156500
     10 C2'         2.5460   -0.3150    6.1050 c3        1 JI7      0.118800
     11 N1'         1.1250   -0.2780    5.8100 n7        1 JI7     -0.808200
     12 C5'         0.8890    0.6330    4.7010 c3        1 JI7      0.146800
     13 N8          3.7820    1.9090    5.8150 n7        1 JI7     -0.824200
     14 C9          4.8240    1.6900    6.7940 c3        1 JI7      0.151800
     15 C10         5.5120    3.0290    7.1540 c3        1 JI7      0.090800
     16 N11         6.6050    2.8420    8.1460 ny        1 JI7     -0.768000
     17 C12         7.2670    4.1470    8.5090 c3        1 JI7      0.181100
     18 C26         8.3120    3.9310    9.5470 ca        1 JI7     -0.192300
     19 C25         9.6620    3.8720    9.1850 ca        1 JI7     -0.095000
     20 C24        10.6360    3.7190   10.1720 ca        1 JI7     -0.106000
     21 C23        10.2720    3.6180   11.5140 ca        1 JI7     -0.067000
     22 C22         8.9170    3.6750   11.8740 ca        1 JI7      0.020400
     23 C21         7.9350    3.8360   10.8920 ca        1 JI7     -0.111000
     24 Cl          8.4660    3.5560   13.4970 cl        1 JI7     -0.025400
     25 C8         -1.2740   -1.7290    0.2150 c3        1 JI7     -0.096800
     26 N6          0.6100    2.7040   -0.8380 nv        1 JI7     -0.398200
     27 H5         -1.0460    0.6300   -1.1520 ha        1 JI7      0.193000
     28 H3          0.6320   -1.6440    2.1420 ha        1 JI7      0.197000
     29 H71         3.5690    0.4440    2.4420 hc        1 JI7      0.091200
     30 H72         2.6060   -0.9190    3.1510 hc        1 JI7      0.091200
     31 H4'         2.2470    2.0940    3.7820 hc        1 JI7      0.067700
     32 H3'         4.1900    0.1810    4.7250 h1        1 JI7      0.077700
     33 H2'1        2.9110   -1.3540    5.8700 h1        1 JI7      0.059700
     34 H2'2        2.7580   -0.1190    7.1910 h1        1 JI7      0.059700
     35 HN1'        0.5770   -0.0340    6.6120 hn        1 JI7      0.383800
     36 H5'1        0.2310    0.1000    3.9590 h1        1 JI7      0.053200
     37 H5'2        0.3510    1.5700    5.0200 h1        1 JI7      0.053200
     38 HN8         2.1910    2.1440    1.1750 hn        1 JI7      0.320700
     39 H91         5.5890    0.9900    6.3490 h1        1 JI7      0.054700
     40 H92         4.4390    1.2160    7.7460 h1        1 JI7      0.054700
     41 H101        5.9550    3.4960    6.2280 hx        1 JI7      0.112200
     42 H102        4.7630    3.7480    7.5930 hx        1 JI7      0.112200
     43 HN11        6.2310    2.4140    9.0030 hn        1 JI7      0.451800
     44 H121        6.4620    4.8420    8.8880 hx        1 JI7      0.110200
     45 H122        7.7100    4.5790    7.5660 hx        1 JI7      0.110200
     46 H25         9.9640    3.9660    8.1310 ha        1 JI7      0.144000
     47 H24        11.7020    3.6840    9.8900 ha        1 JI7      0.171000
     48 H23        11.0470    3.5000   12.2910 ha        1 JI7      0.181000
     49 H21         6.8760    3.9100   11.1830 ha        1 JI7      0.147000
     50 H81        -2.0000   -1.4830   -0.5990 hc        1 JI7      0.090033
     51 H82        -0.7140   -2.6560   -0.0770 hc        1 JI7      0.090033
     52 H83        -1.8500   -1.9540    1.1500 hc        1 JI7      0.090033
     53 HN61       -0.0500    2.7720   -1.5820 hn        1 JI7      0.322700
     54 HN62        1.2550    3.4470   -0.7090 hn        1 JI7      0.322700
     55 H821        3.0240    2.4330    6.2130 hn        1 JI7      0.376800
     56 H112        7.3140    2.2030    7.7670 hn        1 JI7      0.451800
@<TRIPOS>BOND
     1    1    2 ar  
     2    1    6 ar  
     3    1   27 1   
     4    2    3 ar  
     5    2   25 1   
     6    3    4 ar  
     7    3   28 1   
     8    4    5 2   
     9    4    7 1   
    10    5    6 1   
    11    5   38 1   
    12    6   26 1   
    13    7    8 1   
    14    7   29 1   
    15    7   30 1   
    16    8    9 1   
    17    8   12 1   
    18    8   31 1   
    19    9   10 1   
    20    9   13 1   
    21    9   32 1   
    22   10   11 1   
    23   10   33 1   
    24   10   34 1   
    25   11   12 1   
    26   11   35 1   
    27   12   36 1   
    28   12   37 1   
    29   13   14 1   
    30   13   55 1   
    31   14   15 1   
    32   14   39 1   
    33   14   40 1   
    34   15   16 1   
    35   15   41 1   
    36   15   42 1   
    37   16   17 1   
    38   16   43 1   
    39   16   56 1   
    40   17   18 1   
    41   17   44 1   
    42   17   45 1   
    43   18   19 ar  
    44   18   23 ar  
    45   19   20 ar  
    46   19   46 1   
    47   20   21 ar  
    48   20   47 1   
    49   21   22 ar  
    50   21   48 1   
    51   22   23 ar  
    52   22   24 1   
    53   23   49 1   
    54   25   50 1   
    55   25   51 1   
    56   25   52 1   
    57   26   53 1   
    58   26   54 1   
@<TRIPOS>SUBSTRUCTURE
     1 JI7         1 TEMP              0 ****  ****    0 ROOT
