@<TRIPOS>MOLECULE
JI7
   56    58     1     0     0
SMALL
bcc


@<TRIPOS>ATOM
      1 C5         -0.3150    0.4510   -0.3200 ca        1 JI7     -0.236000
      2 C4         -0.2860   -0.6930    0.4540 ca        1 JI7      0.095700
      3 C3          0.6650   -0.7900    1.5080 ca        1 JI7     -0.185000
      4 C2          1.5480    0.2450    1.7520 ca        1 JI7      0.039400
      5 N1          1.5120    1.3970    0.9770 na        1 JI7     -0.193100
      6 C6          0.6030    1.5300   -0.0640 ca        1 JI7      0.195500
      7 C7          2.5820    0.1430    2.8380 c3        1 JI7     -0.056100
      8 C4'         2.2540    0.9780    4.0660 c3        1 JI7     -0.076700
      9 C3'         3.3150    0.6800    5.1730 c3        1 JI7      0.156500
     10 C2'         2.5890   -0.3520    6.0980 c3        1 JI7      0.118800
     11 N1'         1.1670   -0.3440    5.8060 n3        1 JI7     -0.808200
     12 C5'         0.9090    0.5680    4.7020 c3        1 JI7      0.146800
     13 N8          3.7760    1.8990    5.8170 n3        1 JI7     -0.824200
     14 C9          4.8270    1.6980    6.7910 c3        1 JI7      0.151800
     15 C10         5.4820    3.0490    7.1600 c3        1 JI7      0.090800
     16 N11         6.5840    2.8810    8.1470 n4        1 JI7     -0.768000
     17 C12         7.2150    4.1990    8.5200 c3        1 JI7      0.181100
     18 C26         8.2690    3.9990    9.5520 ca        1 JI7     -0.192300
     19 C25         9.6180    3.9760    9.1840 ca        1 JI7     -0.095000
     20 C24        10.6000    3.8380   10.1650 ca        1 JI7     -0.106000
     21 C23        10.2440    3.7160   11.5080 ca        1 JI7     -0.067000
     22 C22         8.8900    3.7370   11.8730 ca        1 JI7      0.020400
     23 C21         7.9000    3.8820   10.8980 ca        1 JI7     -0.111000
     24 CL          8.4490    3.5920   13.4980 cl        1 JI7     -0.025400
     25 C8         -1.2130   -1.8170    0.2080 c3        1 JI7     -0.096800
     26 N6          0.5740    2.6610   -0.8250 nh        1 JI7     -0.398200
     27 H5         -1.0380    0.5540   -1.1470 ha        1 JI7      0.193000
     28 H3          0.6950   -1.7010    2.1310 ha        1 JI7      0.197000
     29 H71         3.5880    0.4480    2.4360 hc        1 JI7      0.091200
     30 H72         2.6550   -0.9400    3.1400 hc        1 JI7      0.091200
     31 H4'         2.2330    2.0620    3.7880 hc        1 JI7      0.067700
     32 H3'         4.2190    0.1860    4.7160 h1        1 JI7      0.077700
     33 H2'1        2.8000   -0.1580    7.1840 h1        1 JI7      0.059700
     34 H2'2        2.9750   -1.3820    5.8560 h1        1 JI7      0.059700
     35 HN1'        0.6160   -0.1150    6.6110 hn        1 JI7      0.383800
     36 H5'1        0.2610    0.0250    3.9590 h1        1 JI7      0.053200
     37 H5'2        0.3520    1.4910    5.0270 h1        1 JI7      0.053200
     38 HN8         3.0090    2.4040    6.2210 hn        1 JI7      0.376800
     39 H91         5.6070    1.0210    6.3370 h1        1 JI7      0.054700
     40 H92         4.4570    1.2060    7.7390 h1        1 JI7      0.054700
     41 H101        5.9100    3.5360    6.2370 hx        1 JI7      0.112200
     42 H102        4.7180    3.7460    7.6100 hx        1 JI7      0.112200
     43 HN11        6.2240    2.4360    9.0010 hn        1 JI7      0.451800
     44 H121        6.3940    4.8700    8.9080 hx        1 JI7      0.110200
     45 H122        7.6430    4.6500    7.5790 hx        1 JI7      0.110200
     46 H25         9.9130    4.0880    8.1290 ha        1 JI7      0.144000
     47 H24        11.6650    3.8320    9.8790 ha        1 JI7      0.171000
     48 H23        11.0260    3.6110   12.2810 ha        1 JI7      0.181000
     49 H21         6.8400    3.9280   11.1930 ha        1 JI7      0.147000
     50 H81        -1.9430   -1.5830   -0.6060 hc        1 JI7      0.090033
     51 H82        -0.6340   -2.7310   -0.0860 hc        1 JI7      0.090033
     52 H83        -1.7850   -2.0560    1.1430 hc        1 JI7      0.090033
     53 HN61       -0.0890    2.7190   -1.5670 hn        1 JI7      0.322700
     54 HN62        1.2030    3.4170   -0.6930 hn        1 JI7      0.322700
     55 H821        2.1700    2.1250    1.1810 hn        1 JI7      0.320700
     56 H112        7.3070    2.2640    7.7600 hn        1 JI7      0.451800
@<TRIPOS>BOND
     1    1    2 ar  
     2    1    6 ar  
     3    1   27 1   
     4    2    3 ar  
     5    2   25 1   
     6    3    4 ar  
     7    3   28 1   
     8    4    5 2   
     9    4    7 1   
    10    5    6 1   
    11    5   55 1   
    12    6   26 1   
    13    7    8 1   
    14    7   29 1   
    15    7   30 1   
    16    8    9 1   
    17    8   12 1   
    18    8   31 1   
    19    9   10 1   
    20    9   13 1   
    21    9   32 1   
    22   10   11 1   
    23   10   33 1   
    24   10   34 1   
    25   11   12 1   
    26   11   35 1   
    27   12   36 1   
    28   12   37 1   
    29   13   14 1   
    30   13   38 1   
    31   14   15 1   
    32   14   39 1   
    33   14   40 1   
    34   15   16 1   
    35   15   41 1   
    36   15   42 1   
    37   16   17 1   
    38   16   43 1   
    39   16   56 1   
    40   17   18 1   
    41   17   44 1   
    42   17   45 1   
    43   18   19 ar  
    44   18   23 ar  
    45   19   20 ar  
    46   19   46 1   
    47   20   21 ar  
    48   20   47 1   
    49   21   22 ar  
    50   21   48 1   
    51   22   23 ar  
    52   22   24 1   
    53   23   49 1   
    54   25   50 1   
    55   25   51 1   
    56   25   52 1   
    57   26   53 1   
    58   26   54 1   
@<TRIPOS>SUBSTRUCTURE
     1 JI7         1 TEMP              0 ****  ****    0 ROOT
