@<TRIPOS>MOLECULE
JI7
   57    59     1     0     0
SMALL
bcc


@<TRIPOS>ATOM
      1 C5         -0.7030   -0.2320   -0.0500 ca        1 JI7     -0.193300
      2 C4          0.6590    0.1300   -0.0760 ca        1 JI7      0.026700
      3 C3          1.3660    0.1540    1.1290 ca        1 JI7     -0.211300
      4 C2          0.7080   -0.1730    2.3400 ca        1 JI7      0.435600
      5 N1         -0.5990   -0.5090    2.3850 nb        1 JI7     -0.662000
      6 C6         -1.2710   -0.5440    1.1990 ca        1 JI7      0.466200
      7 C7          1.5090   -0.2290    3.6160 c3        1 JI7     -0.137700
      8 C4'         1.9770    1.1390    4.0900 c3        1 JI7     -0.089700
      9 C3'         2.8290    0.9610    5.3880 c3        1 JI7      0.112500
     10 C2'         1.7890    1.2320    6.5170 c3        1 JI7      0.136800
     11 N1'         0.9260    2.2700    5.9780 n3        1 JI7     -0.838200
     12 C5'         0.8040    2.0490    4.5390 c3        1 JI7      0.137800
     13 N8          3.9510    1.9780    5.4440 n4        1 JI7     -0.760000
     14 C9          4.9410    1.6780    6.5150 c3        1 JI7      0.075800
     15 C10         5.9710    2.8150    6.6980 c3        1 JI7      0.072800
     16 N11         6.9270    2.5590    7.8020 n4        1 JI7     -0.777000
     17 C12         7.9270    3.7030    7.9660 c3        1 JI7      0.200100
     18 C26         8.8100    3.4230    9.1210 ca        1 JI7     -0.217300
     19 C25        10.0840    2.8740    8.9190 ca        1 JI7     -0.087000
     20 C24        10.9360    2.6860   10.0060 ca        1 JI7     -0.104000
     21 C23        10.5270    3.0340   11.2940 ca        1 JI7     -0.045000
     22 C22         9.2470    3.5780   11.4970 ca        1 JI7      0.018400
     23 C21         8.3900    3.7780   10.4120 ca        1 JI7     -0.107000
     24 CL          8.7450    4.0040   13.0490 cl        1 JI7     -0.003400
     25 C8          1.3070    0.4550   -1.3650 c3        1 JI7     -0.092800
     26 N6         -2.6900   -0.9660    1.2540 n4        1 JI7     -0.821300
     27 H5         -1.2750   -0.2670   -0.9930 ha        1 JI7      0.190000
     28 H3          2.4360    0.4100    1.1360 ha        1 JI7      0.165000
     29 H71         0.9140   -0.7210    4.4360 hc        1 JI7      0.088700
     30 H72         2.4030   -0.8830    3.4120 hc        1 JI7      0.088700
     31 H4'         2.5510    1.6340    3.2640 hc        1 JI7      0.076700
     32 H3'         3.2870   -0.0620    5.4660 hx        1 JI7      0.123700
     33 H2'1        2.2410    1.5950    7.4780 h1        1 JI7      0.084200
     34 H2'2        1.2700    0.2520    6.7300 h1        1 JI7      0.084200
     35 HN1'        0.0410    2.3220    6.4440 hn        1 JI7      0.426800
     36 H5'1        0.8670    3.0530    4.0350 h1        1 JI7      0.082200
     37 H5'2       -0.1780    1.5800    4.2510 h1        1 JI7      0.082200
     38 HN8         3.5280    2.9060    5.6080 hn        1 JI7      0.468800
     39 H91         4.3700    1.5140    7.4780 hx        1 JI7      0.127700
     40 H92         5.4650    0.7140    6.2450 hx        1 JI7      0.127700
     41 H101        6.5720    2.9530    5.7500 hx        1 JI7      0.126200
     42 H102        5.4410    3.7890    6.9240 hx        1 JI7      0.126200
     43 HN11        6.4270    2.4470    8.6950 hn        1 JI7      0.460800
     44 H121        7.3280    4.6450    8.1230 hx        1 JI7      0.114200
     45 H122        8.5090    3.7770    7.0030 hx        1 JI7      0.114200
     46 H25        10.4300    2.6160    7.9060 ha        1 JI7      0.145000
     47 H24        11.9470    2.2700    9.8480 ha        1 JI7      0.182000
     48 H23        11.2100    2.8900   12.1510 ha        1 JI7      0.193000
     49 H21         7.4040    4.2410   10.5720 ha        1 JI7      0.146000
     50 H81         1.3900   -0.4690   -1.9960 hc        1 JI7      0.088367
     51 H82         0.7010    1.2060   -1.9340 hc        1 JI7      0.088367
     52 H83         2.3340    0.8690   -1.2150 hc        1 JI7      0.088367
     53 HN61       -3.1530   -0.5940    2.0940 hn        1 JI7      0.481467
     54 HN62       -3.1780   -0.6220    0.4170 hn        1 JI7      0.481467
     55 H821        4.4270    1.9990    4.5330 hn        1 JI7      0.468800
     56 H112        7.4540    1.6930    7.6300 hn        1 JI7      0.460800
     57 H63        -2.7360   -1.9940    1.2780 hn        1 JI7      0.481467
@<TRIPOS>BOND
     1    1    2 ar  
     2    1    6 ar  
     3    1   27 1   
     4    2    3 ar  
     5    2   25 1   
     6    3    4 ar  
     7    3   28 1   
     8    4    5 ar  
     9    4    7 1   
    10    5    6 ar  
    11    6   26 1   
    12    7    8 1   
    13    7   29 1   
    14    7   30 1   
    15    8    9 1   
    16    8   12 1   
    17    8   31 1   
    18    9   10 1   
    19    9   13 1   
    20    9   32 1   
    21   10   11 1   
    22   10   33 1   
    23   10   34 1   
    24   11   12 1   
    25   11   35 1   
    26   12   36 1   
    27   12   37 1   
    28   13   14 1   
    29   13   38 1   
    30   13   55 1   
    31   14   15 1   
    32   14   39 1   
    33   14   40 1   
    34   15   16 1   
    35   15   41 1   
    36   15   42 1   
    37   16   17 1   
    38   16   43 1   
    39   16   56 1   
    40   17   18 1   
    41   17   44 1   
    42   17   45 1   
    43   18   19 ar  
    44   18   23 ar  
    45   19   20 ar  
    46   19   46 1   
    47   20   21 ar  
    48   20   47 1   
    49   21   22 ar  
    50   21   48 1   
    51   22   23 ar  
    52   22   24 1   
    53   23   49 1   
    54   25   50 1   
    55   25   51 1   
    56   25   52 1   
    57   26   53 1   
    58   26   54 1   
    59   26   57 1   
@<TRIPOS>SUBSTRUCTURE
     1 JI7         1 TEMP              0 ****  ****    0 ROOT
