@<TRIPOS>MOLECULE
JI7
   54    56     1     0     0
SMALL
bcc


@<TRIPOS>ATOM
      1 C5          7.5210    1.3400    0.0360 ca        1 JI7     -0.301300
      2 C4          6.3760    1.9520   -0.4690 ca        1 JI7     -0.003300
      3 C3          5.1240    1.4150   -0.1470 ca        1 JI7     -0.294300
      4 C2          5.0620    0.2700    0.6720 ca        1 JI7      0.451600
      5 N1          6.1560   -0.3460    1.1690 nb        1 JI7     -0.730000
      6 C6          7.3820    0.1910    0.8710 ca        1 JI7      0.634200
      7 C7          3.7050   -0.2880    1.0090 c3        1 JI7     -0.130700
      8 C4'         3.0780   -0.9910   -0.1800 c3        1 JI7     -0.091700
      9 C3'         1.5900   -1.3340    0.1090 c3        1 JI7      0.150500
     10 C2'         1.4370   -2.8020   -0.4050 c3        1 JI7      0.144800
     11 N1'         2.7560   -3.4190   -0.4350 n3        1 JI7     -0.789200
     12 C5'         3.7460   -2.3470   -0.5010 c3        1 JI7      0.145800
     13 N8          0.6560   -0.4120   -0.5140 n3        1 JI7     -0.814200
     14 C9         -0.7060   -0.5850   -0.0520 c3        1 JI7      0.159800
     15 C10        -1.6620    0.4390   -0.7020 c3        1 JI7      0.161800
     16 N11        -3.0340    0.2340   -0.2820 n3        1 JI7     -0.825200
     17 C12        -3.9410    1.2300   -0.8210 c3        1 JI7      0.210100
     18 C26        -5.3040    1.1960   -0.1950 ca        1 JI7     -0.087300
     19 C25        -5.8920    2.3820    0.2570 ca        1 JI7     -0.126000
     20 C24        -7.1730    2.3640    0.8050 ca        1 JI7     -0.124000
     21 C23        -7.8780    1.1660    0.9130 ca        1 JI7     -0.123000
     22 C22        -7.2860   -0.0180    0.4630 ca        1 JI7      0.013400
     23 C21        -6.0030   -0.0110   -0.0930 ca        1 JI7     -0.104000
     24 CL         -8.1370   -1.4850    0.5900 cl        1 JI7     -0.095400
     25 C8          6.4780    3.1590   -1.3210 c3        1 JI7     -0.061800
     26 N6          8.5280   -0.3630    1.4640 nh        1 JI7     -0.924500
     27 H5          8.5160    1.7440   -0.1960 ha        1 JI7      0.142000
     28 H3          4.2020    1.8720   -0.5290 ha        1 JI7      0.141000
     29 H71         3.7640   -0.9940    1.8800 hc        1 JI7      0.058700
     30 H72         3.0500    0.5710    1.3170 hc        1 JI7      0.058700
     31 H4'         3.1630   -0.3280   -1.0830 hc        1 JI7      0.073700
     32 H3'         1.4420   -1.3540    1.2330 h1        1 JI7      0.017700
     33 H2'1        0.7280   -3.3710    0.2510 h1        1 JI7      0.059200
     34 H2'2        1.0340   -2.8110   -1.4550 h1        1 JI7      0.059200
     35 HN1'        2.9000   -3.9670    0.3940 hn        1 JI7      0.344800
     36 H5'1        4.1420   -2.3250   -1.5540 h1        1 JI7      0.058200
     37 H5'2        4.6090   -2.5420    0.1890 h1        1 JI7      0.058200
     38 HN8         0.9640    0.5320   -0.3710 hn        1 JI7      0.357800
     39 H91        -1.0300   -1.6270   -0.3360 h1        1 JI7      0.037200
     40 H92        -0.7880   -0.5000    1.0730 h1        1 JI7      0.037200
     41 H101       -1.2970    1.4830   -0.4650 h1        1 JI7      0.036200
     42 H102       -1.6280    0.3180   -1.8220 h1        1 JI7      0.036200
     43 HN11       -3.1000    0.1940    0.7180 hn        1 JI7      0.361800
     44 H121       -3.5220    2.2780   -0.7280 h1        1 JI7      0.041200
     45 H122       -4.0500    1.0150   -1.9250 h1        1 JI7      0.041200
     46 H25        -5.3450    3.3330    0.1780 ha        1 JI7      0.135000
     47 H24        -7.6330    3.2990    1.1570 ha        1 JI7      0.137000
     48 H23        -8.8890    1.1530    1.3480 ha        1 JI7      0.147000
     49 H21        -5.5430   -0.9460   -0.4510 ha        1 JI7      0.163000
     50 H81         5.6870    3.1540   -2.1110 hc        1 JI7      0.049700
     51 H82         6.3420    4.0760   -0.6940 hc        1 JI7      0.049700
     52 H83         7.4770    3.2190   -1.8180 hc        1 JI7      0.049700
     53 HN61        8.4120   -1.2610    1.8810 hn        1 JI7      0.401800
     54 HN62        9.3450   -0.2830    0.9030 hn        1 JI7      0.401800
@<TRIPOS>BOND
     1    1    2 ar  
     2    1    6 ar  
     3    1   27 1   
     4    2    3 ar  
     5    2   25 1   
     6    3    4 ar  
     7    3   28 1   
     8    4    5 ar  
     9    4    7 1   
    10    5    6 ar  
    11    6   26 1   
    12    7    8 1   
    13    7   29 1   
    14    7   30 1   
    15    8    9 1   
    16    8   12 1   
    17    8   31 1   
    18    9   10 1   
    19    9   13 1   
    20    9   32 1   
    21   10   11 1   
    22   10   33 1   
    23   10   34 1   
    24   11   12 1   
    25   11   35 1   
    26   12   36 1   
    27   12   37 1   
    28   13   14 1   
    29   13   38 1   
    30   14   15 1   
    31   14   39 1   
    32   14   40 1   
    33   15   16 1   
    34   15   41 1   
    35   15   42 1   
    36   16   17 1   
    37   16   43 1   
    38   17   18 1   
    39   17   44 1   
    40   17   45 1   
    41   18   19 ar  
    42   18   23 ar  
    43   19   20 ar  
    44   19   46 1   
    45   20   21 ar  
    46   20   47 1   
    47   21   22 ar  
    48   21   48 1   
    49   22   23 ar  
    50   22   24 1   
    51   23   49 1   
    52   25   50 1   
    53   25   51 1   
    54   25   52 1   
    55   26   53 1   
    56   26   54 1   
@<TRIPOS>SUBSTRUCTURE
     1 JI7         1 TEMP              0 ****  ****    0 ROOT
