@<TRIPOS>MOLECULE
JIL
   65    69     1     0     0
SMALL
bcc


@<TRIPOS>ATOM
      1 O01        -0.1500   -0.5600    0.0480 oh        1 JIL     -0.583800
      2 C02         1.2450   -0.5060    0.2010 c3        1 JIL      0.130100
      3 C03         1.7530   -0.9580    1.5880 c3        1 JIL      0.089100
      4 C04         2.6270   -2.2290    1.3160 c3        1 JIL      0.232800
      5 O05         2.5220   -2.5390   -0.0790 os        1 JIL     -0.419600
      6 C06         1.9960   -1.4140   -0.8060 c3        1 JIL      0.112100
      7 C07         1.1180   -1.9580   -1.9150 c3        1 JIL     -0.032300
      8 S08         2.0850   -1.8980   -3.3990 ss        1 JIL     -0.202200
      9 C09         0.9470   -2.3850   -4.6410 c3        1 JIL     -0.082300
     10 C10         1.0960   -3.8810   -4.8630 c3        1 JIL      0.105800
     11 N11         0.2720   -4.3860   -6.0060 n4        1 JIL     -0.759000
     12 C12         0.4660   -5.8470   -6.2340 c3        1 JIL      0.103800
     13 C13        -0.5040   -6.3990   -7.3020 c3        1 JIL      0.133500
     14 N14        -0.4250   -5.6350   -8.5440 n3        1 JIL     -0.820200
     15 C15        -1.4050   -6.1090   -9.5090 c3        1 JIL      0.194100
     16 C16        -1.5140   -7.6030   -9.6230 ca        1 JIL     -0.131300
     17 C17        -2.1890   -8.1430  -10.7200 ca        1 JIL     -0.055000
     18 C18        -2.3200   -9.5340  -10.8290 ca        1 JIL     -0.162200
     19 N19        -3.0420  -10.1110  -12.0000 no        1 JIL      0.313200
     20 O20        -3.4930   -9.3610  -12.8210 o         1 JIL     -0.187500
     21 O21        -3.1470  -11.3040  -12.0790 o         1 JIL     -0.187500
     22 C22        -1.7820  -10.3890   -9.8540 ca        1 JIL     -0.053000
     23 C23        -1.1120   -9.8360   -8.7670 ca        1 JIL     -0.126000
     24 C24        -0.9740   -8.4490   -8.6410 ca        1 JIL     -0.057300
     25 C25        -0.2330   -7.9020   -7.4690 c3        1 JIL     -0.065100
     26 N26         4.0090   -2.0700    1.6930 na        1 JIL     -0.304000
     27 C27         4.4500   -1.7160    2.9800 ca        1 JIL      0.456800
     28 C28         5.9010   -1.8210    2.9280 ca        1 JIL     -0.233200
     29 N29         6.3080   -2.2380    1.6510 nc        1 JIL     -0.533100
     30 C30         5.1760   -2.3850    0.9510 cd        1 JIL      0.414700
     31 C31         6.6220   -1.5020    4.1310 ca        1 JIL      0.773200
     32 N32         7.9840   -1.5680    4.1590 nh        1 JIL     -0.949500
     33 N33         5.9050   -1.1270    5.2490 nb        1 JIL     -0.787000
     34 C34         4.5540   -1.0760    5.1470 ca        1 JIL      0.701900
     35 N35         3.7460   -1.3410    4.0890 nb        1 JIL     -0.774000
     36 O36         0.6470   -1.3350    2.3760 oh        1 JIL     -0.599800
     37 H011       -0.4970   -1.2890    0.5820 ho        1 JIL      0.432000
     38 H021        1.5110    0.5710    0.0100 h1        1 JIL      0.101700
     39 H031        2.3360   -0.1320    2.0750 h1        1 JIL      0.097700
     40 H041        2.1970   -3.1280    1.8570 h2        1 JIL      0.106700
     41 H061        2.8750   -0.8490   -1.2320 h1        1 JIL      0.078700
     42 H071        0.8040   -3.0030   -1.6800 h1        1 JIL      0.091700
     43 H072        0.2000   -1.3260   -2.0180 h1        1 JIL      0.091700
     44 H091        1.2220   -1.8110   -5.5640 h1        1 JIL      0.099200
     45 H092       -0.1040   -2.1180   -4.3670 h1        1 JIL      0.099200
     46 H101        2.1760   -4.1280   -5.0820 hx        1 JIL      0.112200
     47 H102        0.7820   -4.4430   -3.9360 hx        1 JIL      0.112200
     48 H111        0.5230   -3.8710   -6.8600 hn        1 JIL      0.456300
     49 H121        0.2810   -6.3890   -5.2640 hx        1 JIL      0.107200
     50 H122        1.5370   -6.0110   -6.5450 hx        1 JIL      0.107200
     51 H131       -1.5640   -6.2830   -6.9160 h1        1 JIL      0.087700
     52 H141        0.4990   -5.7260   -8.9330 hn        1 JIL      0.364800
     53 H151       -1.1460   -5.6680  -10.5150 h1        1 JIL      0.085200
     54 H152       -2.4130   -5.7000   -9.2050 h1        1 JIL      0.085200
     55 H171       -2.6160   -7.4810  -11.4950 ha        1 JIL      0.181000
     56 H221       -1.8900  -11.4850   -9.9500 ha        1 JIL      0.186000
     57 H231       -0.6880  -10.5020   -7.9980 ha        1 JIL      0.155000
     58 H251       -0.5450   -8.4400   -6.5350 hc        1 JIL      0.074200
     59 H252        0.8660   -8.0850   -7.6160 hc        1 JIL      0.074200
     60 H301        5.1010   -2.7110   -0.0930 h5        1 JIL      0.077800
     61 H321        8.4700   -1.8550    3.3460 hn        1 JIL      0.455800
     62 H322        8.4870   -1.3590    4.9870 hn        1 JIL      0.455800
     63 H341        4.0310   -0.7690    6.0800 h5        1 JIL      0.058100
     64 H361        0.9230   -1.2710    3.3020 ho        1 JIL      0.449000
     65 H112       -0.7220   -4.2030   -5.8230 hn        1 JIL      0.456300
@<TRIPOS>BOND
     1    1    2 1   
     2    1   37 1   
     3    2    3 1   
     4    2    6 1   
     5    2   38 1   
     6    3    4 1   
     7    3   36 1   
     8    3   39 1   
     9    4    5 1   
    10    4   26 1   
    11    4   40 1   
    12    5    6 1   
    13    6    7 1   
    14    6   41 1   
    15    7    8 1   
    16    7   42 1   
    17    7   43 1   
    18    8    9 1   
    19    9   10 1   
    20    9   44 1   
    21    9   45 1   
    22   10   11 1   
    23   10   46 1   
    24   10   47 1   
    25   11   12 1   
    26   11   48 1   
    27   11   65 1   
    28   12   13 1   
    29   12   49 1   
    30   12   50 1   
    31   13   14 1   
    32   13   25 1   
    33   13   51 1   
    34   14   15 1   
    35   14   52 1   
    36   15   16 1   
    37   15   53 1   
    38   15   54 1   
    39   16   17 ar  
    40   16   24 ar  
    41   17   18 ar  
    42   17   55 1   
    43   18   19 1   
    44   18   22 ar  
    45   19   20 1   
    46   19   21 1   
    47   22   23 ar  
    48   22   56 1   
    49   23   24 ar  
    50   23   57 1   
    51   24   25 1   
    52   25   58 1   
    53   25   59 1   
    54   26   27 1   
    55   26   30 1   
    56   27   28 ar  
    57   27   35 ar  
    58   28   29 1   
    59   28   31 ar  
    60   29   30 2   
    61   30   60 1   
    62   31   32 1   
    63   31   33 ar  
    64   32   61 1   
    65   32   62 1   
    66   33   34 ar  
    67   34   35 ar  
    68   34   63 1   
    69   36   64 1   
@<TRIPOS>SUBSTRUCTURE
     1 JIL         1 TEMP              0 ****  ****    0 ROOT
