@<TRIPOS>MOLECULE
JIL
   65    69     1     0     0
SMALL
bcc


@<TRIPOS>ATOM
      1 O01        -0.1330   -0.5070    0.0220 oh        1 JIL     -0.582800
      2 C02         1.2630   -0.4760    0.1840 c3        1 JIL      0.130100
      3 C03         1.7540   -0.9370    1.5730 c3        1 JIL      0.089100
      4 C04         2.6110   -2.2210    1.3060 c3        1 JIL      0.232800
      5 O05         2.5090   -2.5280   -0.0900 os        1 JIL     -0.419600
      6 C06         2.0050   -1.3960   -0.8200 c3        1 JIL      0.112100
      7 C07         1.1250   -1.9250   -1.9330 c3        1 JIL     -0.032300
      8 S08         2.1020   -1.8860   -3.4110 ss        1 JIL     -0.202200
      9 C09         0.9670   -2.3730   -4.6560 c3        1 JIL     -0.082300
     10 C10         1.1040   -3.8710   -4.8660 c3        1 JIL      0.105800
     11 N11         0.2830   -4.3780   -6.0100 ny        1 JIL     -0.759000
     12 C12         0.4650   -5.8420   -6.2260 c3        1 JIL      0.103800
     13 C13        -0.5030   -6.3940   -7.2960 c3        1 JIL      0.133500
     14 N14        -0.4080   -5.6400   -8.5430 n7        1 JIL     -0.820200
     15 C15        -1.3850   -6.1130   -9.5120 c3        1 JIL      0.194100
     16 C16        -1.5070   -7.6070   -9.6150 ca        1 JIL     -0.131300
     17 C17        -2.1800   -8.1490  -10.7120 ca        1 JIL     -0.055000
     18 C18        -2.3230   -9.5400  -10.8110 ca        1 JIL     -0.162200
     19 N19        -3.0420  -10.1200  -11.9820 no        1 JIL      0.313200
     20 O20        -3.4800   -9.3720  -12.8130 o         1 JIL     -0.187500
     21 O21        -3.1570  -11.3120  -12.0530 o         1 JIL     -0.187500
     22 C22        -1.8000  -10.3920   -9.8260 ca        1 JIL     -0.053000
     23 C23        -1.1320   -9.8360   -8.7380 ca        1 JIL     -0.126000
     24 C24        -0.9820   -8.4500   -8.6230 ca        1 JIL     -0.057300
     25 C25        -0.2450   -7.9000   -7.4490 c3        1 JIL     -0.065100
     26 N26         3.9930   -2.0820    1.6910 na        1 JIL     -0.304000
     27 C27         4.4310   -1.7360    2.9810 ca        1 JIL      0.456800
     28 C28         5.8810   -1.8610    2.9370 ca        1 JIL     -0.233200
     29 N29         6.2890   -2.2830    1.6620 nc        1 JIL     -0.533100
     30 C30         5.1600   -2.4120    0.9550 cd        1 JIL      0.414700
     31 C31         6.5990   -1.5550    4.1450 ca        1 JIL      0.773200
     32 N32         7.9610   -1.6410    4.1800 nv        1 JIL     -0.949500
     33 N33         5.8820   -1.1710    5.2590 nb        1 JIL     -0.787000
     34 C34         4.5320   -1.1010    5.1490 ca        1 JIL      0.701900
     35 N35         3.7270   -1.3520    4.0870 nb        1 JIL     -0.774000
     36 O36         0.6370   -1.2970    2.3530 oh        1 JIL     -0.599800
     37 H011       -0.4950   -1.2300    0.5520 ho        1 JIL      0.432000
     38 H021        1.5480    0.5970   -0.0060 h1        1 JIL      0.101700
     39 H031        2.3460   -0.1200    2.0650 h1        1 JIL      0.097700
     40 H041        2.1650   -3.1130    1.8440 h2        1 JIL      0.106700
     41 H061        2.8940   -0.8440   -1.2410 h1        1 JIL      0.078700
     42 H071        0.7890   -2.9640   -1.6980 h1        1 JIL      0.091700
     43 H072        0.2180   -1.2770   -2.0440 h1        1 JIL      0.091700
     44 H091        1.2540   -1.8090   -5.5820 h1        1 JIL      0.099200
     45 H092       -0.0830   -2.0940   -4.3920 h1        1 JIL      0.099200
     46 H101        0.7780   -4.4230   -3.9370 hx        1 JIL      0.112200
     47 H102        2.1830   -4.1310   -5.0760 hx        1 JIL      0.112200
     48 H111        0.5450   -3.8720   -6.8670 hn        1 JIL      0.456300
     49 H121        0.2690   -6.3750   -5.2530 hx        1 JIL      0.107200
     50 H122        1.5370   -6.0190   -6.5270 hx        1 JIL      0.107200
     51 H131       -1.5640   -6.2650   -6.9190 h1        1 JIL      0.087700
     52 H141        0.5180   -5.7430   -8.9250 hn        1 JIL      0.364800
     53 H151       -2.3910   -5.6920   -9.2180 h1        1 JIL      0.085200
     54 H152       -1.1150   -5.6820  -10.5190 h1        1 JIL      0.085200
     55 H171       -2.5950   -7.4890  -11.4950 ha        1 JIL      0.181000
     56 H221       -1.9170  -11.4870   -9.9140 ha        1 JIL      0.186000
     57 H231       -0.7200  -10.5000   -7.9610 ha        1 JIL      0.155000
     58 H251        0.8540   -8.0950   -7.5870 hc        1 JIL      0.074200
     59 H252       -0.5680   -8.4280   -6.5130 hc        1 JIL      0.074200
     60 H301        5.0850   -2.7360   -0.0900 h5        1 JIL      0.077800
     61 H321        8.4470   -1.9320    3.3690 hn        1 JIL      0.455800
     62 H322        8.4620   -1.4400    5.0110 hn        1 JIL      0.455800
     63 H341        4.0090   -0.7870    6.0800 h5        1 JIL      0.058100
     64 H361        0.9080   -1.2380    3.2810 ho        1 JIL      0.449000
     65 H112       -0.7100   -4.1840   -5.8360 hn        1 JIL      0.456300
@<TRIPOS>BOND
     1    1    2 1   
     2    1   37 1   
     3    2    3 1   
     4    2    6 1   
     5    2   38 1   
     6    3    4 1   
     7    3   36 1   
     8    3   39 1   
     9    4    5 1   
    10    4   26 1   
    11    4   40 1   
    12    5    6 1   
    13    6    7 1   
    14    6   41 1   
    15    7    8 1   
    16    7   42 1   
    17    7   43 1   
    18    8    9 1   
    19    9   10 1   
    20    9   44 1   
    21    9   45 1   
    22   10   11 1   
    23   10   46 1   
    24   10   47 1   
    25   11   12 1   
    26   11   48 1   
    27   11   65 1   
    28   12   13 1   
    29   12   49 1   
    30   12   50 1   
    31   13   14 1   
    32   13   25 1   
    33   13   51 1   
    34   14   15 1   
    35   14   52 1   
    36   15   16 1   
    37   15   53 1   
    38   15   54 1   
    39   16   17 ar  
    40   16   24 ar  
    41   17   18 ar  
    42   17   55 1   
    43   18   19 1   
    44   18   22 ar  
    45   19   20 1   
    46   19   21 1   
    47   22   23 ar  
    48   22   56 1   
    49   23   24 ar  
    50   23   57 1   
    51   24   25 1   
    52   25   58 1   
    53   25   59 1   
    54   26   27 1   
    55   26   30 1   
    56   27   28 ar  
    57   27   35 ar  
    58   28   29 1   
    59   28   31 ar  
    60   29   30 2   
    61   30   60 1   
    62   31   32 1   
    63   31   33 ar  
    64   32   61 1   
    65   32   62 1   
    66   33   34 ar  
    67   34   35 ar  
    68   34   63 1   
    69   36   64 1   
@<TRIPOS>SUBSTRUCTURE
     1 JIL         1 TEMP              0 ****  ****    0 ROOT
