@<TRIPOS>MOLECULE
JIL
   64    68     1     0     0
SMALL
bcc


@<TRIPOS>ATOM
      1 O01        -0.0410   -3.2070   -0.5960 oh        1 JIL     -0.598800
      2 C02         1.3650   -3.0850   -0.5430 c3        1 JIL      0.123100
      3 C03         1.8540   -1.7530    0.0700 c3        1 JIL      0.086100
      4 C04         2.2940   -2.1200    1.5260 c3        1 JIL      0.230800
      5 O05         2.1790   -3.5360    1.6740 os        1 JIL     -0.413600
      6 C06         1.9440   -4.1670    0.3960 c3        1 JIL      0.140100
      7 C07         1.0520   -5.3620    0.6580 c3        1 JIL     -0.017300
      8 S08         1.2940   -6.6590   -0.5110 ss        1 JIL     -0.292200
      9 C09         0.1590   -6.2600   -1.8120 c3        1 JIL     -0.030300
     10 C10         0.8060   -6.6840   -3.1220 c3        1 JIL      0.174800
     11 N11        -0.0480   -6.4580   -4.2740 n3        1 JIL     -0.830200
     12 C12         0.4720   -7.0560   -5.4860 c3        1 JIL      0.161800
     13 C13        -0.4010   -6.7310   -6.7240 c3        1 JIL      0.180500
     14 N14        -0.3420   -5.3190   -7.0740 n3        1 JIL     -0.819200
     15 C15        -1.1970   -4.9740   -8.1910 c3        1 JIL      0.209100
     16 C16        -1.1460   -5.9540   -9.3280 ca        1 JIL     -0.085300
     17 C17        -1.7210   -5.5890  -10.5470 ca        1 JIL     -0.066000
     18 C18        -1.7000   -6.4960  -11.6160 ca        1 JIL     -0.178200
     19 N19        -2.3140   -6.1130  -12.9140 no        1 JIL      0.314200
     20 O20        -2.8230   -5.0290  -13.0210 o         1 JIL     -0.210500
     21 O21        -2.2860   -6.8960  -13.8260 o         1 JIL     -0.210500
     22 C22        -1.1070   -7.7620  -11.4770 ca        1 JIL     -0.067000
     23 C23        -0.5380   -8.1090  -10.2570 ca        1 JIL     -0.143000
     24 C24        -0.5500   -7.2160   -9.1780 ca        1 JIL     -0.020300
     25 C25         0.0860   -7.6050   -7.8920 c3        1 JIL     -0.044100
     26 N26         3.6410   -1.7040    1.8470 na        1 JIL     -0.293000
     27 C27         4.1570   -0.4100    1.6840 ca        1 JIL      0.451800
     28 C28         5.5060   -0.4640    2.2350 ca        1 JIL     -0.228200
     29 N29         5.7770   -1.7540    2.7150 nc        1 JIL     -0.547100
     30 C30         4.6610   -2.4590    2.4780 cd        1 JIL      0.426700
     31 C31         6.2770    0.7470    2.1960 ca        1 JIL      0.767200
     32 N32         7.5560    0.7650    2.6790 nh        1 JIL     -0.957500
     33 N33         5.7060    1.8780    1.6560 nb        1 JIL     -0.795000
     34 C34         4.4380    1.7780    1.1800 ca        1 JIL      0.692900
     35 N35         3.5990    0.7160    1.1440 nb        1 JIL     -0.769000
     36 O36         0.7770   -0.8450    0.1020 oh        1 JIL     -0.600800
     37 H011       -0.4080   -2.3420   -0.8280 ho        1 JIL      0.436000
     38 H021        1.7740   -3.2070   -1.5830 h1        1 JIL      0.065700
     39 H031        2.7040   -1.3390   -0.5350 h1        1 JIL      0.078700
     40 H041        1.5830   -1.6660    2.2830 h2        1 JIL      0.103700
     41 H061        2.9440   -4.5000   -0.0010 h1        1 JIL      0.070700
     42 H071       -0.0180   -5.0450    0.7030 h1        1 JIL      0.101700
     43 H072        1.3230   -5.8040    1.6530 h1        1 JIL      0.101700
     44 H091       -0.0720   -5.1650   -1.8120 h1        1 JIL      0.081200
     45 H092       -0.7970   -6.8110   -1.6420 h1        1 JIL      0.081200
     46 H101        1.7460   -6.0820   -3.2820 h1        1 JIL      0.042700
     47 H102        1.1150   -7.7700   -3.0310 h1        1 JIL      0.042700
     48 H111       -0.9800   -6.7810   -4.0930 hn        1 JIL      0.355800
     49 H121        1.5140   -6.6630   -5.6520 h1        1 JIL      0.042200
     50 H122        0.5410   -8.1820   -5.4140 h1        1 JIL      0.042200
     51 H131       -1.4680   -7.0470   -6.4970 h1        1 JIL      0.019700
     52 H141       -0.5520   -4.7450   -6.2790 hn        1 JIL      0.389800
     53 H151       -2.2840   -4.8720   -7.8870 h1        1 JIL      0.047700
     54 H152       -0.8530   -3.9640   -8.5620 h1        1 JIL      0.047700
     55 H171       -2.1860   -4.5950  -10.6680 ha        1 JIL      0.170000
     56 H221       -1.0950   -8.4680  -12.3250 ha        1 JIL      0.170000
     57 H231       -0.0700   -9.0990  -10.1390 ha        1 JIL      0.147000
     58 H251       -0.1410   -8.6780   -7.6570 hc        1 JIL      0.066700
     59 H252        1.2010   -7.5070   -7.9990 hc        1 JIL      0.066700
     60 H301        4.4970   -3.5160    2.7270 h5        1 JIL      0.087800
     61 H321        7.9220   -0.0530    3.0970 hn        1 JIL      0.451300
     62 H322        8.0840    1.6030    2.6870 hn        1 JIL      0.451300
     63 H341        4.0290    2.7220    0.7560 h5        1 JIL      0.051100
     64 H361        1.1460    0.0260    0.3040 ho        1 JIL      0.443000
@<TRIPOS>BOND
     1    1    2 1   
     2    1   37 1   
     3    2    3 1   
     4    2    6 1   
     5    2   38 1   
     6    3    4 1   
     7    3   36 1   
     8    3   39 1   
     9    4    5 1   
    10    4   26 1   
    11    4   40 1   
    12    5    6 1   
    13    6    7 1   
    14    6   41 1   
    15    7    8 1   
    16    7   42 1   
    17    7   43 1   
    18    8    9 1   
    19    9   10 1   
    20    9   44 1   
    21    9   45 1   
    22   10   11 1   
    23   10   46 1   
    24   10   47 1   
    25   11   12 1   
    26   11   48 1   
    27   12   13 1   
    28   12   49 1   
    29   12   50 1   
    30   13   14 1   
    31   13   25 1   
    32   13   51 1   
    33   14   15 1   
    34   14   52 1   
    35   15   16 1   
    36   15   53 1   
    37   15   54 1   
    38   16   17 ar  
    39   16   24 ar  
    40   17   18 ar  
    41   17   55 1   
    42   18   19 1   
    43   18   22 ar  
    44   19   20 1   
    45   19   21 1   
    46   22   23 ar  
    47   22   56 1   
    48   23   24 ar  
    49   23   57 1   
    50   24   25 1   
    51   25   58 1   
    52   25   59 1   
    53   26   27 1   
    54   26   30 1   
    55   27   28 ar  
    56   27   35 ar  
    57   28   29 1   
    58   28   31 ar  
    59   29   30 2   
    60   30   60 1   
    61   31   32 1   
    62   31   33 ar  
    63   32   61 1   
    64   32   62 1   
    65   33   34 ar  
    66   34   35 ar  
    67   34   63 1   
    68   36   64 1   
@<TRIPOS>SUBSTRUCTURE
     1 JIL         1 TEMP              0 ****  ****    0 ROOT
