@<TRIPOS>MOLECULE
JIM
   19    18     1     0     0
SMALL
bcc


@<TRIPOS>ATOM
      1 OAA         0.0700    0.3290    0.3140 oh        1 JIM     -0.611800
      2 CAB         1.4840    0.3230    0.2000 c3        1 JIM      0.092400
      3 CAC         2.0120   -0.2160    1.5350 c3        1 JIM      0.140100
      4 CAD         3.5380   -0.3210    1.4990 c3        1 JIM      0.138400
      5 OAE         4.0000    0.2940    2.7120 os        1 JIM     -0.443900
      6 CAF         5.3470    0.2420    2.9490 c         1 JIM      0.635100
      7 OAG         6.0700   -0.2800    2.0980 o         1 JIM     -0.543000
      8 OAH         1.5220   -1.5270    1.7690 oh        1 JIM     -0.599800
      9 CAI         5.7310    0.8560    4.2500 c3        1 JIM     -0.150100
     10 HOAA       -0.2790    0.5770   -0.5490 ho        1 JIM      0.410000
     11 HAB         1.8020   -0.3450   -0.6440 h1        1 JIM      0.037700
     12 HABA        1.8620    1.3630    0.0240 h1        1 JIM      0.037700
     13 HAC         1.6810    0.4630    2.3710 h1        1 JIM      0.069700
     14 HAD         3.8700   -1.3920    1.4750 h1        1 JIM      0.068200
     15 HADA        3.9740    0.2320    0.6280 h1        1 JIM      0.068200
     16 HOAH        0.5580   -1.4730    1.7230 ho        1 JIM      0.421000
     17 HAI         6.0840    0.0470    4.9370 hc        1 JIM      0.077033
     18 HAIA        4.8650    1.3830    4.7150 hc        1 JIM      0.077033
     19 HAIB        6.5650    1.5790    4.0790 hc        1 JIM      0.077033
@<TRIPOS>BOND
     1    1    2 1   
     2    1   10 1   
     3    2    3 1   
     4    2   11 1   
     5    2   12 1   
     6    3    4 1   
     7    3    8 1   
     8    3   13 1   
     9    4    5 1   
    10    4   14 1   
    11    4   15 1   
    12    5    6 1   
    13    6    7 2   
    14    6    9 1   
    15    8   16 1   
    16    9   17 1   
    17    9   18 1   
    18    9   19 1   
@<TRIPOS>SUBSTRUCTURE
     1 JIM         1 TEMP              0 ****  ****    0 ROOT
