@<TRIPOS>MOLECULE
JIM
   19    18     1     0     0
SMALL
bcc


@<TRIPOS>ATOM
      1 OAA         0.0380    0.2800    0.3700 oh        1 JIM     -0.611800
      2 CAB         1.4490    0.3480    0.2370 c3        1 JIM      0.092400
      3 CAC         2.0230   -0.2440    1.5300 c3        1 JIM      0.140100
      4 CAD         3.5510   -0.2740    1.4680 c3        1 JIM      0.138400
      5 OAE         4.0030    0.2860    2.7110 os        1 JIM     -0.443900
      6 CAF         5.3540    0.2820    2.9290 c         1 JIM      0.635100
      7 OAG         6.0870   -0.1530    2.0390 o         1 JIM     -0.543000
      8 OAH         1.5990   -1.5890    1.6890 oh        1 JIM     -0.599800
      9 CAI         5.7290    0.8310    4.2610 c3        1 JIM     -0.150100
     10 HOAA       -0.3350    0.5630   -0.4730 ho        1 JIM      0.410000
     11 HAB         1.7750    1.4150    0.1200 h1        1 JIM      0.037700
     12 HABA        1.7850   -0.2510   -0.6500 h1        1 JIM      0.037700
     13 HAC         1.6730    0.3670    2.4100 h1        1 JIM      0.069700
     14 HAD         3.9330   -1.3240    1.3730 h1        1 JIM      0.068200
     15 HADA        3.9480    0.3530    0.6280 h1        1 JIM      0.068200
     16 HOAH        0.6330   -1.5780    1.6590 ho        1 JIM      0.421000
     17 HAI         6.5380    1.5900    4.1270 hc        1 JIM      0.077033
     18 HAIA        6.1130   -0.0040    4.8970 hc        1 JIM      0.077033
     19 HAIB        4.8500    1.3020    4.7620 hc        1 JIM      0.077033
@<TRIPOS>BOND
     1    1    2 1   
     2    1   10 1   
     3    2    3 1   
     4    2   11 1   
     5    2   12 1   
     6    3    4 1   
     7    3    8 1   
     8    3   13 1   
     9    4    5 1   
    10    4   14 1   
    11    4   15 1   
    12    5    6 1   
    13    6    7 2   
    14    6    9 1   
    15    8   16 1   
    16    9   17 1   
    17    9   18 1   
    18    9   19 1   
@<TRIPOS>SUBSTRUCTURE
     1 JIM         1 TEMP              0 ****  ****    0 ROOT
