@<TRIPOS>MOLECULE
JIM
   19    18     1     0     0
SMALL
bcc


@<TRIPOS>ATOM
      1 OAA        -3.0100    0.8180    0.8870 oh        1 JIM     -0.602800
      2 CAB        -2.4540    0.4440   -0.3620 c3        1 JIM      0.097400
      3 CAC        -1.1380   -0.2890   -0.0710 c3        1 JIM      0.118100
      4 CAD        -0.1540    0.6680    0.6010 c3        1 JIM      0.104400
      5 OAE         1.0770    0.0050    0.8990 os        1 JIM     -0.431900
      6 CAF         2.0320   -0.0440   -0.0800 c         1 JIM      0.645100
      7 OAG         1.7990    0.5110   -1.1580 o         1 JIM     -0.562000
      8 OAH        -0.6310   -0.8450   -1.2670 oh        1 JIM     -0.596800
      9 CAI         3.2530   -0.7840    0.3370 c3        1 JIM     -0.149100
     10 HOAA       -3.9000    1.1410    0.7070 ho        1 JIM      0.406000
     11 HAB        -3.1460   -0.2430   -0.9170 h1        1 JIM      0.034200
     12 HABA       -2.2660    1.3580   -0.9860 h1        1 JIM      0.034200
     13 HAC        -1.3310   -1.1770    0.5950 h1        1 JIM      0.094700
     14 HAD         0.0320    1.5670   -0.0410 h1        1 JIM      0.078200
     15 HADA       -0.5490    0.9730    1.6070 h1        1 JIM      0.078200
     16 HOAH       -0.2360   -0.1280   -1.7840 ho        1 JIM      0.420000
     17 HAI         3.2500   -1.7860   -0.1610 hc        1 JIM      0.078033
     18 HAIA        4.1570   -0.2150    0.0100 hc        1 JIM      0.078033
     19 HAIB        3.2760   -0.9260    1.4450 hc        1 JIM      0.078033
@<TRIPOS>BOND
     1    1    2 1   
     2    1   10 1   
     3    2    3 1   
     4    2   11 1   
     5    2   12 1   
     6    3    4 1   
     7    3    8 1   
     8    3   13 1   
     9    4    5 1   
    10    4   14 1   
    11    4   15 1   
    12    5    6 1   
    13    6    7 2   
    14    6    9 1   
    15    8   16 1   
    16    9   17 1   
    17    9   18 1   
    18    9   19 1   
@<TRIPOS>SUBSTRUCTURE
     1 JIM         1 TEMP              0 ****  ****    0 ROOT
