@<TRIPOS>MOLECULE
JIN
   45    48     1     0     0
SMALL
bcc


@<TRIPOS>ATOM
      1 C10        -0.2220   -0.4700   -0.0960 c2        1 JIN      0.005000
      2 C12         1.7930    0.5580    0.8660 c2        1 JIN      0.340000
      3 C13         1.8450    1.2240    3.2540 c3        1 JIN     -0.090000
      4 C15         4.0790    0.5650   -2.1000 c2        1 JIN      0.186000
      5 C16         4.2370   -0.7400   -2.2270 c1        1 JIN     -0.346000
      6 C19         1.7740   -0.2370   -1.5100 c2        1 JIN     -0.317000
      7 C20         2.5510    0.8990   -2.0100 c3        1 JIN     -0.013000
      8 C27        -1.9150    0.3100    6.0790 c3        1 JIN     -0.025000
      9 C30        -1.4020   -0.2020    8.8690 c2        1 JIN      0.360000
     10 C31        -2.4630    0.6840    8.4830 c2        1 JIN     -0.235000
     11 F35        -1.1590   -0.3920   10.1580 f         1 JIN      0.006000
     12 C29        -0.6300   -0.8910    7.8800 c2        1 JIN     -0.184000
     13 C28        -0.9180   -0.6980    6.5530 c2        1 JIN      0.079000
     14 C26        -2.7510    0.8900    7.1720 c2        1 JIN      0.015000
     15 N08        -2.6820   -0.1600    4.9370 n3        1 JIN     -0.263000
     16 C04        -2.0540   -0.1410    3.6470 c2        1 JIN      0.122000
     17 N03        -2.7910   -0.6440    2.5440 n3        1 JIN     -0.169000
     18 C02        -2.2290   -0.7570    1.3270 c1        1 JIN     -0.004000
     19 N05        -0.7820    0.2830    3.5370 n2        1 JIN     -0.289000
     20 C06        -0.1670    0.2020    2.2800 c2        1 JIN      0.175000
     21 N11         1.1350    0.6580    2.1310 n         1 JIN     -0.228000
     22 O14         2.9420    1.0310    0.7890 o         1 JIN     -0.353000
     23 C09         1.0740   -0.0790   -0.2580 c2        1 JIN     -0.075000
     24 C01        -0.8730   -0.3400    1.1680 c2        1 JIN     -0.237000
     25 C18         1.9490   -1.5350   -2.1380 c3        1 JIN      0.056000
     26 C17         3.4780   -1.7890   -2.1360 c1        1 JIN      0.128000
     27 CL4         1.0810   -2.8890   -1.4720 cl        1 JIN     -0.042000
     28 CL5         2.1390    1.3670   -3.6750 cl        1 JIN     -0.102000
     29 H10        -0.8040   -0.9030   -0.9280 ha        1 JIN      0.183000
     30 H131        1.9400    0.4620    4.0720 h1        1 JIN      0.100333
     31 H132        1.2950    2.1200    3.6440 h1        1 JIN      0.100333
     32 H133        2.8750    1.5410    2.9330 h1        1 JIN      0.100333
     33 H15         2.4150    1.8210   -1.3900 h1        1 JIN      0.155000
     34 H16         4.8030    1.3860   -2.0510 ha        1 JIN      0.181000
     35 H31        -3.0490    1.1730    9.2860 ha        1 JIN      0.209000
     36 H341        0.0080   -2.6130    8.9920 hc        1 JIN      0.124000
     37 H342        0.9170   -2.3330    7.4450 hc        1 JIN      0.124000
     38 H343        1.2250   -1.2720    8.8870 hc        1 JIN      0.124000
     39 H28        -0.3660   -1.2630    5.7730 ha        1 JIN      0.209000
     40 H26        -1.2280    1.2080    5.7870 h1        1 JIN      0.217000
     41 HN08       -3.5920    1.5490    6.8810 ha        1 JIN      0.191000
     42 H02        -3.7310   -0.9560    2.6700 hn        1 JIN      0.275000
     43 H17         1.7500   -1.5310   -3.2530 h1        1 JIN      0.180000
     44 C34         0.4350   -1.8260    8.3180 c3        1 JIN     -0.203000
     45 H082       -3.6180    0.1990    4.9210 hn        1 JIN      0.227000
@<TRIPOS>BOND
     1    1   23 1   
     2    1   24 1   
     3    1   29 1   
     4    2   21 1   
     5    2   22 1   
     6    2   23 1   
     7    3   21 1   
     8    3   30 1   
     9    3   31 1   
    10    3   32 1   
    11    4    5 1   
    12    4    7 1   
    13    4   34 1   
    14    5   26 1   
    15    6    7 1   
    16    6   23 1   
    17    6   25 1   
    18    7   28 1   
    19    7   33 1   
    20    8   13 1   
    21    8   14 1   
    22    8   15 1   
    23    8   40 1   
    24    9   10 1   
    25    9   11 1   
    26    9   12 1   
    27   10   14 1   
    28   10   35 1   
    29   12   13 1   
    30   12   44 1   
    31   13   39 1   
    32   14   41 1   
    33   15   16 1   
    34   15   45 1   
    35   16   17 1   
    36   16   19 1   
    37   17   18 1   
    38   17   42 1   
    39   18   24 1   
    40   19   20 1   
    41   20   21 1   
    42   20   24 1   
    43   25   26 1   
    44   25   27 1   
    45   25   43 1   
    46   36   44 1   
    47   37   44 1   
    48   38   44 1   
@<TRIPOS>SUBSTRUCTURE
     1 JIN         1 TEMP              0 ****  ****    0 ROOT
