@<TRIPOS>MOLECULE
JIN
   44    47     1     0     0
SMALL
bcc


@<TRIPOS>ATOM
      1 C10        -0.1980   -5.0000   -1.3160 cc        1 JIN      0.027800
      2 C12         2.0550   -5.2750   -0.3550 c         1 JIN      0.716700
      3 C13         3.1940   -3.3680    0.7340 c3        1 JIN      0.069300
      4 C15         1.4460   -8.9260   -3.1080 ca        1 JIN     -0.128000
      5 C16         0.9760   -9.9080   -2.2400 ca        1 JIN     -0.107000
      6 C19         0.9010   -7.2050   -1.4660 ca        1 JIN     -0.024800
      7 C20         1.4070   -7.5820   -2.7220 ca        1 JIN      0.045400
      8 C27         0.9210    1.0100    0.8490 ca        1 JIN      0.120600
      9 C30         3.0680    2.5340    1.8250 ca        1 JIN      0.114900
     10 C31         2.3040    3.0060    0.7440 ca        1 JIN     -0.148000
     11 F35         4.1050    3.2780    2.2820 f         1 JIN     -0.137900
     12 C29         2.7590    1.2950    2.4280 ca        1 JIN     -0.096300
     13 C28         1.6870    0.5480    1.9370 ca        1 JIN     -0.088000
     14 C26         1.2450    2.2520    0.2590 ca        1 JIN     -0.142000
     15 N08        -0.2110    0.2970    0.3910 nh        1 JIN     -0.710300
     16 C04        -0.1450   -1.0230   -0.0780 ca        1 JIN      0.917900
     17 N03        -1.2850   -1.4760   -0.7710 nb        1 JIN     -0.763000
     18 C02        -1.2700   -2.7480   -1.1470 ca        1 JIN      0.519200
     19 N05         0.9660   -1.7800    0.1990 nb        1 JIN     -0.792000
     20 C06         0.9440   -3.0940   -0.2110 ca        1 JIN      0.621200
     21 N11         2.0430   -3.9120    0.0490 n         1 JIN     -0.422300
     22 O14         3.0620   -5.9560   -0.0940 o         1 JIN     -0.604500
     23 C09         0.8690   -5.7990   -1.0610 cd        1 JIN     -0.154400
     24 C01        -0.1930   -3.6350   -0.9040 ca        1 JIN     -0.418400
     25 C18         0.4290   -8.2140   -0.6100 ca        1 JIN      0.045400
     26 C17         0.4660   -9.5590   -0.9920 ca        1 JIN     -0.128000
     27 CL4        -0.2020   -7.8230    0.9200 cl        1 JIN     -0.079400
     28 CL5         1.9860   -6.4090   -3.8080 cl        1 JIN     -0.079400
     29 H10        -1.0870   -5.3820   -1.8430 ha        1 JIN      0.149000
     30 H131        2.8910   -2.9880    1.7460 h1        1 JIN      0.064033
     31 H132        3.6270   -2.5200    0.1390 h1        1 JIN      0.064033
     32 H133        3.9740   -4.1660    0.8590 h1        1 JIN      0.064033
     33 H15         1.8500   -9.2060   -4.0930 ha        1 JIN      0.152000
     34 H16         1.0090  -10.9660   -2.5410 ha        1 JIN      0.143000
     35 H31         2.5560    3.9740    0.2860 ha        1 JIN      0.151000
     36 H341        4.6350    1.0460    3.4390 hc        1 JIN      0.052700
     37 H342        3.2010    1.2900    4.5200 hc        1 JIN      0.052700
     38 H343        3.4470   -0.3060    3.6920 hc        1 JIN      0.052700
     39 H28         1.4500   -0.4150    2.4180 ha        1 JIN      0.159000
     40 H26         0.6600    2.6390   -0.5910 ha        1 JIN      0.139000
     41 HN08       -0.9260    0.8630   -0.0210 hn        1 JIN      0.450800
     42 H02        -2.1690   -3.1040   -1.6880 h4        1 JIN      0.033100
     43 H17         0.0980  -10.3380   -0.3070 ha        1 JIN      0.152000
     44 C34         3.5520    0.8000    3.5760 c3        1 JIN     -0.054800
@<TRIPOS>BOND
     1    1   23 2   
     2    1   24 1   
     3    1   29 1   
     4    2   21 1   
     5    2   22 2   
     6    2   23 1   
     7    3   21 1   
     8    3   30 1   
     9    3   31 1   
    10    3   32 1   
    11    4    5 ar  
    12    4    7 ar  
    13    4   33 1   
    14    5   26 ar  
    15    5   34 1   
    16    6    7 ar  
    17    6   23 1   
    18    6   25 ar  
    19    7   28 1   
    20    8   13 ar  
    21    8   14 ar  
    22    8   15 1   
    23    9   10 ar  
    24    9   11 1   
    25    9   12 ar  
    26   10   14 ar  
    27   10   35 1   
    28   12   13 ar  
    29   12   44 1   
    30   13   39 1   
    31   14   40 1   
    32   15   16 1   
    33   15   41 1   
    34   16   17 ar  
    35   16   19 ar  
    36   17   18 ar  
    37   18   24 ar  
    38   18   42 1   
    39   19   20 ar  
    40   20   21 1   
    41   20   24 ar  
    42   25   26 ar  
    43   25   27 1   
    44   26   43 1   
    45   36   44 1   
    46   37   44 1   
    47   38   44 1   
@<TRIPOS>SUBSTRUCTURE
     1 JIN         1 TEMP              0 ****  ****    0 ROOT
