@<TRIPOS>MOLECULE
JIN
   44    46     1     0     0
SMALL
bcc


@<TRIPOS>ATOM
      1 C10         0.3630   -0.5480    1.2240 c2        1 JIN      0.043000
      2 C12         1.8300    1.4260    1.1250 c2        1 JIN      0.369000
      3 C13         1.3770    3.4260    2.5020 c3        1 JIN     -0.086000
      4 C15         3.3970   -0.4690   -2.6480 c2        1 JIN     -0.052000
      5 C16         3.5770   -1.7640   -2.2960 c1        1 JIN     -0.126000
      6 C19         2.2660   -0.5740   -0.3250 c2        1 JIN     -0.143000
      7 C20         2.7600    0.2290   -1.4740 c3        1 JIN     -0.035000
      8 C27        -2.0980   -0.5010    5.1600 c2        1 JIN     -0.174000
      9 C30        -1.0470   -1.4840    7.8560 c2        1 JIN      0.168000
     10 C31        -0.9370   -0.0320    7.8950 c2        1 JIN     -0.506000
     11 F35        -0.9300   -2.1110    9.0540 f         1 JIN     -0.096000
     12 C29        -1.2210   -2.2040    6.7100 c2        1 JIN     -0.147000
     13 C28        -1.3670   -1.6070    5.3960 c2        1 JIN     -0.036000
     14 C26        -1.2070    0.8100    8.8740 c1        1 JIN      0.279000
     15 N08        -2.2810    0.0840    3.8330 nx        1 JIN      0.053000
     16 C04        -2.1110    1.6100    3.9200 c2        1 JIN      0.080000
     17 N03        -3.0970    2.2460    4.4740 n2        1 JIN     -0.276000
     18 C02        -1.4540   -0.5820    2.8340 c1        1 JIN     -0.137000
     19 N05        -0.9260    2.1820    3.4220 n2        1 JIN     -0.321000
     20 C06        -0.1350    1.4920    2.5930 c2        1 JIN      0.241000
     21 N11         1.0170    2.0900    2.0780 n         1 JIN     -0.250000
     22 O14         2.8530    2.0120    0.7250 o         1 JIN     -0.351000
     23 C09         1.4430    0.0670    0.6700 c2        1 JIN     -0.152000
     24 C01        -0.4390    0.1000    2.2190 c2        1 JIN     -0.301000
     25 C18         2.6570   -2.0040   -0.0230 c3        1 JIN      0.158000
     26 C17         3.2600   -2.3810   -1.2610 c1        1 JIN     -0.109000
     27 Cl4         3.8250   -2.1080    1.3540 cl        1 JIN     -0.208000
     28 Cl5         1.5060    1.2930   -2.1150 cl        1 JIN     -0.039000
     29 H10         0.0540   -1.5630    0.9210 ha        1 JIN      0.159000
     30 H131        0.5710    4.1500    2.2060 h1        1 JIN      0.103333
     31 H132        1.4990    3.4490    3.6180 h1        1 JIN      0.103333
     32 H133        2.3430    3.7340    2.0210 h1        1 JIN      0.103333
     33 H15         3.5700    0.9160   -1.0390 h1        1 JIN      0.235000
     34 H16         3.6660    0.0630   -3.5590 ha        1 JIN      0.177000
     35 H31        -0.5510    0.4260    6.9520 ha        1 JIN      0.215000
     36 H341       -1.2380   -4.0950    7.7570 hc        1 JIN      0.096667
     37 H342       -2.1530   -4.0660    6.1900 hc        1 JIN      0.096667
     38 H343       -0.3390   -4.0820    6.1800 hc        1 JIN      0.096667
     39 H28        -0.8650   -2.1590    4.5740 ha        1 JIN      0.178000
     40 H26        -2.6540    0.0410    5.9500 hx        1 JIN      0.183000
     41 HN08       -3.2520   -0.1170    3.5440 hn        1 JIN      0.268000
     42 H02        -3.0160    3.2400    4.5160 hn        1 JIN      0.195000
     43 H17         1.8060   -2.6340    0.3370 h1        1 JIN      0.125000
     44 C34        -1.2400   -3.6900    6.7150 c3        1 JIN     -0.179000
@<TRIPOS>BOND
     1    1   23 1   
     2    1   24 1   
     3    1   29 1   
     4    2   21 1   
     5    2   22 1   
     6    2   23 1   
     7    3   21 1   
     8    3   30 1   
     9    3   31 1   
    10    3   32 1   
    11    4    5 1   
    12    4    7 1   
    13    4   34 1   
    14    5   26 1   
    15    6    7 1   
    16    6   23 1   
    17    6   25 1   
    18    7   28 1   
    19    7   33 1   
    20    8   13 1   
    21    8   15 1   
    22    8   40 1   
    23    9   10 1   
    24    9   11 1   
    25    9   12 1   
    26   10   14 1   
    27   10   35 1   
    28   12   13 1   
    29   12   44 1   
    30   13   39 1   
    31   15   16 1   
    32   15   18 1   
    33   15   41 1   
    34   16   17 1   
    35   16   19 1   
    36   17   42 1   
    37   18   24 1   
    38   19   20 1   
    39   20   21 1   
    40   20   24 1   
    41   25   26 1   
    42   25   27 1   
    43   25   43 1   
    44   36   44 1   
    45   37   44 1   
    46   38   44 1   
@<TRIPOS>SUBSTRUCTURE
     1 JIN         1 TEMP              0 ****  ****    0 ROOT
