@<TRIPOS>MOLECULE
JJ1
   88    88     1     0     0
SMALL
bcc


@<TRIPOS>ATOM
      1 O4          0.9620    0.5450   -0.4390 o         1 JJ1     -0.601100
      2 C6          2.0180   -0.0830   -0.2370 c         1 JJ1      0.643100
      3 N1          2.2390   -0.7760    0.9430 n         1 JJ1     -0.542900
      4 C1          1.4140   -0.5660    2.1060 c3        1 JJ1      0.030700
      5 C2          0.9700   -1.8760    2.7770 c3        1 JJ1     -0.082400
      6 C3          0.0290   -2.6680    1.8970 c3        1 JJ1     -0.080400
      7 C4         -0.4850   -3.8920    2.6250 c3        1 JJ1     -0.083400
      8 C5         -1.4350   -4.6790    1.7230 c3        1 JJ1      0.157800
      9 N          -2.0080   -5.8360    2.3690 n3        1 JJ1     -0.916800
     10 C           2.1770    0.2450    3.1900 c         1 JJ1      0.633100
     11 N3          1.4300    1.0890    3.9770 n         1 JJ1     -0.560900
     12 C19         1.9870    1.8390    5.0710 c3        1 JJ1      0.085000
     13 C20         1.4150    1.4610    6.4390 c3        1 JJ1     -0.099400
     14 C21         2.0200    2.3240    7.5360 c3        1 JJ1     -0.061700
     15 C26         1.8370    1.6450    8.8880 c3        1 JJ1     -0.073900
     16 C25         2.4100    2.4880   10.0090 c3        1 JJ1     -0.076400
     17 C24         1.8060    3.8770   10.0220 c3        1 JJ1     -0.077400
     18 C23         1.9700    4.5560    8.6780 c3        1 JJ1     -0.076400
     19 C22         1.3940    3.7120    7.5600 c3        1 JJ1     -0.073900
     20 O           3.4130    0.1310    3.3250 o         1 JJ1     -0.625100
     21 C7          3.1290   -0.2000   -1.3130 c3        1 JJ1      0.032700
     22 C8          4.3540    0.6150   -0.8360 c3        1 JJ1      0.121400
     23 O1          3.9500    1.9620   -0.6720 oh        1 JJ1     -0.598800
     24 N2          2.6750    0.2150   -2.6120 n         1 JJ1     -0.544900
     25 C9          2.3440   -0.7110   -3.5950 c         1 JJ1      0.658100
     26 O3          2.6520   -1.9130   -3.4710 o         1 JJ1     -0.608100
     27 C10         1.6530   -0.1660   -4.8300 c3        1 JJ1     -0.148400
     28 C11         1.4840   -1.2440   -5.8780 c3        1 JJ1     -0.074400
     29 C12         0.7770   -0.7020   -7.1010 c3        1 JJ1     -0.079400
     30 C13         0.6080   -1.7770   -8.1540 c3        1 JJ1     -0.078400
     31 C14        -0.1010   -1.2390   -9.3780 c3        1 JJ1     -0.079400
     32 C15        -0.2690   -2.3140  -10.4300 c3        1 JJ1     -0.078400
     33 C16        -0.9790   -1.7770  -11.6550 c3        1 JJ1     -0.078400
     34 C17        -1.1450   -2.8540  -12.7040 c3        1 JJ1     -0.084400
     35 C18        -1.8590   -2.3030  -13.9260 c3        1 JJ1      0.132400
     36 O2         -1.9720   -3.3680  -14.8570 oh        1 JJ1     -0.601800
     37 H1          3.1570   -1.1120    1.1310 hn        1 JJ1      0.318500
     38 H7          3.4540   -1.2850   -1.3830 h1        1 JJ1      0.111700
     39 HA          0.4910    0.0030    1.7750 h1        1 JJ1      0.101700
     40 H21C        0.4520   -1.6120    3.7370 hc        1 JJ1      0.053200
     41 H22C        1.8660   -2.4970    3.0380 hc        1 JJ1      0.053200
     42 H31C        0.5570   -2.9830    0.9590 hc        1 JJ1      0.051700
     43 H32C       -0.8350   -2.0220    1.5880 hc        1 JJ1      0.051700
     44 H41C        0.3780   -4.5380    2.9320 hc        1 JJ1      0.045700
     45 H42C       -1.0200   -3.5820    3.5610 hc        1 JJ1      0.045700
     46 H51C       -0.8740   -4.9440    0.7760 h1        1 JJ1      0.027200
     47 H52C       -2.2890   -4.0070    1.4210 h1        1 JJ1      0.027200
     48 HN1        -1.2960   -6.4150    2.7690 hn        1 JJ1      0.348800
     49 HN2        -2.5370   -6.3730    1.7120 hn        1 JJ1      0.348800
     50 H3          0.4450    1.1030    3.8710 hn        1 JJ1      0.311500
     51 H191        3.1050    1.6870    5.0820 h1        1 JJ1      0.062700
     52 H192        1.7850    2.9330    4.8800 h1        1 JJ1      0.062700
     53 H201        1.6400    0.3830    6.6510 hc        1 JJ1      0.045200
     54 H202        0.3000    1.5780    6.4410 hc        1 JJ1      0.045200
     55 H21         3.1250    2.4350    7.3450 hc        1 JJ1      0.052700
     56 H261        2.3440    0.6460    8.8770 hc        1 JJ1      0.040200
     57 H262        0.7450    1.4690    9.0690 hc        1 JJ1      0.040200
     58 H221        0.2840    3.6180    7.6960 hc        1 JJ1      0.040200
     59 H222        1.5720    4.2230    6.5780 hc        1 JJ1      0.040200
     60 H251        2.2140    1.9840   10.9920 hc        1 JJ1      0.040200
     61 H252        3.5220    2.5660    9.8870 hc        1 JJ1      0.040200
     62 H241        2.2980    4.4940   10.8180 hc        1 JJ1      0.039700
     63 H242        0.7150    3.8080   10.2750 hc        1 JJ1      0.039700
     64 H231        1.4580    5.5530    8.6950 hc        1 JJ1      0.040200
     65 H232        3.0600    4.7400    8.4840 hc        1 JJ1      0.040200
     66 H81C        4.7240    0.1940    0.1370 h1        1 JJ1      0.040700
     67 H82C        5.1750    0.5510   -1.6000 h1        1 JJ1      0.040700
     68 H2          2.2550    1.1180   -2.6440 hn        1 JJ1      0.326500
     69 HB          4.7010    2.4320   -0.2900 ho        1 JJ1      0.410000
     70 H101        0.6490    0.2370   -4.5300 hc        1 JJ1      0.068200
     71 H102        2.2530    0.6840   -5.2500 hc        1 JJ1      0.068200
     72 H111        2.4910   -1.6490   -6.1630 hc        1 JJ1      0.059200
     73 H112        0.9030   -2.1000   -5.4440 hc        1 JJ1      0.059200
     74 H121       -0.2290   -0.3000   -6.8090 hc        1 JJ1      0.038200
     75 H122        1.3630    0.1540   -7.5290 hc        1 JJ1      0.038200
     76 H131        0.0230   -2.6330   -7.7250 hc        1 JJ1      0.043200
     77 H132        1.6140   -2.1780   -8.4460 hc        1 JJ1      0.043200
     78 H141        0.4840   -0.3830   -9.8060 hc        1 JJ1      0.039200
     79 H142       -1.1070   -0.8390   -9.0850 hc        1 JJ1      0.039200
     80 H151       -0.8530   -3.1710  -10.0030 hc        1 JJ1      0.042700
     81 H152        0.7370   -2.7140  -10.7240 hc        1 JJ1      0.042700
     82 H161       -0.3950   -0.9200  -12.0820 hc        1 JJ1      0.038700
     83 H162       -1.9860   -1.3780  -11.3600 hc        1 JJ1      0.038700
     84 H171       -1.7320   -3.7140  -12.2890 hc        1 JJ1      0.055700
     85 H172       -0.1440   -3.2550  -13.0110 hc        1 JJ1      0.055700
     86 H181       -2.8800   -1.9250  -13.6510 h1        1 JJ1      0.019700
     87 H182       -1.2720   -1.4590  -14.3800 h1        1 JJ1      0.019700
     88 HC         -2.4270   -3.0110  -15.6290 ho        1 JJ1      0.398000
@<TRIPOS>BOND
     1    1    2 2   
     2    2    3 1   
     3    2   21 1   
     4    3    4 1   
     5    3   37 1   
     6    4    5 1   
     7    4   10 1   
     8    4   39 1   
     9    5    6 1   
    10    5   40 1   
    11    5   41 1   
    12    6    7 1   
    13    6   42 1   
    14    6   43 1   
    15    7    8 1   
    16    7   44 1   
    17    7   45 1   
    18    8    9 1   
    19    8   46 1   
    20    8   47 1   
    21    9   48 1   
    22    9   49 1   
    23   10   11 1   
    24   10   20 2   
    25   11   12 1   
    26   11   50 1   
    27   12   13 1   
    28   12   51 1   
    29   12   52 1   
    30   13   14 1   
    31   13   53 1   
    32   13   54 1   
    33   14   15 1   
    34   14   19 1   
    35   14   55 1   
    36   15   16 1   
    37   15   56 1   
    38   15   57 1   
    39   16   17 1   
    40   16   60 1   
    41   16   61 1   
    42   17   18 1   
    43   17   62 1   
    44   17   63 1   
    45   18   19 1   
    46   18   64 1   
    47   18   65 1   
    48   19   58 1   
    49   19   59 1   
    50   21   22 1   
    51   21   24 1   
    52   21   38 1   
    53   22   23 1   
    54   22   66 1   
    55   22   67 1   
    56   23   69 1   
    57   24   25 1   
    58   24   68 1   
    59   25   26 2   
    60   25   27 1   
    61   27   28 1   
    62   27   70 1   
    63   27   71 1   
    64   28   29 1   
    65   28   72 1   
    66   28   73 1   
    67   29   30 1   
    68   29   74 1   
    69   29   75 1   
    70   30   31 1   
    71   30   76 1   
    72   30   77 1   
    73   31   32 1   
    74   31   78 1   
    75   31   79 1   
    76   32   33 1   
    77   32   80 1   
    78   32   81 1   
    79   33   34 1   
    80   33   82 1   
    81   33   83 1   
    82   34   35 1   
    83   34   84 1   
    84   34   85 1   
    85   35   36 1   
    86   35   86 1   
    87   35   87 1   
    88   36   88 1   
@<TRIPOS>SUBSTRUCTURE
     1 JJ1         1 TEMP              0 ****  ****    0 ROOT
