@<TRIPOS>MOLECULE
JJ1
   92    92     1     0     0
SMALL
bcc


@<TRIPOS>ATOM
      1 O4          0.0000    0.0000    0.0000 o         1 JJ1     -0.450100
      2 C6          1.2130    0.0000    0.0000 c         1 JJ1      0.304100
      3 N1          1.8860    0.0000    1.1680 ny        1 JJ1      0.184200
      4 C1          1.1530   -0.0000    2.4360 c3        1 JJ1     -0.133500
      5 C2          0.7890   -1.4370    2.8150 c3        1 JJ1     -0.040400
      6 C3         -0.1880   -2.0040    1.7830 c3        1 JJ1     -0.024400
      7 C4         -0.5520   -3.4410    2.1620 c3        1 JJ1     -0.031400
      8 C5         -1.5280   -4.0090    1.1300 c3        1 JJ1     -0.038200
      9 N          -1.8780   -5.3880    1.4930 nz        1 JJ1      0.097400
     10 C           2.0170    0.6010    3.5150 c         1 JJ1      0.360100
     11 N3          1.5470    0.7050    4.7740 ny        1 JJ1      0.152200
     12 C19         2.3870    1.2880    5.8230 c3        1 JJ1     -0.039200
     13 C20         1.6210    1.2890    7.1480 c3        1 JJ1     -0.025400
     14 C21         2.4980    1.8990    8.2440 c3        1 JJ1     -0.043700
     15 C26         1.7820    1.7860    9.5910 c3        1 JJ1     -0.021400
     16 C25         2.6580    2.3950   10.6870 c3        1 JJ1     -0.018400
     17 C24         2.9200    3.8690   10.3700 c3        1 JJ1     -0.026400
     18 C23         3.6350    3.9830    9.0220 c3        1 JJ1     -0.018400
     19 C22         2.7580    3.3730    7.9270 c3        1 JJ1     -0.021400
     20 O           3.1350    0.9910    3.2510 o         1 JJ1     -0.376100
     21 C7          1.9670   -0.0070   -1.3040 c3        1 JJ1     -0.105500
     22 C8          2.8470    1.2420   -1.3920 c3        1 JJ1      0.206400
     23 O1          2.0400    2.4080   -1.2060 oh        1 JJ1     -0.627800
     24 N2          1.0150   -0.0120   -2.4190 ny        1 JJ1      0.136200
     25 C9          1.3830   -0.5110   -3.6160 c         1 JJ1      0.323100
     26 O3          2.5000   -0.9560   -3.7700 o         1 JJ1     -0.394100
     27 C10         0.4040   -0.5160   -4.7620 c3        1 JJ1     -0.073400
     28 C11         1.0670   -1.1330   -5.9950 c3        1 JJ1     -0.020400
     29 C12         0.0720   -1.1390   -7.1590 c3        1 JJ1     -0.022400
     30 C13         0.7350   -1.7540   -8.3930 c3        1 JJ1     -0.023400
     31 C14        -0.2580   -1.7600   -9.5560 c3        1 JJ1     -0.026400
     32 C15         0.4050   -2.3750  -10.7900 c3        1 JJ1     -0.024400
     33 C16        -0.5890   -2.3810  -11.9530 c3        1 JJ1     -0.024400
     34 C17         0.0740   -2.9960  -13.1870 c3        1 JJ1     -0.041400
     35 C18        -0.9200   -3.0030  -14.3500 c3        1 JJ1      0.228400
     36 O2         -0.3010   -3.5770  -15.5030 oh        1 JJ1     -0.530800
     37 H1          2.4690   -0.8140    1.1680 hn        1 JJ1      0.281800
     38 H7          2.5890   -0.8920   -1.3570 hx        1 JJ1      0.127700
     39 HA          0.2480    0.5860    2.3300 hx        1 JJ1      0.140700
     40 H21C        1.6860   -2.0440    2.8350 hc        1 JJ1      0.064200
     41 H22C        0.3260   -1.4460    3.7940 hc        1 JJ1      0.064200
     42 H31C       -1.0850   -1.3970    1.7630 hc        1 JJ1      0.031700
     43 H32C        0.2750   -1.9950    0.8040 hc        1 JJ1      0.031700
     44 H41C        0.3450   -4.0480    2.1820 hc        1 JJ1      0.051700
     45 H42C       -1.0160   -3.4500    3.1410 hc        1 JJ1      0.051700
     46 H51C       -1.0640   -4.0000    0.1510 hx        1 JJ1      0.083700
     47 H52C       -2.4250   -3.4020    1.1100 hx        1 JJ1      0.083700
     48 HN1        -2.3070   -5.3970    2.3980 hn        1 JJ1      0.240467
     49 HN2        -2.5170   -5.7590    0.8180 hn        1 JJ1      0.240467
     50 H3          1.3070   -0.2190    5.0730 hn        1 JJ1      0.272800
     51 H191        2.6450    2.3050    5.5550 hx        1 JJ1      0.107700
     52 H192        3.2910    0.7020    5.9290 hx        1 JJ1      0.107700
     53 H201        1.3620    0.2720    7.4160 hc        1 JJ1      0.034700
     54 H202        0.7160    1.8760    7.0410 hc        1 JJ1      0.034700
     55 H21         3.4420    1.3700    8.2940 hc        1 JJ1      0.046700
     56 H261        0.8410    2.3200    9.5450 hc        1 JJ1      0.012450
     57 H262        1.6000    0.7420    9.8160 hc        1 JJ1      0.012450
     58 H221        3.2670    3.4510    6.9740 hc        1 JJ1      0.012450
     59 H222        1.8150    3.9040    7.8840 hc        1 JJ1      0.012450
     60 H251        2.1490    2.3170   11.6400 hc        1 JJ1      0.032950
     61 H252        3.6010    1.8640   10.7310 hc        1 JJ1      0.032950
     62 H241        3.5420    4.2990   11.1450 hc        1 JJ1      0.036700
     63 H242        1.9760    4.4000   10.3220 hc        1 JJ1      0.036700
     64 H231        3.8170    5.0270    8.7980 hc        1 JJ1      0.032950
     65 H232        4.5770    3.4490    9.0690 hc        1 JJ1      0.032950
     66 H81C        3.3210    1.2830   -2.3650 h1        1 JJ1      0.052700
     67 H82C        3.6080    1.2030   -0.6210 h1        1 JJ1      0.052700
     68 H2          0.7400    0.9380   -2.5710 hn        1 JJ1      0.286800
     69 HB          2.5720    3.1790   -1.3110 ho        1 JJ1      0.487000
     70 H101       -0.4670   -1.1000   -4.4900 hc        1 JJ1      0.063700
     71 H102        0.1020    0.5000   -4.9840 hc        1 JJ1      0.063700
     72 H111        1.9380   -0.5480   -6.2670 hc        1 JJ1      0.040700
     73 H112        1.3690   -2.1490   -5.7730 hc        1 JJ1      0.040700
     74 H121       -0.7980   -1.7230   -6.8870 hc        1 JJ1      0.022200
     75 H122       -0.2300   -0.1220   -7.3800 hc        1 JJ1      0.022200
     76 H131        1.6060   -1.1680   -8.6640 hc        1 JJ1      0.023200
     77 H132        1.0380   -2.7700   -8.1710 hc        1 JJ1      0.023200
     78 H141       -1.1290   -2.3450   -9.2850 hc        1 JJ1      0.018700
     79 H142       -0.5610   -0.7440   -9.7780 hc        1 JJ1      0.018700
     80 H151        0.7070   -3.3910  -10.5690 hc        1 JJ1      0.021200
     81 H152        1.2750   -1.7900  -11.0620 hc        1 JJ1      0.021200
     82 H161       -0.8920   -1.3650  -12.1740 hc        1 JJ1      0.017200
     83 H162       -1.4590   -2.9660  -11.6810 hc        1 JJ1      0.017200
     84 H171        0.3770   -4.0130  -12.9660 hc        1 JJ1      0.034200
     85 H172        0.9440   -2.4110  -13.4590 hc        1 JJ1      0.034200
     86 H181       -1.7900   -3.5880  -14.0780 h1        1 JJ1      0.009200
     87 H182       -1.2230   -1.9860  -14.5720 h1        1 JJ1      0.009200
     88 HC         -0.9130   -3.5810  -16.2200 ho        1 JJ1      0.411000
     89 H12         2.4680    0.8140    1.1680 hn        1 JJ1      0.281800
     90 HN3        -1.0490   -5.9490    1.5110 hn        1 JJ1      0.240467
     91 H32         0.7130    1.2570    4.7280 hn        1 JJ1      0.272800
     92 H22         0.2170   -0.5360   -2.1180 hn        1 JJ1      0.286800
@<TRIPOS>BOND
     1    1    2 2   
     2    2    3 1   
     3    2   21 1   
     4    3    4 1   
     5    3   37 1   
     6    3   89 1   
     7    4    5 1   
     8    4   10 1   
     9    4   39 1   
    10    5    6 1   
    11    5   40 1   
    12    5   41 1   
    13    6    7 1   
    14    6   42 1   
    15    6   43 1   
    16    7    8 1   
    17    7   44 1   
    18    7   45 1   
    19    8    9 1   
    20    8   46 1   
    21    8   47 1   
    22    9   48 1   
    23    9   49 1   
    24    9   90 1   
    25   10   11 1   
    26   10   20 2   
    27   11   12 1   
    28   11   50 1   
    29   11   91 1   
    30   12   13 1   
    31   12   51 1   
    32   12   52 1   
    33   13   14 1   
    34   13   53 1   
    35   13   54 1   
    36   14   15 1   
    37   14   19 1   
    38   14   55 1   
    39   15   16 1   
    40   15   56 1   
    41   15   57 1   
    42   16   17 1   
    43   16   60 1   
    44   16   61 1   
    45   17   18 1   
    46   17   62 1   
    47   17   63 1   
    48   18   19 1   
    49   18   64 1   
    50   18   65 1   
    51   19   58 1   
    52   19   59 1   
    53   21   22 1   
    54   21   24 1   
    55   21   38 1   
    56   22   23 1   
    57   22   66 1   
    58   22   67 1   
    59   23   69 1   
    60   24   25 1   
    61   24   68 1   
    62   24   92 1   
    63   25   26 2   
    64   25   27 1   
    65   27   28 1   
    66   27   70 1   
    67   27   71 1   
    68   28   29 1   
    69   28   72 1   
    70   28   73 1   
    71   29   30 1   
    72   29   74 1   
    73   29   75 1   
    74   30   31 1   
    75   30   76 1   
    76   30   77 1   
    77   31   32 1   
    78   31   78 1   
    79   31   79 1   
    80   32   33 1   
    81   32   80 1   
    82   32   81 1   
    83   33   34 1   
    84   33   82 1   
    85   33   83 1   
    86   34   35 1   
    87   34   84 1   
    88   34   85 1   
    89   35   36 1   
    90   35   86 1   
    91   35   87 1   
    92   36   88 1   
@<TRIPOS>SUBSTRUCTURE
     1 JJ1         1 TEMP              0 ****  ****    0 ROOT
