@<TRIPOS>MOLECULE
JJ3
   46    49     1     0     0
SMALL
bcc


@<TRIPOS>ATOM
      1 C1         -0.0390   -0.1550   -0.0470 ca        1 JJ3      0.099100
      2 C2          1.3610   -0.0790   -0.0660 ca        1 JJ3     -0.166000
      3 C3          2.0600    0.0210    1.1340 ca        1 JJ3     -0.063300
      4 C4          1.3390    0.0570    2.3450 ca        1 JJ3      0.085100
      5 O5          2.0940    0.1830    3.5020 os        1 JJ3     -0.329900
      6 C6          1.4510   -0.4000    4.6550 c3        1 JJ3      0.200400
      7 C8          0.0680    0.2020    4.8850 c3        1 JJ3     -0.084700
      8 C10         0.0890    1.6860    5.2420 c3        1 JJ3     -0.073400
      9 C11        -1.1610    2.3050    4.6360 c3        1 JJ3     -0.077400
     10 C12        -1.7680    1.2820    3.6850 c3        1 JJ3     -0.072400
     11 C13        -0.8300    0.0670    3.6450 c3        1 JJ3     -0.014400
     12 C15        -0.0630    0.0040    2.3660 ca        1 JJ3     -0.093300
     13 C16        -0.7540   -0.1140    1.1570 ca        1 JJ3     -0.134000
     14 C17         2.3670   -0.2020    5.8240 ca        1 JJ3     -0.121300
     15 C18         2.2740   -1.0880    6.9080 ca        1 JJ3     -0.077500
     16 C19         3.1000   -0.9430    8.0150 ca        1 JJ3     -0.187500
     17 C20         4.0380    0.1030    8.0340 ca        1 JJ3      0.127100
     18 O21         4.8300    0.1970    9.1560 oh        1 JJ3     -0.497100
     19 C22         4.1460    0.9910    6.9550 ca        1 JJ3     -0.187500
     20 C23         3.3050    0.8320    5.8550 ca        1 JJ3     -0.077500
     21 C24         3.5480    0.1080    1.1820 c3        1 JJ3      0.178700
     22 O25         4.0770   -0.1800   -0.1140 os        1 JJ3     -0.427600
     23 C26         5.4940   -0.1540   -0.1290 c3        1 JJ3      0.118700
     24 O27        -0.7870   -0.2700   -1.2000 oh        1 JJ3     -0.501100
     25 H2          1.9130   -0.1080   -1.0170 ha        1 JJ3      0.157000
     26 H16        -1.8520   -0.1710    1.1410 ha        1 JJ3      0.151000
     27 H27        -0.1730   -0.3000   -1.9480 ho        1 JJ3      0.419000
     28 H241        3.8600    1.1450    1.4900 h1        1 JJ3      0.047200
     29 H242        3.9530   -0.6290    1.9300 h1        1 JJ3      0.047200
     30 H6          1.3320   -1.5050    4.4530 h1        1 JJ3      0.055700
     31 H8         -0.4050   -0.3690    5.7320 hc        1 JJ3      0.059700
     32 H101        0.1150    1.8250    6.3510 hc        1 JJ3      0.051700
     33 H102        1.0110    2.1630    4.8190 hc        1 JJ3      0.051700
     34 H13        -1.4350   -0.8780    3.7260 hc        1 JJ3      0.060700
     35 H111       -0.9050    3.2480    4.0900 hc        1 JJ3      0.042700
     36 H112       -1.8950    2.5740    5.4370 hc        1 JJ3      0.042700
     37 H121       -2.7760    0.9620    4.0510 hc        1 JJ3      0.048200
     38 H122       -1.9030    1.7160    2.6640 hc        1 JJ3      0.048200
     39 H18         1.5390   -1.9070    6.8820 ha        1 JJ3      0.142500
     40 H23         3.3820    1.5220    5.0000 ha        1 JJ3      0.142500
     41 H19         3.0340   -1.6290    8.8710 ha        1 JJ3      0.143500
     42 H21         5.4280    0.9480    9.0370 ho        1 JJ3      0.420000
     43 H22         4.8850    1.8040    6.9760 ha        1 JJ3      0.143500
     44 H261        5.8740    0.8580    0.1550 h1        1 JJ3      0.034033
     45 H262        5.7660   -0.3930   -1.1870 h1        1 JJ3      0.034033
     46 H263        5.9100   -0.9250    0.5670 h1        1 JJ3      0.034033
@<TRIPOS>BOND
     1    1    2 ar  
     2    1   13 ar  
     3    1   24 1   
     4    2    3 ar  
     5    2   25 1   
     6    3    4 ar  
     7    3   21 1   
     8    4    5 1   
     9    4   12 ar  
    10    5    6 1   
    11    6    7 1   
    12    6   14 1   
    13    6   30 1   
    14    7    8 1   
    15    7   11 1   
    16    7   31 1   
    17    8    9 1   
    18    8   32 1   
    19    8   33 1   
    20    9   10 1   
    21    9   35 1   
    22    9   36 1   
    23   10   11 1   
    24   10   37 1   
    25   10   38 1   
    26   11   12 1   
    27   11   34 1   
    28   12   13 ar  
    29   13   26 1   
    30   14   15 ar  
    31   14   20 ar  
    32   15   16 ar  
    33   15   39 1   
    34   16   17 ar  
    35   16   41 1   
    36   17   18 1   
    37   17   19 ar  
    38   18   42 1   
    39   19   20 ar  
    40   19   43 1   
    41   20   40 1   
    42   21   22 1   
    43   21   28 1   
    44   21   29 1   
    45   22   23 1   
    46   23   44 1   
    47   23   45 1   
    48   23   46 1   
    49   24   27 1   
@<TRIPOS>SUBSTRUCTURE
     1 JJ3         1 TEMP              0 ****  ****    0 ROOT
