@<TRIPOS>MOLECULE
JJ3
   46    49     1     0     0
SMALL
bcc


@<TRIPOS>ATOM
      1 C1         -0.0050   -0.1760   -0.0530 ca        1 JJ3      0.099100
      2 C2          1.3940   -0.0840   -0.0500 ca        1 JJ3     -0.166000
      3 C3          2.0730    0.0300    1.1600 ca        1 JJ3     -0.063300
      4 C4          1.3330    0.0640    2.3600 ca        1 JJ3      0.085100
      5 O5          2.0670    0.2030    3.5280 os        1 JJ3     -0.329900
      6 C6          1.4130   -0.3810    4.6740 c3        1 JJ3      0.200400
      7 C8          0.0190    0.2060    4.8790 c3        1 JJ3     -0.084700
      8 C10         0.0180    1.6920    5.2280 c3        1 JJ3     -0.073400
      9 C11        -1.2300    2.2940    4.5990 c3        1 JJ3     -0.077400
     10 C12        -1.8090    1.2600    3.6440 c3        1 JJ3     -0.072400
     11 C13        -0.8570    0.0560    3.6250 c3        1 JJ3     -0.014400
     12 C15        -0.0690   -0.0050    2.3580 ca        1 JJ3     -0.093300
     13 C16        -0.7390   -0.1370    1.1390 ca        1 JJ3     -0.134000
     14 C17         2.3070   -0.1680    5.8560 ca        1 JJ3     -0.121300
     15 C18         2.2070   -1.0490    6.9420 ca        1 JJ3     -0.077500
     16 C19         3.0130   -0.8890    8.0620 ca        1 JJ3     -0.187500
     17 C20         3.9400    0.1680    8.0910 ca        1 JJ3      0.127100
     18 O21         4.7120    0.2750    9.2240 oh        1 JJ3     -0.497100
     19 C22         4.0540    1.0520    7.0090 ca        1 JJ3     -0.187500
     20 C23         3.2330    0.8780    5.8970 ca        1 JJ3     -0.077500
     21 C24         3.5590    0.1340    1.2320 c3        1 JJ3      0.178700
     22 O25         4.1120   -0.1560   -0.0540 os        1 JJ3     -0.427600
     23 C26         5.5290   -0.1140   -0.0460 c3        1 JJ3      0.118700
     24 O27        -0.7330   -0.3040   -1.2170 oh        1 JJ3     -0.501100
     25 H2          1.9620   -0.1120   -0.9930 ha        1 JJ3      0.157000
     26 H16        -1.8360   -0.2060    1.1060 ha        1 JJ3      0.151000
     27 H27        -0.1060   -0.3320   -1.9550 ho        1 JJ3      0.419000
     28 H241        3.8540    1.1760    1.5380 h1        1 JJ3      0.047200
     29 H242        3.9600   -0.5940    1.9900 h1        1 JJ3      0.047200
     30 H6          1.3100   -1.4890    4.4750 h1        1 JJ3      0.055700
     31 H8         -0.4600   -0.3660    5.7200 hc        1 JJ3      0.059700
     32 H101        0.0250    1.8370    6.3360 hc        1 JJ3      0.051700
     33 H102        0.9410    2.1770    4.8170 hc        1 JJ3      0.051700
     34 H13        -1.4530   -0.8960    3.7000 hc        1 JJ3      0.060700
     35 H111       -1.9790    2.5580    5.3880 hc        1 JJ3      0.042700
     36 H112       -0.9760    3.2370    4.0530 hc        1 JJ3      0.042700
     37 H121       -1.9330    1.6870    2.6180 hc        1 JJ3      0.048200
     38 H122       -2.8190    0.9300    3.9950 hc        1 JJ3      0.048200
     39 H18         1.4820   -1.8770    6.9090 ha        1 JJ3      0.142500
     40 H23         3.3160    1.5640    5.0390 ha        1 JJ3      0.142500
     41 H19         2.9420   -1.5720    8.9200 ha        1 JJ3      0.143500
     42 H21         5.3030    1.0330    9.1110 ho        1 JJ3      0.420000
     43 H22         4.7830    1.8730    7.0380 ha        1 JJ3      0.143500
     44 H261        5.8200   -0.3570   -1.0990 h1        1 JJ3      0.034033
     45 H262        5.9420   -0.8750    0.6610 h1        1 JJ3      0.034033
     46 H263        5.8920    0.9050    0.2370 h1        1 JJ3      0.034033
@<TRIPOS>BOND
     1    1    2 ar  
     2    1   13 ar  
     3    1   24 1   
     4    2    3 ar  
     5    2   25 1   
     6    3    4 ar  
     7    3   21 1   
     8    4    5 1   
     9    4   12 ar  
    10    5    6 1   
    11    6    7 1   
    12    6   14 1   
    13    6   30 1   
    14    7    8 1   
    15    7   11 1   
    16    7   31 1   
    17    8    9 1   
    18    8   32 1   
    19    8   33 1   
    20    9   10 1   
    21    9   35 1   
    22    9   36 1   
    23   10   11 1   
    24   10   37 1   
    25   10   38 1   
    26   11   12 1   
    27   11   34 1   
    28   12   13 ar  
    29   13   26 1   
    30   14   15 ar  
    31   14   20 ar  
    32   15   16 ar  
    33   15   39 1   
    34   16   17 ar  
    35   16   41 1   
    36   17   18 1   
    37   17   19 ar  
    38   18   42 1   
    39   19   20 ar  
    40   19   43 1   
    41   20   40 1   
    42   21   22 1   
    43   21   28 1   
    44   21   29 1   
    45   22   23 1   
    46   23   44 1   
    47   23   45 1   
    48   23   46 1   
    49   24   27 1   
@<TRIPOS>SUBSTRUCTURE
     1 JJ3         1 TEMP              0 ****  ****    0 ROOT
