@<TRIPOS>MOLECULE
JJ3
   46    49     1     0     0
SMALL
bcc


@<TRIPOS>ATOM
      1 C1         -4.0250    0.5750    0.4350 ca        1 JJ3      0.099100
      2 C2         -3.6430   -0.7470    0.1690 ca        1 JJ3     -0.166000
      3 C3         -2.2920   -1.0580    0.0350 ca        1 JJ3     -0.063300
      4 C4         -1.3370   -0.0280    0.1570 ca        1 JJ3      0.085100
      5 O5         -0.0110   -0.4000   -0.0110 os        1 JJ3     -0.329900
      6 C6          0.9040    0.4500    0.7100 c3        1 JJ3      0.200400
      7 C8          0.7350    1.9140    0.3140 c3        1 JJ3     -0.084700
      8 C10         1.0970    2.2090   -1.1390 c3        1 JJ3     -0.073400
      9 C11         0.1640    3.3140   -1.6130 c3        1 JJ3     -0.077400
     10 C12        -0.9290    3.4730   -0.5650 c3        1 JJ3     -0.072400
     11 C13        -0.7110    2.3970    0.5070 c3        1 JJ3     -0.014400
     12 C15        -1.7190    1.3010    0.4010 ca        1 JJ3     -0.093300
     13 C16        -3.0760    1.5980    0.5520 ca        1 JJ3     -0.134000
     14 C17         2.2880   -0.0600    0.4490 ca        1 JJ3     -0.121300
     15 C18         3.2910    0.2040    1.3920 ca        1 JJ3     -0.077500
     16 C19         4.5900   -0.2460    1.1920 ca        1 JJ3     -0.187500
     17 C20         4.8860   -0.9800    0.0300 ca        1 JJ3      0.127100
     18 O21         6.1880   -1.4010   -0.1140 oh        1 JJ3     -0.497100
     19 C22         3.8910   -1.2570   -0.9170 ca        1 JJ3     -0.187500
     20 C23         2.5960   -0.7930   -0.7010 ca        1 JJ3     -0.077500
     21 C24        -1.8200   -2.4430   -0.2510 c3        1 JJ3      0.178700
     22 O25        -2.9130   -3.3520   -0.1010 os        1 JJ3     -0.427600
     23 C26        -2.5220   -4.6960   -0.3190 c3        1 JJ3      0.118700
     24 O27        -5.3450    0.9440    0.5920 oh        1 JJ3     -0.501100
     25 H2         -4.3970   -1.5430    0.0750 ha        1 JJ3      0.157000
     26 H16        -3.4050    2.6270    0.7560 ha        1 JJ3      0.151000
     27 H27        -5.8860    0.1460    0.5020 ho        1 JJ3      0.419000
     28 H241       -1.4280   -2.5030   -1.3040 h1        1 JJ3      0.047200
     29 H242       -0.9940   -2.7230    0.4600 h1        1 JJ3      0.047200
     30 H6          0.6670    0.3460    1.8100 h1        1 JJ3      0.055700
     31 H8          1.4060    2.5180    0.9860 hc        1 JJ3      0.059700
     32 H101        2.1680    2.5160   -1.2250 hc        1 JJ3      0.051700
     33 H102        0.9590    1.2840   -1.7580 hc        1 JJ3      0.051700
     34 H13        -0.8160    2.8580    1.5280 hc        1 JJ3      0.060700
     35 H111        0.7250    4.2740   -1.7390 hc        1 JJ3      0.042700
     36 H112       -0.2760    3.0540   -2.6070 hc        1 JJ3      0.042700
     37 H121       -0.8700    4.4870   -0.0940 hc        1 JJ3      0.048200
     38 H122       -1.9430    3.3770   -1.0280 hc        1 JJ3      0.048200
     39 H18         3.0490    0.7760    2.3010 ha        1 JJ3      0.142500
     40 H23         1.8040   -1.0070   -1.4370 ha        1 JJ3      0.142500
     41 H19         5.3850   -0.0420    1.9220 ha        1 JJ3      0.143500
     42 H21         6.2520   -1.8940   -0.9450 ho        1 JJ3      0.420000
     43 H22         4.1300   -1.8350   -1.8210 ha        1 JJ3      0.143500
     44 H261       -3.4600   -5.2870   -0.1710 h1        1 JJ3      0.034033
     45 H262       -2.1340   -4.8310   -1.3590 h1        1 JJ3      0.034033
     46 H263       -1.7430   -5.0060    0.4200 h1        1 JJ3      0.034033
@<TRIPOS>BOND
     1    1    2 ar  
     2    1   13 ar  
     3    1   24 1   
     4    2    3 ar  
     5    2   25 1   
     6    3    4 ar  
     7    3   21 1   
     8    4    5 1   
     9    4   12 ar  
    10    5    6 1   
    11    6    7 1   
    12    6   14 1   
    13    6   30 1   
    14    7    8 1   
    15    7   11 1   
    16    7   31 1   
    17    8    9 1   
    18    8   32 1   
    19    8   33 1   
    20    9   10 1   
    21    9   35 1   
    22    9   36 1   
    23   10   11 1   
    24   10   37 1   
    25   10   38 1   
    26   11   12 1   
    27   11   34 1   
    28   12   13 ar  
    29   13   26 1   
    30   14   15 ar  
    31   14   20 ar  
    32   15   16 ar  
    33   15   39 1   
    34   16   17 ar  
    35   16   41 1   
    36   17   18 1   
    37   17   19 ar  
    38   18   42 1   
    39   19   20 ar  
    40   19   43 1   
    41   20   40 1   
    42   21   22 1   
    43   21   28 1   
    44   21   29 1   
    45   22   23 1   
    46   23   44 1   
    47   23   45 1   
    48   23   46 1   
    49   24   27 1   
@<TRIPOS>SUBSTRUCTURE
     1 JJ3         1 TEMP              0 ****  ****    0 ROOT
