@<TRIPOS>MOLECULE
JJA
   66    68     1     0     0
SMALL
bcc


@<TRIPOS>ATOM
      1 O1          1.6520    0.7030   -1.8390 o         1 JJA     -0.430400
      2 O2          3.2810   -0.3990   -0.5180 o         1 JJA     -0.430400
      3 S3          2.2280    0.4470   -0.6380 s4        1 JJA      1.681300
      4 C4          1.8100    1.3090    0.5760 ca        1 JJA     -0.628500
      5 C51         2.4140    1.1480    1.8550 ca        1 JJA      0.037000
      6 C52         2.0590    1.9460    2.9270 ca        1 JJA     -0.148500
      7 C53         1.0830    2.9390    2.7720 ca        1 JJA      0.048000
      8 C54         0.4670    3.1230    1.5260 ca        1 JJA     -0.148500
      9 C55         0.8200    2.3260    0.4530 ca        1 JJA      0.037000
     10 N4          0.6530   -1.4650   -0.3890 n         1 JJA     -0.712000
     11 C5          1.0020   -2.4940    0.5490 c         1 JJA      0.641700
     12 O91         0.7680   -2.2940    1.7470 o         1 JJA     -0.507100
     13 C6          1.6410   -3.7280    0.0400 ca        1 JJA     -0.212600
     14 C7          1.2480   -4.9480    0.6030 ca        1 JJA     -0.002000
     15 C8          1.8070   -6.1460    0.1570 ca        1 JJA     -0.209300
     16 C9          2.8040   -6.1070   -0.8480 ca        1 JJA      0.198100
     17 C10         3.2160   -4.8800   -1.3940 ca        1 JJA     -0.196000
     18 C11         2.6320   -3.6990   -0.9510 ca        1 JJA     -0.020000
     19 O3          3.3290   -7.3220   -1.1980 os        1 JJA     -0.376900
     20 C12         4.1980   -7.3540   -2.3560 c3        1 JJA      0.130400
     21 C13         4.4770   -8.8240   -2.6160 c3        1 JJA     -0.086400
     22 C14         5.4150   -8.9700   -3.7870 c3        1 JJA     -0.101100
     23 C15         1.2810   -7.4460    0.6650 c3        1 JJA      0.183100
     24 N99         2.3350   -8.2840    1.3150 n4        1 JJA     -0.679800
     25 C16         1.7830   -9.5670    1.9280 c         1 JJA      0.577700
     26 O99         0.5630   -9.6610    1.9320 o         1 JJA     -0.434100
     27 C17         2.7680  -10.5200    2.4240 ca        1 JJA     -0.213600
     28 C18         4.1450  -10.2530    2.5200 ca        1 JJA     -0.072000
     29 C19         5.0090  -11.2220    3.0140 ca        1 JJA     -0.096000
     30 C20         4.5140  -12.4730    3.4220 cp        1 JJA     -0.029500
     31 C21         3.1430  -12.7410    3.3300 ca        1 JJA     -0.096000
     32 C22         2.2740  -11.7720    2.8360 ca        1 JJA     -0.072000
     33 C23         5.4460  -13.5050    3.9530 cp        1 JJA      0.643500
     34 N24         6.5020  -13.0680    4.7110 nb        1 JJA     -0.679000
     35 C25         7.3250  -14.0200    5.1920 ca        1 JJA      0.434200
     36 C26         7.1320  -15.3900    4.9340 ca        1 JJA     -0.323600
     37 C27         6.0220  -15.7340    4.1380 ca        1 JJA      0.434200
     38 N28         5.1720  -14.8130    3.6440 nb        1 JJA     -0.679000
     39 H1          3.1890    0.3670    1.9850 ha        1 JJA      0.174000
     40 H2          2.5460    1.8020    3.9080 ha        1 JJA      0.189000
     41 H3          0.8010    3.5790    3.6290 ha        1 JJA      0.187000
     42 H4         -0.3000    3.9090    1.4020 ha        1 JJA      0.189000
     43 H5          0.3340    2.4840   -0.5300 ha        1 JJA      0.174000
     44 H6          0.5630   -1.8200   -1.3260 hn        1 JJA      0.306000
     45 H7          0.4810   -4.9550    1.3990 ha        1 JJA      0.169000
     46 H8          3.9980   -4.8450   -2.1680 ha        1 JJA      0.175000
     47 H9          2.9820   -2.7390   -1.3670 ha        1 JJA      0.159000
     48 H10         3.6730   -6.8770   -3.2230 h1        1 JJA      0.063200
     49 H11         5.1370   -6.7930   -2.1100 h1        1 JJA      0.063200
     50 H12         4.9280   -9.2870   -1.7000 hc        1 JJA      0.055200
     51 H13         3.5130   -9.3570   -2.8240 hc        1 JJA      0.055200
     52 H14         5.6160  -10.0540   -3.9750 hc        1 JJA      0.055033
     53 H15         4.9690   -8.5300   -4.7110 hc        1 JJA      0.055033
     54 H16         6.3890   -8.4620   -3.5850 hc        1 JJA      0.055033
     55 H17         0.8620   -8.0490   -0.1950 hx        1 JJA      0.121700
     56 H18         0.4550   -7.2830    1.4180 hx        1 JJA      0.121700
     57 H19         3.0430   -8.5360    0.6110 hn        1 JJA      0.462800
     58 H20         4.5740   -9.2850    2.2230 ha        1 JJA      0.147000
     59 H21         6.0880  -11.0010    3.0910 ha        1 JJA      0.184500
     60 H22         2.7400  -13.7200    3.6460 ha        1 JJA      0.184500
     61 H23         1.1920  -11.9850    2.7670 ha        1 JJA      0.147000
     62 H24         8.1710  -13.6610    5.8100 h4        1 JJA      0.049600
     63 H25         7.8130  -16.1530    5.3330 ha        1 JJA      0.177000
     64 H26         5.7960  -16.7870    3.8820 h4        1 JJA      0.049600
     65 H42        -0.1970   -0.9990   -0.1110 hn        1 JJA      0.306000
     66 H992        2.7980   -7.7450    2.0540 hn        1 JJA      0.462800
@<TRIPOS>BOND
     1    1    3 1   
     2    2    3 1   
     3    3    4 1   
     4    4    5 ar  
     5    4    9 ar  
     6    5    6 ar  
     7    5   39 1   
     8    6    7 ar  
     9    6   40 1   
    10    7    8 ar  
    11    7   41 1   
    12    8    9 ar  
    13    8   42 1   
    14    9   43 1   
    15   10   11 1   
    16   10   44 1   
    17   10   65 1   
    18   11   12 2   
    19   11   13 1   
    20   13   14 ar  
    21   13   18 ar  
    22   14   15 ar  
    23   14   45 1   
    24   15   16 ar  
    25   15   23 1   
    26   16   17 ar  
    27   16   19 1   
    28   17   18 ar  
    29   17   46 1   
    30   18   47 1   
    31   19   20 1   
    32   20   21 1   
    33   20   48 1   
    34   20   49 1   
    35   21   22 1   
    36   21   50 1   
    37   21   51 1   
    38   22   52 1   
    39   22   53 1   
    40   22   54 1   
    41   23   24 1   
    42   23   55 1   
    43   23   56 1   
    44   24   25 1   
    45   24   57 1   
    46   24   66 1   
    47   25   26 2   
    48   25   27 1   
    49   27   28 ar  
    50   27   32 ar  
    51   28   29 ar  
    52   28   58 1   
    53   29   30 ar  
    54   29   59 1   
    55   30   31 ar  
    56   30   33 1   
    57   31   32 ar  
    58   31   60 1   
    59   32   61 1   
    60   33   34 ar  
    61   33   38 ar  
    62   34   35 ar  
    63   35   36 ar  
    64   35   62 1   
    65   36   37 ar  
    66   36   63 1   
    67   37   38 ar  
    68   37   64 1   
@<TRIPOS>SUBSTRUCTURE
     1 JJA         1 TEMP              0 ****  ****    0 ROOT
