@<TRIPOS>MOLECULE
JJA
   66    68     1     0     0
SMALL
bcc


@<TRIPOS>ATOM
      1 O1          1.6790    0.7160   -1.8250 o         1 JJA     -0.430400
      2 O2          3.2860   -0.3870   -0.4760 o         1 JJA     -0.430400
      3 S3          2.2310    0.4560   -0.6130 s4        1 JJA      1.681300
      4 C4          1.7860    1.3100    0.5970 ca        1 JJA     -0.628500
      5 C51         2.3640    1.1440    1.8870 ca        1 JJA      0.037000
      6 C52         1.9830    1.9350    2.9560 ca        1 JJA     -0.148500
      7 C53         1.0080    2.9260    2.7860 ca        1 JJA      0.048000
      8 C54         0.4170    3.1140    1.5280 ca        1 JJA     -0.148500
      9 C55         0.7950    2.3250    0.4590 ca        1 JJA      0.037000
     10 N4          0.6590   -1.4630   -0.4050 nt        1 JJA     -0.712000
     11 C5          0.9930   -2.4950    0.5350 c         1 JJA      0.641700
     12 O91         0.7340   -2.3000    1.7290 o         1 JJA     -0.507100
     13 C6          1.6470   -3.7240    0.0340 ca        1 JJA     -0.212600
     14 C7          1.2470   -4.9480    0.5850 ca        1 JJA     -0.002000
     15 C8          1.8200   -6.1420    0.1450 ca        1 JJA     -0.209300
     16 C9          2.8360   -6.0960   -0.8400 ca        1 JJA      0.198100
     17 C10         3.2540   -4.8650   -1.3720 ca        1 JJA     -0.196000
     18 C11         2.6570   -3.6880   -0.9360 ca        1 JJA     -0.020000
     19 O3          3.3730   -7.3070   -1.1850 os        1 JJA     -0.376900
     20 C12         4.2650   -7.3310   -2.3240 c3        1 JJA      0.130400
     21 C13         4.5570   -8.7980   -2.5840 c3        1 JJA     -0.086400
     22 C14         5.5160   -8.9360   -3.7390 c3        1 JJA     -0.101100
     23 C15         1.2900   -7.4460    0.6380 c3        1 JJA      0.183100
     24 N99         2.3330   -8.2830    1.3050 ny        1 JJA     -0.679800
     25 C16         1.7750   -9.5690    1.9030 c         1 JJA      0.577700
     26 O99         0.5550   -9.6630    1.8950 o         1 JJA     -0.434100
     27 C17         2.7550  -10.5270    2.4000 ca        1 JJA     -0.213600
     28 C18         4.1290  -10.2570    2.5230 ca        1 JJA     -0.072000
     29 C19         4.9880  -11.2300    3.0170 ca        1 JJA     -0.096000
     30 C20         4.4920  -12.4890    3.3980 cp        1 JJA     -0.029500
     31 C21         3.1230  -12.7600    3.2800 ca        1 JJA     -0.096000
     32 C22         2.2580  -11.7870    2.7860 ca        1 JJA     -0.072000
     33 C23         5.4170  -13.5260    3.9270 cp        1 JJA      0.643500
     34 N24         6.4600  -13.0970    4.7090 nb        1 JJA     -0.679000
     35 C25         7.2790  -14.0530    5.1880 ca        1 JJA      0.434200
     36 C26         7.0950  -15.4210    4.9070 ca        1 JJA     -0.323600
     37 C27         5.9980  -15.7560    4.0890 ca        1 JJA      0.434200
     38 N28         5.1530  -14.8300    3.5950 nb        1 JJA     -0.679000
     39 H1          3.1380    0.3650    2.0290 ha        1 JJA      0.174000
     40 H2          2.4500    1.7860    3.9460 ha        1 JJA      0.189000
     41 H3          0.7060    3.5600    3.6410 ha        1 JJA      0.187000
     42 H4         -0.3490    3.8990    1.3930 ha        1 JJA      0.189000
     43 H5          0.3300    2.4860   -0.5330 ha        1 JJA      0.174000
     44 H6          0.5900   -1.8140   -1.3450 hn        1 JJA      0.306000
     45 H7          0.4650   -4.9610    1.3650 ha        1 JJA      0.169000
     46 H8          4.0510   -4.8230   -2.1310 ha        1 JJA      0.175000
     47 H9          3.0110   -2.7240   -1.3420 ha        1 JJA      0.159000
     48 H10         3.7550   -6.8530   -3.2000 h1        1 JJA      0.063200
     49 H11         5.1970   -6.7660   -2.0580 h1        1 JJA      0.063200
     50 H12         3.5990   -9.3350   -2.8120 hc        1 JJA      0.055200
     51 H13         4.9930   -9.2620   -1.6620 hc        1 JJA      0.055200
     52 H14         5.0850   -8.4950   -4.6700 hc        1 JJA      0.055033
     53 H15         5.7260  -10.0170   -3.9270 hc        1 JJA      0.055033
     54 H16         6.4830   -8.4230   -3.5180 hc        1 JJA      0.055033
     55 H17         0.8890   -8.0470   -0.2330 hx        1 JJA      0.121700
     56 H18         0.4480   -7.2890    1.3750 hx        1 JJA      0.121700
     57 H19         3.0560   -8.5290    0.6130 hn        1 JJA      0.462800
     58 H20         4.5590   -9.2830    2.2490 ha        1 JJA      0.147000
     59 H21         6.0650  -11.0070    3.1160 ha        1 JJA      0.184500
     60 H22         2.7180  -13.7450    3.5740 ha        1 JJA      0.184500
     61 H23         1.1790  -12.0020    2.6970 ha        1 JJA      0.147000
     62 H24         8.1140  -13.7010    5.8240 h4        1 JJA      0.049600
     63 H25         7.7720  -16.1870    5.3050 ha        1 JJA      0.177000
     64 H26         5.7800  -16.8050    3.8130 h4        1 JJA      0.049600
     65 H42        -0.1980   -1.0020   -0.1430 hn        1 JJA      0.306000
     66 H992        2.7810   -7.7440    2.0530 hn        1 JJA      0.462800
@<TRIPOS>BOND
     1    1    3 1   
     2    2    3 1   
     3    3    4 1   
     4    4    5 ar  
     5    4    9 ar  
     6    5    6 ar  
     7    5   39 1   
     8    6    7 ar  
     9    6   40 1   
    10    7    8 ar  
    11    7   41 1   
    12    8    9 ar  
    13    8   42 1   
    14    9   43 1   
    15   10   11 1   
    16   10   44 1   
    17   10   65 1   
    18   11   12 2   
    19   11   13 1   
    20   13   14 ar  
    21   13   18 ar  
    22   14   15 ar  
    23   14   45 1   
    24   15   16 ar  
    25   15   23 1   
    26   16   17 ar  
    27   16   19 1   
    28   17   18 ar  
    29   17   46 1   
    30   18   47 1   
    31   19   20 1   
    32   20   21 1   
    33   20   48 1   
    34   20   49 1   
    35   21   22 1   
    36   21   50 1   
    37   21   51 1   
    38   22   52 1   
    39   22   53 1   
    40   22   54 1   
    41   23   24 1   
    42   23   55 1   
    43   23   56 1   
    44   24   25 1   
    45   24   57 1   
    46   24   66 1   
    47   25   26 2   
    48   25   27 1   
    49   27   28 ar  
    50   27   32 ar  
    51   28   29 ar  
    52   28   58 1   
    53   29   30 ar  
    54   29   59 1   
    55   30   31 ar  
    56   30   33 1   
    57   31   32 ar  
    58   31   60 1   
    59   32   61 1   
    60   33   34 ar  
    61   33   38 ar  
    62   34   35 ar  
    63   35   36 ar  
    64   35   62 1   
    65   36   37 ar  
    66   36   63 1   
    67   37   38 ar  
    68   37   64 1   
@<TRIPOS>SUBSTRUCTURE
     1 JJA         1 TEMP              0 ****  ****    0 ROOT
