@<TRIPOS>MOLECULE
JJD
   50    51     1     0     0
SMALL
bcc


@<TRIPOS>ATOM
      1 C1         -1.0610   -0.5890    0.0760 c3        1 JJD      0.136200
      2 N2         -0.1560   -1.7540    0.2060 n         1 JJD     -0.274400
      3 C3          0.9950   -1.5610    1.0760 c         1 JJD      0.822500
      4 N4          0.8270   -0.7240    2.2070 n         1 JJD     -0.296200
      5 C5         -0.3840   -0.0190    2.4100 c2        1 JJD      0.137400
      6 C6         -1.3050    0.0570    1.4100 ce        1 JJD     -0.317400
      7 C7         -0.5650    0.3920   -0.9610 ca        1 JJD     -0.092300
      8 C8         -0.6600    0.0320   -2.3130 ca        1 JJD     -0.116000
      9 C9         -0.2340    0.9050   -3.3070 ca        1 JJD     -0.094000
     10 C10         0.2970    2.1560   -2.9540 ca        1 JJD     -0.034000
     11 C11         0.3950    2.5170   -1.6050 ca        1 JJD     -0.094000
     12 C12        -0.0350    1.6350   -0.6110 ca        1 JJD     -0.116000
     13 C13         0.7300    3.0490   -3.9710 cg        1 JJD      0.252800
     14 N14         1.0840    3.7780   -4.8060 n1        1 JJD     -0.399800
     15 C15        -2.6220    0.7180    1.5620 c         1 JJD      0.610300
     16 O16        -3.6710    0.0590    1.5410 o         1 JJD     -0.567100
     17 C17        -2.6030    2.2040    1.6740 c3        1 JJD     -0.221100
     18 C18         1.9820   -0.3540    2.9570 ca        1 JJD      0.031600
     19 C19         2.8170   -1.3550    3.4960 ca        1 JJD     -0.069000
     20 C20         3.9290   -0.9860    4.2500 ca        1 JJD     -0.180300
     21 C21         4.2320    0.3590    4.4780 ca        1 JJD     -0.093000
     22 C22         3.4120    1.3430    3.9340 ca        1 JJD     -0.128000
     23 C23         2.2960    1.0060    3.1710 ca        1 JJD     -0.094000
     24 C24         4.8390   -2.0620    4.8230 c3        1 JJD      0.690200
     25 F25         5.9190   -2.3800    4.0330 f         1 JJD     -0.245300
     26 F26         5.4100   -1.7440    6.0340 f         1 JJD     -0.245300
     27 F27         4.2350   -3.2740    5.0580 f         1 JJD     -0.245300
     28 C28        -0.6300    0.6000    3.7450 c3        1 JJD     -0.116900
     29 O29         2.0680   -2.1400    0.8490 o         1 JJD     -0.569500
     30 C30        -0.3470   -2.9270   -0.3490 c1        1 JJD     -0.039500
     31 C31         0.1670    4.1780    2.7920 c         1 JJD      0.900400
     32 O32         0.6510    3.3950    1.9140 o         1 JJD     -0.886300
     33 O33        -0.5390    3.7420    3.7490 o         1 JJD     -0.886300
     34 H1         -2.0560   -0.9960   -0.2930 h1        1 JJD      0.083700
     35 H8         -1.0720   -0.9510   -2.5900 ha        1 JJD      0.175000
     36 H9         -0.3090    0.6180   -4.3660 ha        1 JJD      0.148000
     37 H11         0.8130    3.4930   -1.3090 ha        1 JJD      0.148000
     38 H12         0.0490    1.9500    0.4540 ha        1 JJD      0.175000
     39 H17        -3.6210    2.5970    1.9090 hc        1 JJD      0.087367
     40 H17A       -1.8760    2.5440    2.4660 hc        1 JJD      0.087367
     41 H17B       -2.2530    2.6350    0.7020 hc        1 JJD      0.087367
     42 H19         2.6090   -2.4220    3.3080 ha        1 JJD      0.164000
     43 H21         5.1100    0.6290    5.0830 ha        1 JJD      0.139000
     44 H22         3.6410    2.4070    4.1020 ha        1 JJD      0.151000
     45 H23         1.6560    1.8170    2.7450 ha        1 JJD      0.233000
     46 H28        -0.0460    0.1070    4.5580 hc        1 JJD      0.089700
     47 H28A       -0.3460    1.6990    3.7060 hc        1 JJD      0.089700
     48 H28B       -1.7180    0.5310    3.9920 hc        1 JJD      0.089700
     49 H30        -1.2490   -2.9970   -0.9980 ha        1 JJD     -0.021500
     50 H30A        0.3710    5.2780    2.7120 h5        1 JJD     -0.086800
@<TRIPOS>BOND
     1    1    2 1   
     2    1    6 1   
     3    1    7 1   
     4    1   34 1   
     5    2    3 1   
     6    2   30 3   
     7    3    4 1   
     8    3   29 2   
     9    4    5 1   
    10    4   18 1   
    11    5    6 2   
    12    5   28 1   
    13    6   15 1   
    14    7    8 ar  
    15    7   12 ar  
    16    8    9 ar  
    17    8   35 1   
    18    9   10 ar  
    19    9   36 1   
    20   10   11 ar  
    21   10   13 1   
    22   11   12 ar  
    23   11   37 1   
    24   12   38 1   
    25   13   14 3   
    26   15   16 2   
    27   15   17 1   
    28   17   39 1   
    29   17   40 1   
    30   17   41 1   
    31   18   19 ar  
    32   18   23 ar  
    33   19   20 ar  
    34   19   42 1   
    35   20   21 ar  
    36   20   24 1   
    37   21   22 ar  
    38   21   43 1   
    39   22   23 ar  
    40   22   44 1   
    41   23   45 1   
    42   24   25 1   
    43   24   26 1   
    44   24   27 1   
    45   28   46 1   
    46   28   47 1   
    47   28   48 1   
    48   30   49 1   
    49   31   32 1   
    50   31   33 1   
    51   31   50 1   
@<TRIPOS>SUBSTRUCTURE
     1 JJD         1 TEMP              0 ****  ****    0 ROOT
