@<TRIPOS>MOLECULE
JJJ
   24    24     1     0     0
SMALL
bcc


@<TRIPOS>ATOM
      1 C           4.1050   -0.2030   -0.2540 c         1 JJJ      0.895600
      2 N           2.2940   -1.2330    1.2200 n3        1 JJJ     -0.887800
      3 O           4.9230   -0.5650    0.6340 o         1 JJJ     -0.830300
      4 N1         -3.9420   -1.3230   -0.8080 nb        1 JJJ     -0.680000
      5 C2         -2.6800   -0.9230   -0.5660 ca        1 JJJ      0.436200
      6 C3         -2.3620    0.2790    0.1050 ca        1 JJJ     -0.261900
      7 C4         -3.4160    1.0860    0.5540 ca        1 JJJ     -0.051000
      8 C5         -4.7290    0.6840    0.3070 ca        1 JJJ     -0.268300
      9 C6         -4.9400   -0.5250   -0.3790 ca        1 JJJ      0.399200
     10 C7         -0.9610    0.6870    0.3460 c         1 JJJ      0.572300
     11 O7         -0.6630    1.4060    1.3120 o         1 JJJ     -0.553100
     12 CA          2.5990   -0.6300   -0.0700 c3        1 JJJ      0.013500
     13 CB          1.7330    0.5710   -0.3940 c3        1 JJJ      0.023700
     14 SG          0.0760    0.0990   -0.8700 ss        1 JJJ     -0.253700
     15 OXT         4.3950    0.4510   -1.2900 o         1 JJJ     -0.830300
     16 HN          3.0260   -1.8970    1.4150 hn        1 JJJ      0.336800
     17 HNA         2.3600   -0.5240    1.9300 hn        1 JJJ      0.336800
     18 H4         -3.1940    2.0180    1.0970 ha        1 JJJ      0.154000
     19 H5         -5.5790    1.2920    0.6400 ha        1 JJJ      0.136000
     20 H6         -5.9630   -0.8800   -0.5950 h4        1 JJJ      0.011100
     21 HA          2.4130   -1.4270   -0.8500 h1        1 JJJ      0.054700
     22 HB          1.6860    1.2960    0.4530 h1        1 JJJ      0.096700
     23 HBA         2.1690    1.0820   -1.2930 h1        1 JJJ      0.096700
     24 H2         -1.8730   -1.5950   -0.9230 h4        1 JJJ      0.052100
@<TRIPOS>BOND
     1    1    3 1   
     2    1   12 1   
     3    1   15 1   
     4    2   12 1   
     5    2   16 1   
     6    2   17 1   
     7    4    5 ar  
     8    4    9 ar  
     9    5    6 ar  
    10    5   24 1   
    11    6    7 ar  
    12    6   10 1   
    13    7    8 ar  
    14    7   18 1   
    15    8    9 ar  
    16    8   19 1   
    17    9   20 1   
    18   10   11 2   
    19   10   14 1   
    20   12   13 1   
    21   12   21 1   
    22   13   14 1   
    23   13   22 1   
    24   13   23 1   
@<TRIPOS>SUBSTRUCTURE
     1 JJJ         1 TEMP              0 ****  ****    0 ROOT
