@<TRIPOS>MOLECULE
JJK
   26    26     1     0     0
SMALL
bcc


@<TRIPOS>ATOM
      1 C           3.7580    0.9310   -0.3190 c         1 JJK      0.893600
      2 N           3.1460   -1.4790   -0.8780 n3        1 JJK     -0.884800
      3 O           4.9540    0.5930   -0.5310 o         1 JJK     -0.831300
      4 N1         -4.8140   -0.1770    0.4730 nb        1 JJK     -0.680000
      5 C2         -3.6020   -0.2650    1.0510 ca        1 JJK      0.401200
      6 C3         -2.4020    0.1280    0.4180 ca        1 JJK     -0.210600
      7 C4         -2.4830    0.6440   -0.8830 ca        1 JJK     -0.068000
      8 C5         -3.7340    0.7440   -1.4930 ca        1 JJK     -0.253300
      9 C6         -4.8680    0.3210   -0.7780 ca        1 JJK      0.381200
     10 C7         -1.0910    0.0310    1.1210 c3        1 JJK      0.261500
     11 O7         -1.1970   -0.6570    2.3530 oh        1 JJK     -0.595800
     12 CA          2.6390   -0.1420   -0.6010 c3        1 JJK      0.016500
     13 CB          1.6460   -0.0940    0.5460 c3        1 JJK      0.040700
     14 SG          0.0750   -0.7310   -0.0160 ss        1 JJK     -0.377200
     15 OXT         3.3830    2.0670    0.0770 o         1 JJK     -0.831300
     16 HN          3.9180   -1.3740   -1.5170 hn        1 JJK      0.334300
     17 HNA         3.5310   -1.8580   -0.0300 hn        1 JJK      0.334300
     18 H2         -3.5780   -0.6670    2.0810 h4        1 JJK      0.029100
     19 H4         -1.5630    0.9460   -1.4110 ha        1 JJK      0.170000
     20 H5         -3.8330    1.1400   -2.5110 ha        1 JJK      0.137000
     21 H6         -5.8750    0.3820   -1.2260 h4        1 JJK      0.008100
     22 H7         -0.7300    1.0580    1.4100 h2        1 JJK      0.104700
     23 HO7        -1.2160   -1.6020    2.1500 ho        1 JJK      0.410000
     24 HA          2.1170    0.2050   -1.5420 h1        1 JJK      0.059700
     25 HB          1.9910   -0.6870    1.4240 h1        1 JJK      0.075200
     26 HBA         1.5270    0.9760    0.8590 h1        1 JJK      0.075200
@<TRIPOS>BOND
     1    1    3 1   
     2    1   12 1   
     3    1   15 1   
     4    2   12 1   
     5    2   16 1   
     6    2   17 1   
     7    4    5 ar  
     8    4    9 ar  
     9    5    6 ar  
    10    5   18 1   
    11    6    7 ar  
    12    6   10 1   
    13    7    8 ar  
    14    7   19 1   
    15    8    9 ar  
    16    8   20 1   
    17    9   21 1   
    18   10   11 1   
    19   10   14 1   
    20   10   22 1   
    21   11   23 1   
    22   12   13 1   
    23   12   24 1   
    24   13   14 1   
    25   13   25 1   
    26   13   26 1   
@<TRIPOS>SUBSTRUCTURE
     1 JJK         1 TEMP              0 ****  ****    0 ROOT
