@<TRIPOS>MOLECULE
JJL
   30    30     1     0     0
SMALL
bcc


@<TRIPOS>ATOM
      1 C           4.6450    0.6550   -0.2730 c         1 JJL      0.893600
      2 N           3.1310   -1.3910   -0.2620 n3        1 JJL     -0.900800
      3 O           5.5920   -0.1430   -0.0330 o         1 JJL     -0.832800
      4 N1         -3.5420   -1.9470   -0.2470 nb        1 JJL     -0.650000
      5 C2         -2.2610   -1.7980    0.1220 ca        1 JJL      0.381200
      6 C3         -1.6710   -0.5460    0.4220 ca        1 JJL     -0.174600
      7 C4         -2.4620    0.6000    0.3350 ca        1 JJL     -0.102000
      8 C5         -3.8080    0.4480   -0.0490 ca        1 JJL     -0.004200
      9 C6         -4.3070   -0.8400   -0.3310 ca        1 JJL      0.315200
     10 C7         -0.2410   -0.4500    0.8450 c3        1 JJL      0.288500
     11 O7          0.3750   -1.7130    0.9410 oh        1 JJL     -0.596800
     12 CA          3.2200    0.0370   -0.5300 c3        1 JJL      0.010500
     13 CB          2.2110    0.8660    0.2430 c3        1 JJL      0.042700
     14 SG          0.5210    0.7070   -0.3050 ss        1 JJL     -0.408200
     15 O15        -4.5540    1.6090   -0.1000 os        1 JJL     -0.320900
     16 C16        -5.8620    1.4780   -0.6430 c3        1 JJL      0.114700
     17 OXT         4.7530    1.9090   -0.3430 o         1 JJL     -0.832800
     18 HN          3.9500   -1.8190   -0.6610 hn        1 JJL      0.338800
     19 HNA         3.1880   -1.5380    0.7310 hn        1 JJL      0.338800
     20 H2         -1.6570   -2.7210    0.1910 h4        1 JJL      0.038100
     21 H4         -2.0500    1.5990    0.5420 ha        1 JJL      0.171000
     22 H6         -5.3520   -1.0030   -0.6390 h4        1 JJL      0.014100
     23 H7         -0.1790   -0.0290    1.8880 h2        1 JJL      0.084700
     24 HO7         0.7380   -1.9320    0.0690 ho        1 JJL      0.442000
     25 HA          3.0200    0.1710   -1.6340 h1        1 JJL      0.058700
     26 HB          2.2660    0.6580    1.3370 h1        1 JJL      0.085200
     27 HBA         2.4580    1.9480    0.0660 h1        1 JJL      0.085200
     28 H16        -5.8240    1.0480   -1.6740 h1        1 JJL      0.040367
     29 H16A       -6.5000    0.8430    0.0190 h1        1 JJL      0.040367
     30 H16B       -6.2430    2.5300   -0.6670 h1        1 JJL      0.040367
@<TRIPOS>BOND
     1    1    3 1   
     2    1   12 1   
     3    1   17 1   
     4    2   12 1   
     5    2   18 1   
     6    2   19 1   
     7    4    5 ar  
     8    4    9 ar  
     9    5    6 ar  
    10    5   20 1   
    11    6    7 ar  
    12    6   10 1   
    13    7    8 ar  
    14    7   21 1   
    15    8    9 ar  
    16    8   15 1   
    17    9   22 1   
    18   10   11 1   
    19   10   14 1   
    20   10   23 1   
    21   11   24 1   
    22   12   13 1   
    23   12   25 1   
    24   13   14 1   
    25   13   26 1   
    26   13   27 1   
    27   15   16 1   
    28   16   28 1   
    29   16   29 1   
    30   16   30 1   
@<TRIPOS>SUBSTRUCTURE
     1 JJL         1 TEMP              0 ****  ****    0 ROOT
