@<TRIPOS>MOLECULE
JJS
   44    46     1     0     0
SMALL
bcc


@<TRIPOS>ATOM
      1 F25         0.0000    0.0000    0.0000 f         1 JJS     -0.204300
      2 C24         1.3990    0.0000    0.0000 c3        1 JJS      0.642200
      3 F27         1.8650    0.0000    1.3190 f         1 JJS     -0.204300
      4 F26         1.8650   -1.1420   -0.6590 f         1 JJS     -0.204300
      5 C20         1.9010    1.2300   -0.7110 ca        1 JJS     -0.199300
      6 C21         1.0020    2.1400   -1.2360 ca        1 JJS     -0.001000
      7 C22         1.4580    3.2700   -1.8890 ca        1 JJS     -0.104000
      8 C23         2.8140    3.4930   -2.0190 ca        1 JJS     -0.076000
      9 C19         3.2590    1.4510   -0.8320 ca        1 JJS     -0.041000
     10 C18         3.7210    2.5830   -1.4920 ca        1 JJS     -0.109400
     11 N4          5.0970    2.8070   -1.6210 n         1 JJS      0.153800
     12 C3          5.7080    2.3650   -2.7280 c         1 JJS      0.580500
     13 O29         5.0490    1.7890   -3.5720 o         1 JJS     -0.694500
     14 C5          5.7390    3.4690   -0.6160 c2        1 JJS      0.032400
     15 C28         4.9570    3.9290    0.5860 c3        1 JJS     -0.059900
     16 C6          7.0700    3.7160   -0.6810 ce        1 JJS     -0.385400
     17 C15         7.7340    4.3960    0.3540 c         1 JJS      0.645300
     18 O16         7.1270    4.7230    1.3540 o         1 JJS     -0.591100
     19 C17         9.2000    4.7210    0.2220 c3        1 JJS     -0.185100
     20 C1          7.8160    3.2340   -1.9080 c3        1 JJS      0.170200
     21 N2          7.0280    2.5360   -2.9380 ns        1 JJS     -0.190900
     22 C7          8.9140    2.3080   -1.4500 ca        1 JJS     -0.271600
     23 C8          8.6040    1.0830   -0.8840 ca        1 JJS      0.433200
     24 N9          9.5530    0.2660   -0.4800 nb        1 JJS     -0.525000
     25 C10        10.8380    0.5790   -0.5980 ca        1 JJS      0.521300
     26 C13        11.8380   -0.3420   -0.1460 cg        1 JJS      0.111800
     27 N14        12.6370   -1.0750    0.1940 n1        1 JJS     -0.348800
     28 C11        11.2230    1.7950   -1.1600 ca        1 JJS     -0.161300
     29 C12        10.2440    2.6730   -1.5980 ca        1 JJS     -0.082000
     30 H21        -0.0330    1.8830   -1.4260 ha        1 JJS      0.124000
     31 H19         3.7500    0.4940   -0.9570 ha        1 JJS      0.138000
     32 H22         1.1440    3.9570   -2.6660 ha        1 JJS      0.131000
     33 H23         3.2940    4.2290   -2.6520 ha        1 JJS      0.115000
     34 H2          7.1900    2.5410   -3.9250 hn        1 JJS      0.209500
     35 H281        5.6800    3.8430    1.3890 hc        1 JJS      0.059700
     36 H282        4.0780    3.3090    0.7160 hc        1 JJS      0.059700
     37 H283        4.5390    4.9260    0.6630 hc        1 JJS      0.059700
     38 H1          8.2750    4.0970   -2.3750 h1        1 JJS      0.022700
     39 H171        9.3840    5.1040    1.2180 hc        1 JJS      0.058367
     40 H172        9.2400    5.7300   -0.1680 hc        1 JJS      0.058367
     41 H173        9.6070    3.8550   -0.2880 hc        1 JJS      0.058367
     42 H8          7.5440    0.9090   -1.0200 h4        1 JJS     -0.005900
     43 H12        10.1500    3.6420   -2.0730 ha        1 JJS      0.135000
     44 H11        12.2200    2.2090   -1.0760 ha        1 JJS      0.126000
@<TRIPOS>BOND
     1    1    2 1   
     2    2    3 1   
     3    2    4 1   
     4    2    5 1   
     5    5    6 ar  
     6    5    9 ar  
     7    6    7 ar  
     8    6   30 1   
     9    7    8 ar  
    10    7   32 1   
    11    8   10 ar  
    12    8   33 1   
    13    9   10 ar  
    14    9   31 1   
    15   10   11 1   
    16   11   12 1   
    17   11   14 1   
    18   12   13 2   
    19   12   21 1   
    20   14   15 1   
    21   14   16 2   
    22   15   35 1   
    23   15   36 1   
    24   15   37 1   
    25   16   17 1   
    26   16   20 1   
    27   17   18 2   
    28   17   19 1   
    29   19   39 1   
    30   19   40 1   
    31   19   41 1   
    32   20   21 1   
    33   20   22 1   
    34   20   38 1   
    35   21   34 1   
    36   22   23 ar  
    37   22   29 ar  
    38   23   24 ar  
    39   23   42 1   
    40   24   25 ar  
    41   25   26 1   
    42   25   28 ar  
    43   26   27 3   
    44   28   29 ar  
    45   28   44 1   
    46   29   43 1   
@<TRIPOS>SUBSTRUCTURE
     1 JJS         1 TEMP              0 ****  ****    0 ROOT
