@<TRIPOS>MOLECULE
JJV
   47    48     1     0     0
SMALL
bcc


@<TRIPOS>ATOM
      1 C28         0.0000    0.0000    0.0000 c3        1 JJV     -0.594000
      2 S26         1.8140    0.0000    0.0000 s6        1 JJV      2.373000
      3 O27         2.3130    0.0000    1.3310 o         1 JJV     -0.852000
      4 O29         2.3130   -0.9130   -0.9690 o         1 JJV     -0.852000
      5 C4          2.2540    1.5850   -0.6300 ca        1 JJV     -0.592000
      6 C2          2.8880    2.4990    0.1870 ca        1 JJV      0.027000
      7 C1          3.2360    3.7540   -0.3140 ca        1 JJV      0.030000
      8 C31         3.8930    4.7080    0.5280 c1        1 JJV     -0.112000
      9 N30         4.3970    5.4730    1.1990 n1        1 JJV     -0.029000
     10 C3          2.9390    4.0770   -1.6400 ca        1 JJV     -0.034000
     11 C5          2.3060    3.1540   -2.4460 ca        1 JJV     -0.139000
     12 C6          1.9690    1.9090   -1.9440 ca        1 JJV      0.003000
     13 C22         1.2830    0.9030   -2.8330 c3        1 JJV     -0.072000
     14 C9          2.3200    0.3340   -3.7800 c2        1 JJV     -0.088000
     15 C11         2.0990    0.4650   -5.1040 c2        1 JJV     -0.067000
     16 C25         3.1060   -0.0890   -6.0800 c3        1 JJV     -0.118000
     17 C24         3.7110    1.0510   -3.1140 c1        1 JJV     -0.050000
     18 N32         4.4610    1.2990   -2.9720 DU        1 JJV     -0.023000
     19 N7          0.1110    1.5580   -3.4390 ns        1 JJV      0.003000
     20 C8          0.0290    1.6110   -4.7830 c2        1 JJV      0.190000
     21 O23        -0.9350    2.1500   -5.2910 o         1 JJV     -0.401000
     22 N10         0.9750    1.0910   -5.5760 n         1 JJV      0.219000
     23 C12         0.8060    1.1940   -6.9620 ca        1 JJV     -0.111000
     24 C13        -0.1810    0.4530   -7.5990 ca        1 JJV     -0.002000
     25 C14         1.6220    2.0390   -7.7010 ca        1 JJV     -0.032000
     26 C16         1.4520    2.1370   -9.0690 ca        1 JJV     -0.129000
     27 C17         0.4720    1.3960   -9.7010 ca        1 JJV     -0.049000
     28 C15        -0.3460    0.5570   -8.9670 ca        1 JJV     -0.178000
     29 C18        -1.4170   -0.2470   -9.6590 c3        1 JJV      0.419000
     30 F20        -2.6040    0.4930   -9.6950 f         1 JJV     -0.134333
     31 F21        -1.0090   -0.5400  -10.9640 f         1 JJV     -0.134333
     32 F19        -1.6320   -1.4380   -8.9580 f         1 JJV     -0.134333
     33 H281       -0.5570    0.9260    0.0830 h1        1 JJV      0.104000
     34 H282       -0.6740   -0.7180    0.4510 h1        1 JJV      0.104000
     35 H283       -0.2800   -0.3400   -0.9900 h1        1 JJV      0.104000
     36 H2          3.3230    1.9670    1.0250 ha        1 JJV      0.158000
     37 H3          3.3970    5.0030   -1.9660 ha        1 JJV      0.121000
     38 H5          2.2630    3.6010   -3.4310 ha        1 JJV      0.127000
     39 H22         0.9230    0.0920   -2.2120 h1        1 JJV      0.115000
     40 H7         -0.0740    2.3480   -2.8540 hn        1 JJV      0.107000
     41 H251        3.4330    0.8550   -6.5010 hc        1 JJV      0.076667
     42 H252        3.2090   -0.9880   -6.6750 hc        1 JJV      0.076667
     43 H253        3.8370   -0.3360   -5.3200 hc        1 JJV      0.076667
     44 H13        -0.5760   -0.4240   -7.1010 ha        1 JJV      0.128000
     45 H14         2.3770    2.6190   -7.1850 ha        1 JJV      0.110000
     46 H16         1.6780    2.9290   -9.7730 ha        1 JJV      0.125000
     47 H17         0.4930    1.7090  -10.7380 ha        1 JJV      0.126000
@<TRIPOS>BOND
     1    1    2 1   
     2    1   33 1   
     3    1   34 1   
     4    1   35 1   
     5    2    3 1   
     6    2    4 1   
     7    2    5 1   
     8    5    6 1   
     9    5   12 1   
    10    6    7 1   
    11    6   36 1   
    12    7    8 1   
    13    7   10 1   
    14    8    9 1   
    15   10   11 1   
    16   10   37 1   
    17   11   12 1   
    18   11   38 1   
    19   12   13 1   
    20   13   14 1   
    21   13   19 1   
    22   13   39 1   
    23   14   15 1   
    24   14   17 1   
    25   15   16 1   
    26   15   22 1   
    27   16   41 1   
    28   16   42 1   
    29   16   43 1   
    30   19   20 1   
    31   19   40 1   
    32   20   21 1   
    33   20   22 1   
    34   22   23 1   
    35   23   24 1   
    36   23   25 1   
    37   24   28 1   
    38   24   44 1   
    39   25   26 1   
    40   25   45 1   
    41   26   27 1   
    42   26   46 1   
    43   27   28 1   
    44   27   47 1   
    45   28   29 1   
    46   29   30 1   
    47   29   31 1   
    48   29   32 1   
@<TRIPOS>SUBSTRUCTURE
     1 JJV         1 TEMP              0 ****  ****    0 ROOT
