@<TRIPOS>MOLECULE
JJX
   69    72     1     0     0
SMALL
bcc


@<TRIPOS>ATOM
      1 C33        -0.3000    0.0930    0.6130 c3        1 JJX      0.077500
      2 C34         1.2020    0.0410    0.2590 c3        1 JJX      0.145300
      3 N35         2.0450   -0.2230    1.4170 n3        1 JJX     -0.733600
      4 C38         3.4740   -0.2270    1.0930 c3        1 JJX      0.183500
      5 C40         4.3490   -0.1240    2.3430 c3        1 JJX     -0.109600
      6 C39         3.9700   -1.4040    0.2520 c3        1 JJX     -0.109600
      7 C36         1.6050   -1.3810    2.1760 c3        1 JJX      0.145300
      8 C37         0.1020   -1.3140    2.5350 c3        1 JJX      0.077500
      9 N31        -0.7490   -1.0420    1.3990 n         1 JJX     -0.449800
     10 C30        -1.5620   -2.0020    0.8100 c         1 JJX      0.624100
     11 O32        -2.0980   -1.7820   -0.2960 o         1 JJX     -0.609100
     12 C29        -1.8670   -3.2860    1.6030 c3        1 JJX      0.023000
     13 N12        -2.7520   -4.2240    0.9550 n         1 JJX     -0.430800
     14 C11        -2.1640   -5.1710    0.0960 c         1 JJX      0.820500
     15 O21        -0.9460   -5.4390    0.1810 o         1 JJX     -0.640500
     16 C7         -4.1420   -3.8000    0.7970 c3        1 JJX      0.204200
     17 C3         -4.8350   -3.7180    2.1450 ca        1 JJX     -0.085300
     18 C2         -5.4140   -2.5070    2.5410 ca        1 JJX     -0.113500
     19 C1         -6.0700   -2.4100    3.7660 ca        1 JJX     -0.094000
     20 C6         -6.1440   -3.5270    4.6090 ca        1 JJX     -0.009000
     21 C19        -6.8070   -3.4310    5.8620 cg        1 JJX      0.230800
     22 N20        -7.3500   -3.3520    6.8880 n1        1 JJX     -0.357800
     23 C5         -5.5610   -4.7410    4.2160 ca        1 JJX     -0.094000
     24 C4         -4.9100   -4.8310    2.9870 ca        1 JJX     -0.113500
     25 C8         -4.9330   -4.6840   -0.1330 ce        1 JJX     -0.127900
     26 C27        -6.3180   -4.4070   -0.2120 cg        1 JJX      0.212500
     27 N28        -7.4550   -4.1650   -0.2740 n1        1 JJX     -0.365800
     28 C9         -4.3580   -5.6620   -0.8970 c2        1 JJX      0.124400
     29 C22        -5.1930   -6.4910   -1.8210 c3        1 JJX     -0.082900
     30 N10        -2.9820   -5.9020   -0.8160 n         1 JJX     -0.300200
     31 C13        -2.3430   -6.8040   -1.7150 ca        1 JJX      0.043600
     32 C18        -2.4680   -6.6320   -3.1090 ca        1 JJX     -0.088000
     33 C14        -1.5570   -7.8660   -1.2190 ca        1 JJX     -0.075000
     34 C15        -0.9350   -8.7450   -2.1020 ca        1 JJX     -0.127000
     35 C16        -1.0780   -8.5890   -3.4790 ca        1 JJX     -0.078000
     36 C17        -1.8440   -7.5310   -3.9710 ca        1 JJX     -0.163300
     37 C23        -1.9830   -7.3370   -5.4780 c3        1 JJX      0.688200
     38 F25        -1.0270   -6.5190   -6.0300 f         1 JJX     -0.234300
     39 F26        -1.8980   -8.4960   -6.2100 f         1 JJX     -0.234300
     40 F24        -3.1740   -6.7770   -5.8710 f         1 JJX     -0.234300
     41 H331       -0.5060    1.0200    1.2200 h1        1 JJX      0.066200
     42 H332       -0.8860    0.1510   -0.3470 h1        1 JJX      0.066200
     43 H341        1.4870    1.0500   -0.1520 h1        1 JJX      0.043200
     44 H342        1.3530   -0.7220   -0.5590 h1        1 JJX      0.043200
     45 H38         3.6450    0.7180    0.4880 h1        1 JJX      0.055700
     46 H361        2.1840   -1.4020    3.1410 h1        1 JJX      0.043200
     47 H362        1.8020   -2.3490    1.6300 h1        1 JJX      0.043200
     48 H401        5.3960    0.1020    2.0280 hc        1 JJX      0.040200
     49 H402        3.9940    0.6910    3.0170 hc        1 JJX      0.040200
     50 H403        4.3510   -1.0850    2.9120 hc        1 JJX      0.040200
     51 H391        3.3860   -1.4980   -0.6950 hc        1 JJX      0.040200
     52 H392        3.8880   -2.3630    0.8170 hc        1 JJX      0.040200
     53 H393        5.0420   -1.2400   -0.0100 hc        1 JJX      0.040200
     54 H371       -0.0570   -0.4760    3.2760 h1        1 JJX      0.066200
     55 H372       -0.1770   -2.2770    3.0390 h1        1 JJX      0.066200
     56 H291       -2.3560   -2.9900    2.5770 h1        1 JJX      0.097700
     57 H292       -0.8920   -3.8170    1.8130 h1        1 JJX      0.097700
     58 H7         -4.1360   -2.7560    0.3360 h1        1 JJX      0.091700
     59 H2         -5.3610   -1.6260    1.8820 ha        1 JJX      0.148000
     60 H4         -4.4570   -5.7860    2.6800 ha        1 JJX      0.148000
     61 H1         -6.5310   -1.4580    4.0700 ha        1 JJX      0.149000
     62 H5         -5.6210   -5.6200    4.8750 ha        1 JJX      0.149000
     63 H221       -5.2560   -5.9890   -2.8200 hc        1 JJX      0.072367
     64 H222       -6.2280   -6.5940   -1.4090 hc        1 JJX      0.072367
     65 H223       -4.7720   -7.5170   -1.9650 hc        1 JJX      0.072367
     66 H18        -3.0560   -5.7970   -3.5250 ha        1 JJX      0.162000
     67 H14        -1.4110   -7.9830   -0.1330 ha        1 JJX      0.160000
     68 H15        -0.3220   -9.5690   -1.7050 ha        1 JJX      0.150000
     69 H16        -0.5920   -9.2900   -4.1770 ha        1 JJX      0.157000
@<TRIPOS>BOND
     1    1    2 1   
     2    1    9 1   
     3    1   41 1   
     4    1   42 1   
     5    2    3 1   
     6    2   43 1   
     7    2   44 1   
     8    3    4 1   
     9    3    7 1   
    10    4    5 1   
    11    4    6 1   
    12    4   45 1   
    13    5   48 1   
    14    5   49 1   
    15    5   50 1   
    16    6   51 1   
    17    6   52 1   
    18    6   53 1   
    19    7    8 1   
    20    7   46 1   
    21    7   47 1   
    22    8    9 1   
    23    8   54 1   
    24    8   55 1   
    25    9   10 1   
    26   10   11 2   
    27   10   12 1   
    28   12   13 1   
    29   12   56 1   
    30   12   57 1   
    31   13   14 1   
    32   13   16 1   
    33   14   15 2   
    34   14   30 1   
    35   16   17 1   
    36   16   25 1   
    37   16   58 1   
    38   17   18 ar  
    39   17   24 ar  
    40   18   19 ar  
    41   18   59 1   
    42   19   20 ar  
    43   19   61 1   
    44   20   21 1   
    45   20   23 ar  
    46   21   22 3   
    47   23   24 ar  
    48   23   62 1   
    49   24   60 1   
    50   25   26 1   
    51   25   28 2   
    52   26   27 3   
    53   28   29 1   
    54   28   30 1   
    55   29   63 1   
    56   29   64 1   
    57   29   65 1   
    58   30   31 1   
    59   31   32 ar  
    60   31   33 ar  
    61   32   36 ar  
    62   32   66 1   
    63   33   34 ar  
    64   33   67 1   
    65   34   35 ar  
    66   34   68 1   
    67   35   36 ar  
    68   35   69 1   
    69   36   37 1   
    70   37   38 1   
    71   37   39 1   
    72   37   40 1   
@<TRIPOS>SUBSTRUCTURE
     1 JJX         1 TEMP              0 ****  ****    0 ROOT
