@<TRIPOS>MOLECULE
JJX
   69    69     1     0     0
SMALL
bcc


@<TRIPOS>ATOM
      1 C33        -0.4830    2.4080   -0.2210 c1        1 JJX     -0.166500
      2 C34         0.5210    1.7860   -0.0310 c1        1 JJX     -0.166500
      3 N35         2.6020   -0.9770    1.4020 nh        1 JJX     -0.733000
      4 C38         3.7900   -0.7140    0.6000 c3        1 JJX      0.186500
      5 C40         5.0030   -1.5760    0.9560 c3        1 JJX     -0.112600
      6 C39         3.5400   -0.8120   -0.9050 c3        1 JJX     -0.112600
      7 C36         1.9520   -2.2060    1.2400 c2        1 JJX      0.018000
      8 C37         1.2190   -2.8290    2.1790 c2        1 JJX     -0.337000
      9 N31        -1.2050   -0.7830    1.1110 n         1 JJX     -0.656000
     10 C30        -2.4260   -1.2270    1.5170 c         1 JJX      0.639100
     11 O32        -3.4410   -0.4980    1.4660 o         1 JJX     -0.638100
     12 C29        -2.5410   -2.6660    2.0630 c3        1 JJX      0.025000
     13 N12        -3.1030   -3.5650    1.0860 n         1 JJX     -0.457800
     14 C11        -2.3530   -4.6590    0.6530 c         1 JJX      0.824500
     15 O21        -1.2090   -4.8910    1.1060 o         1 JJX     -0.654500
     16 C7         -4.5100   -3.3920    0.7480 c3        1 JJX      0.214200
     17 C3         -5.4210   -3.6170    1.9400 ca        1 JJX     -0.100300
     18 C2         -5.8500   -2.5040    2.6740 ca        1 JJX     -0.114500
     19 C1         -6.7020   -2.6700    3.7630 ca        1 JJX     -0.096500
     20 C6         -7.1230   -3.9560    4.1310 ca        1 JJX     -0.008000
     21 C19        -7.9910   -4.1300    5.2430 cg        1 JJX      0.231800
     22 N20        -8.7010   -4.2720    6.1540 n1        1 JJX     -0.359800
     23 C5         -6.6880   -5.0720    3.4020 ca        1 JJX     -0.096500
     24 C4         -5.8380   -4.8980    2.3120 ca        1 JJX     -0.114500
     25 C8         -4.9350   -4.2570   -0.4100 ce        1 JJX     -0.126900
     26 C27        -6.1970   -3.9450   -0.9690 cg        1 JJX      0.210500
     27 N28        -7.2340   -3.6690   -1.4220 n1        1 JJX     -0.360800
     28 C9         -4.1550   -5.2630   -0.9100 c2        1 JJX      0.118400
     29 C22        -4.6350   -6.1060   -2.0490 c3        1 JJX     -0.082900
     30 N10        -2.8980   -5.5200   -0.3490 n         1 JJX     -0.304200
     31 C13        -2.0540   -6.5420   -0.8730 ca        1 JJX      0.043600
     32 C18        -1.6540   -6.5250   -2.2240 ca        1 JJX     -0.089000
     33 C14        -1.5900   -7.5740   -0.0290 ca        1 JJX     -0.074000
     34 C15        -0.7670   -8.5750   -0.5400 ca        1 JJX     -0.127000
     35 C16        -0.3890   -8.5700   -1.8810 ca        1 JJX     -0.076000
     36 C17        -0.8350   -7.5420   -2.7130 ca        1 JJX     -0.163300
     37 C23        -0.4040   -7.5110   -4.1750 c3        1 JJX      0.688200
     38 F25         0.7360   -6.7800   -4.4080 f         1 JJX     -0.234633
     39 F26        -0.1300   -8.7440   -4.7150 f         1 JJX     -0.234633
     40 F24        -1.3320   -6.9670   -5.0300 f         1 JJX     -0.234633
     41 H331       -1.0990    0.1510    0.7870 hn        1 JJX      0.327000
     42 H332       -1.3740    2.9600   -0.3900 ha        1 JJX      0.169000
     43 H341        2.7600   -0.7430    2.3640 hn        1 JJX      0.384800
     44 H342        1.4110    1.2300    0.1420 ha        1 JJX      0.169000
     45 H38         4.0560    0.3650    0.8280 h1        1 JJX      0.054700
     46 H361        2.0110   -2.6160    0.2120 h4        1 JJX      0.140000
     47 H362        1.1410   -2.4840    3.2170 ha        1 JJX      0.131000
     48 H401        5.8740   -1.2670    0.3310 hc        1 JJX      0.043200
     49 H402        5.2760   -1.4530    2.0310 hc        1 JJX      0.043200
     50 H403        4.7910   -2.6550    0.7640 hc        1 JJX      0.043200
     51 H391        4.4100   -0.3610   -1.4410 hc        1 JJX      0.043200
     52 H392        3.4400   -1.8750   -1.2290 hc        1 JJX      0.043200
     53 H393        2.6160   -0.2580   -1.1960 hc        1 JJX      0.043200
     54 H371       -0.3980   -1.3570    1.1810 hn        1 JJX      0.327000
     55 H372        0.6560   -3.7410    1.9380 ha        1 JJX      0.131000
     56 H291       -3.2310   -2.6100    2.9560 h1        1 JJX      0.091200
     57 H292       -1.5350   -3.0510    2.4030 h1        1 JJX      0.091200
     58 H7         -4.6220   -2.3000    0.4350 h1        1 JJX      0.106700
     59 H2         -5.5050   -1.4940    2.3870 ha        1 JJX      0.156500
     60 H4         -5.5010   -5.7740    1.7370 ha        1 JJX      0.156500
     61 H1         -7.0430   -1.7930    4.3340 ha        1 JJX      0.148000
     62 H5         -7.0180   -6.0810    3.6890 ha        1 JJX      0.148000
     63 H221       -4.2810   -5.6670   -3.0170 hc        1 JJX      0.071700
     64 H222       -4.2640   -7.1580   -1.9790 hc        1 JJX      0.071700
     65 H223       -5.7540   -6.1310   -2.0610 hc        1 JJX      0.071700
     66 H18        -1.9840   -5.7200   -2.9020 ha        1 JJX      0.159000
     67 H14        -1.8570   -7.5750    1.0400 ha        1 JJX      0.159000
     68 H15        -0.4090   -9.3750    0.1270 ha        1 JJX      0.151000
     69 H16         0.2570   -9.3660   -2.2850 ha        1 JJX      0.158000
@<TRIPOS>BOND
     1    1    2 3   
     2    1   42 1   
     3    2   44 1   
     4    3    4 1   
     5    3    7 1   
     6    3   43 1   
     7    4    5 1   
     8    4    6 1   
     9    4   45 1   
    10    5   48 1   
    11    5   49 1   
    12    5   50 1   
    13    6   51 1   
    14    6   52 1   
    15    6   53 1   
    16    7    8 2   
    17    7   46 1   
    18    8   47 1   
    19    8   55 1   
    20    9   10 1   
    21    9   41 1   
    22    9   54 1   
    23   10   11 2   
    24   10   12 1   
    25   12   13 1   
    26   12   56 1   
    27   12   57 1   
    28   13   14 1   
    29   13   16 1   
    30   14   15 2   
    31   14   30 1   
    32   16   17 1   
    33   16   25 1   
    34   16   58 1   
    35   17   18 ar  
    36   17   24 ar  
    37   18   19 ar  
    38   18   59 1   
    39   19   20 ar  
    40   19   61 1   
    41   20   21 1   
    42   20   23 ar  
    43   21   22 3   
    44   23   24 ar  
    45   23   62 1   
    46   24   60 1   
    47   25   26 1   
    48   25   28 2   
    49   26   27 3   
    50   28   29 1   
    51   28   30 1   
    52   29   63 1   
    53   29   64 1   
    54   29   65 1   
    55   30   31 1   
    56   31   32 ar  
    57   31   33 ar  
    58   32   36 ar  
    59   32   66 1   
    60   33   34 ar  
    61   33   67 1   
    62   34   35 ar  
    63   34   68 1   
    64   35   36 ar  
    65   35   69 1   
    66   36   37 1   
    67   37   38 1   
    68   37   39 1   
    69   37   40 1   
@<TRIPOS>SUBSTRUCTURE
     1 JJX         1 TEMP              0 ****  ****    0 ROOT
