@<TRIPOS>MOLECULE
JJZ
   51    54     1     0     0
SMALL
bcc


@<TRIPOS>ATOM
      1 CAA        -8.9890    1.1330   -0.5780 ca        1 JJZ     -0.151000
      2 CAB        -7.9750    1.3850   -1.4980 ca        1 JJZ     -0.097000
      3 CAC        -6.6390    1.1500   -1.1850 ca        1 JJZ     -0.156000
      4 OAD        -3.8100    0.9930   -1.4410 o         1 JJZ     -0.596100
      5 OAE        -0.0250   -0.3920    1.3820 o         1 JJZ     -0.544100
      6 CAG        -8.6460    0.6350    0.6810 ca        1 JJZ      0.045400
      7 CAH        -7.3180    0.3900    1.0240 ca        1 JJZ     -0.183000
      8 CAI        -6.2880    0.6470    0.0860 ca        1 JJZ      0.079600
      9 NAJ        -4.9650    0.3850    0.4740 n         1 JJZ     -0.470100
     10 CAK        -3.8100    0.5600   -0.2740 c         1 JJZ      0.667100
     11 CAL        -2.5150    0.1830    0.4300 c3        1 JJZ     -0.150400
     12 CAM        -1.3330    0.4180   -0.4850 c3        1 JJZ     -0.150400
     13 CAN        -0.0430    0.0410    0.2220 c         1 JJZ      0.681100
     14 NAO         1.1180    0.2280   -0.5580 n         1 JJZ     -0.351900
     15 NAP         2.3430   -0.0490   -0.1070 n2        1 JJZ     -0.398300
     16 CAQ         3.3880    0.1400   -0.8650 ce        1 JJZ      0.349800
     17 CAR         5.1160   -3.7120   -1.4520 ca        1 JJZ     -0.123000
     18 CAS         4.5560   -2.4850   -1.2440 ca        1 JJZ     -0.116000
     19 CAT         5.2950   -1.4350   -0.6070 ca        1 JJZ     -0.011000
     20 CAU         4.7470   -0.1610   -0.3810 ca        1 JJZ     -0.097900
     21 CAV         5.4960    0.8460    0.2510 ca        1 JJZ     -0.011000
     22 CAW         4.9650    2.1540    0.5000 ca        1 JJZ     -0.116000
     23 CAX         5.7160    3.1130    1.1150 ca        1 JJZ     -0.123000
     24 CAY         6.4540   -3.9770   -1.0380 ca        1 JJZ     -0.126000
     25 CAZ         7.1900   -3.0030   -0.4280 ca        1 JJZ     -0.117000
     26 CBA         6.6360   -1.7030   -0.1930 ca        1 JJZ     -0.036000
     27 CBB         7.3820   -0.6990    0.4330 ca        1 JJZ     -0.099000
     28 CBC         6.8360    0.5680    0.6610 ca        1 JJZ     -0.036000
     29 CBD         7.5950    1.6000    1.3030 ca        1 JJZ     -0.117000
     30 CBE         7.0530    2.8330    1.5230 ca        1 JJZ     -0.126000
     31 HAA       -10.0400    1.3230   -0.8390 ha        1 JJZ      0.149000
     32 HAB        -8.2300    1.7780   -2.4950 ha        1 JJZ      0.141000
     33 HAC        -5.8640    1.3620   -1.9410 ha        1 JJZ      0.176000
     34 HAH        -7.0820   -0.0030    2.0260 ha        1 JJZ      0.145000
     35 HNAJ       -4.8530    0.0310    1.3990 hn        1 JJZ      0.321500
     36 HAL        -2.3970    0.7940    1.3650 hc        1 JJZ      0.086700
     37 HALA       -2.5470   -0.8960    0.7370 hc        1 JJZ      0.086700
     38 HAM        -1.4530   -0.1920   -1.4200 hc        1 JJZ      0.085700
     39 HAMA       -1.3020    1.4980   -0.7920 hc        1 JJZ      0.085700
     40 HNAO        0.9860    0.5850   -1.4870 hn        1 JJZ      0.296500
     41 HAQ         3.3650    0.5300   -1.9070 h4        1 JJZ     -0.003200
     42 HAR         4.5460   -4.5180   -1.9370 ha        1 JJZ      0.133000
     43 HAS         3.5220   -2.2780   -1.5570 ha        1 JJZ      0.134000
     44 HAW         3.9300    2.3640    0.1890 ha        1 JJZ      0.134000
     45 HAX         5.3050    4.1150    1.3090 ha        1 JJZ      0.133000
     46 HAY         6.8740   -4.9770   -1.2190 ha        1 JJZ      0.133000
     47 HAZ         8.2240   -3.1920   -0.1010 ha        1 JJZ      0.133000
     48 HBB         8.4150   -0.9100    0.7530 ha        1 JJZ      0.136000
     49 HBD         8.6250    1.3670    1.6140 ha        1 JJZ      0.133000
     50 HBE         7.6310    3.6270    2.0180 ha        1 JJZ      0.133000
     51 CLAF       -9.8680    0.3200    1.8230 cl        1 JJZ     -0.094400
@<TRIPOS>BOND
     1    1    2 ar  
     2    1    6 ar  
     3    1   31 1   
     4    2    3 ar  
     5    2   32 1   
     6    3    8 ar  
     7    3   33 1   
     8    4   10 2   
     9    5   13 2   
    10    6    7 ar  
    11    6   51 1   
    12    7    8 ar  
    13    7   34 1   
    14    8    9 1   
    15    9   10 1   
    16    9   35 1   
    17   10   11 1   
    18   11   12 1   
    19   11   36 1   
    20   11   37 1   
    21   12   13 1   
    22   12   38 1   
    23   12   39 1   
    24   13   14 1   
    25   14   15 1   
    26   14   40 1   
    27   15   16 2   
    28   16   20 1   
    29   16   41 1   
    30   17   18 ar  
    31   17   24 ar  
    32   17   42 1   
    33   18   19 ar  
    34   18   43 1   
    35   19   20 ar  
    36   19   26 ar  
    37   20   21 ar  
    38   21   22 ar  
    39   21   28 ar  
    40   22   23 ar  
    41   22   44 1   
    42   23   30 ar  
    43   23   45 1   
    44   24   25 ar  
    45   24   46 1   
    46   25   26 ar  
    47   25   47 1   
    48   26   27 ar  
    49   27   28 ar  
    50   27   48 1   
    51   28   29 ar  
    52   29   30 ar  
    53   29   49 1   
    54   30   50 1   
@<TRIPOS>SUBSTRUCTURE
     1 JJZ         1 TEMP              0 ****  ****    0 ROOT
