@<TRIPOS>MOLECULE
JJZ
   52    54     1     0     0
SMALL
bcc


@<TRIPOS>ATOM
      1 CAA         0.2130    0.0690    4.8670 c2        1 JJZ     -0.077000
      2 CAB         0.6080    0.8430    3.8410 c2        1 JJZ     -0.163000
      3 CAC         2.0090    0.8870    3.4440 c2        1 JJZ     -0.150000
      4 OAD         4.7310    1.7550    3.2290 o         1 JJZ     -0.418000
      5 OAE         6.8200    2.6720    4.6020 oh        1 JJZ     -0.218000
      6 CAG         1.1820   -0.7670    5.5640 c2        1 JJZ     -0.333000
      7 CAH         2.4290   -0.9600    5.1140 c1        1 JJZ      0.143000
      8 CAI         2.6120   -0.1820    2.8670 c2        1 JJZ     -0.018000
      9 NAJ         3.9510   -0.2880    2.4750 ns        1 JJZ     -0.276000
     10 CAK         4.9440    0.6250    2.7320 c2        1 JJZ      0.309000
     11 CAL         6.3690    0.2230    2.3690 c3        1 JJZ     -0.201000
     12 CAM         7.3300    1.3830    2.5440 c3        1 JJZ     -0.176000
     13 CAN         7.5530    1.7230    3.9970 c2        1 JJZ      0.239000
     14 NAO         8.4990    1.1300    4.7410 n7        1 JJZ     -0.115000
     15 NAP         8.8770    1.2390    6.0310 n2        1 JJZ     -0.089000
     16 CAQ         8.3490    2.0620    6.9010 c2        1 JJZ      0.048000
     17 CAR         5.6050    1.2840    9.9960 c2        1 JJZ     -0.093000
     18 CAS         6.4900    1.5360    9.0140 c2        1 JJZ     -0.196000
     19 CAT         7.8820    1.8320    9.2950 ca        1 JJZ      0.071000
     20 CAU         8.8130    2.0900    8.2930 ca        1 JJZ     -0.141000
     21 CAV        10.1730    2.3880    8.6130 ca        1 JJZ      0.055000
     22 CAW        11.1440    2.7330    7.6340 ca        1 JJZ     -0.159000
     23 CAX        12.4430    3.0080    7.9930 ca        1 JJZ     -0.073000
     24 CAY         5.9910    1.2840   11.4260 c3        1 JJZ     -0.215000
     25 CAZ         7.3840    1.5670   11.7370 c1        1 JJZ     -0.033000
     26 CBA         8.2940    1.8330   10.6700 ca        1 JJZ     -0.183000
     27 CBB         9.6200    2.0920   10.9880 ca        1 JJZ      0.073000
     28 CBC        10.5720    2.3770    9.9780 ca        1 JJZ     -0.101000
     29 CBD        11.9230    2.6610   10.3220 ca        1 JJZ     -0.077000
     30 CBE        12.8430    2.9650    9.3480 ca        1 JJZ     -0.136000
     31 HAA        -0.8310    0.0370    5.2160 ha        1 JJZ      0.164000
     32 HAB        -0.0860    1.5000    3.2940 ha        1 JJZ      0.165000
     33 HAC         2.5370    1.8340    3.6520 ha        1 JJZ      0.175000
     34 HAH         2.0300   -1.0930    2.6040 h4        1 JJZ      0.169000
     35 HNAJ        4.2210   -1.1750    2.1080 hn        1 JJZ      0.250000
     36 HAL         6.0790    2.9710    4.0190 ho        1 JJZ      0.328000
     37 HALA        6.6800   -0.6530    2.9990 hc        1 JJZ      0.139500
     38 HAM         6.4060   -0.0990    1.2910 hc        1 JJZ      0.139500
     39 HAMA        6.9150    2.2980    2.0320 hc        1 JJZ      0.154500
     40 HNAO        8.3090    1.1310    2.0510 hc        1 JJZ      0.154500
     41 HAQ         7.5060    2.7640    6.6870 h4        1 JJZ      0.166000
     42 HAR         6.1700    1.5210    7.9610 ha        1 JJZ      0.117000
     43 HAS         4.5490    1.0640    9.7680 ha        1 JJZ      0.140000
     44 HAW        10.8570    2.7940    6.5760 ha        1 JJZ      0.125000
     45 HAX        13.1880    3.2720    7.2250 ha        1 JJZ      0.145000
     46 HAY         5.7450    0.2810   11.8910 hc        1 JJZ      0.170500
     47 HAZ         5.3650    2.0390   11.9930 hc        1 JJZ      0.170500
     48 HBB         9.9340    2.0800   12.0480 ha        1 JJZ      0.173000
     49 HBD        12.2130    2.6350   11.3850 ha        1 JJZ      0.152000
     50 HBE        13.8900    3.1840    9.6090 ha        1 JJZ      0.153000
     51 ClAF        0.6870   -1.5160    7.0070 cl        1 JJZ      0.043000
     52 HAO2        9.0780    0.4300    4.2840 hn        1 JJZ      0.308000
@<TRIPOS>BOND
     1    1    2 1   
     2    1    6 1   
     3    1   31 1   
     4    2    3 1   
     5    2   32 1   
     6    3    8 1   
     7    3   33 1   
     8    4   10 1   
     9    5   13 1   
    10    5   36 1   
    11    6    7 1   
    12    6   51 1   
    13    8    9 1   
    14    8   34 1   
    15    9   10 1   
    16    9   35 1   
    17   10   11 1   
    18   11   12 1   
    19   11   37 1   
    20   11   38 1   
    21   12   13 1   
    22   12   39 1   
    23   12   40 1   
    24   13   14 1   
    25   14   15 1   
    26   14   52 1   
    27   15   16 1   
    28   16   20 1   
    29   16   41 1   
    30   17   18 1   
    31   17   24 1   
    32   17   43 1   
    33   18   19 1   
    34   18   42 1   
    35   19   20 1   
    36   19   26 1   
    37   20   21 1   
    38   21   22 1   
    39   21   28 1   
    40   22   23 1   
    41   22   44 1   
    42   23   30 1   
    43   23   45 1   
    44   24   25 1   
    45   24   46 1   
    46   24   47 1   
    47   25   26 1   
    48   26   27 1   
    49   27   28 1   
    50   27   48 1   
    51   28   29 1   
    52   29   30 1   
    53   29   49 1   
    54   30   50 1   
@<TRIPOS>SUBSTRUCTURE
     1 JJZ         1 TEMP              0 ****  ****    0 ROOT
