@<TRIPOS>MOLECULE
JJZ
   52    54     1     0     0
SMALL
bcc


@<TRIPOS>ATOM
      1 CAA         2.1560    2.1040    0.1890 c2        1 JJZ     -0.075000
      2 CAB         3.1750    1.2530    0.4020 c2        1 JJZ     -0.166000
      3 CAC         3.4320    0.7180    1.7310 c2        1 JJZ     -0.154000
      4 OAD         4.5280    0.4440    4.3650 o         1 JJZ     -0.443000
      5 OAE         4.0450    1.3100    7.9860 o         1 JJZ     -0.183000
      6 CAG         1.2680    2.4690    1.2850 c2        1 JJZ     -0.337000
      7 CAH         1.2860    1.8450    2.4690 c1        1 JJZ      0.153000
      8 CAI         2.5800   -0.1600    2.3170 c2        1 JJZ     -0.016000
      9 NAJ         2.6900   -0.7230    3.5930 n         1 JJZ     -0.275000
     10 CAK         3.5910   -0.3660    4.5650 c2        1 JJZ      0.316000
     11 CAL         3.4190   -1.0050    5.9370 c3        1 JJZ     -0.199000
     12 CAM         4.6250   -0.7750    6.8270 c3        1 JJZ     -0.160000
     13 CAN         4.7430    0.6670    7.2200 c2        1 JJZ      0.296000
     14 NAO         5.8910    1.4540    6.5680 n4        1 JJZ     -0.060000
     15 NAP         7.1040    1.2840    7.2440 n2        1 JJZ     -0.166000
     16 CAQ         7.7110    2.2960    7.8060 c2        1 JJZ      0.067000
     17 CAR         8.3370   -0.3830   11.1510 c2        1 JJZ     -0.094000
     18 CAS         8.1190    0.4670   10.1290 c2        1 JJZ     -0.190000
     19 CAT         9.1840    1.2620    9.5500 ca        1 JJZ      0.096000
     20 CAU         8.9980    2.1380    8.4870 ca        1 JJZ     -0.156000
     21 CAV        10.0690    2.9650    8.0160 ca        1 JJZ      0.047000
     22 CAW         9.9160    3.8720    6.9340 ca        1 JJZ     -0.176000
     23 CAX        10.9680    4.6540    6.5140 ca        1 JJZ     -0.060000
     24 CAY         9.6750   -0.5680   11.7550 c3        1 JJZ     -0.215000
     25 CAZ        10.7540    0.2540   11.2310 c1        1 JJZ     -0.031000
     26 CBA        10.4820    1.1610   10.1620 ca        1 JJZ     -0.188000
     27 CBB        11.5270    1.9540    9.7070 ca        1 JJZ      0.082000
     28 CBC        11.3400    2.8700    8.6430 ca        1 JJZ     -0.102000
     29 CBD        12.4110    3.6870    8.1890 ca        1 JJZ     -0.070000
     30 CBE        12.2290    4.5640    7.1470 ca        1 JJZ     -0.137000
     31 HAA         1.9560    2.5510   -0.7970 ha        1 JJZ      0.163000
     32 HAB         3.8760    0.9610   -0.3950 ha        1 JJZ      0.162000
     33 HAC         4.3520    1.0780    2.2240 ha        1 JJZ      0.170000
     34 HAH         1.7000   -0.5560    1.7640 h4        1 JJZ      0.169000
     35 HNAJ        1.9440   -1.3320    3.8570 hn        1 JJZ      0.251000
     36 HAL         2.4940   -0.5830    6.4170 hc        1 JJZ      0.144500
     37 HALA        3.2760   -2.1150    5.8310 hc        1 JJZ      0.144500
     38 HAM         5.5570   -1.1450    6.3180 hc        1 JJZ      0.156500
     39 HAMA        4.4970   -1.3610    7.7830 hc        1 JJZ      0.156500
     40 HNAO        5.5830    2.4360    6.4640 hn        1 JJZ      0.263000
     41 HAQ         7.3360    3.3500    7.7790 h4        1 JJZ      0.154000
     42 HAR         7.1040    0.5920    9.7270 ha        1 JJZ      0.117000
     43 HAS         7.5110   -0.9700   11.5860 ha        1 JJZ      0.138000
     44 HAW         8.9480    3.9500    6.4180 ha        1 JJZ      0.117000
     45 HAX        10.8390    5.3580    5.6770 ha        1 JJZ      0.149000
     46 HAY        10.0010   -1.6480   11.6520 hc        1 JJZ      0.172500
     47 HAZ         9.6230   -0.3770   12.8710 hc        1 JJZ      0.172500
     48 HBB        12.5200    1.8650   10.1850 ha        1 JJZ      0.176000
     49 HBD        13.3890    3.6020    8.6910 ha        1 JJZ      0.154000
     50 HBE        13.0560    5.2000    6.7940 ha        1 JJZ      0.157000
     51 CLAF        0.1760    3.7450    1.0250 cl        1 JJZ      0.045000
     52 HAO2        6.0320    1.0520    5.6140 hn        1 JJZ      0.263000
@<TRIPOS>BOND
     1    1    2 1   
     2    1    6 1   
     3    1   31 1   
     4    2    3 1   
     5    2   32 1   
     6    3    8 1   
     7    3   33 1   
     8    4   10 1   
     9    5   13 1   
    10    6    7 1   
    11    6   51 1   
    12    8    9 1   
    13    8   34 1   
    14    9   10 1   
    15    9   35 1   
    16   10   11 1   
    17   11   12 1   
    18   11   36 1   
    19   11   37 1   
    20   12   13 1   
    21   12   38 1   
    22   12   39 1   
    23   13   14 1   
    24   14   15 1   
    25   14   40 1   
    26   14   52 1   
    27   15   16 1   
    28   16   20 1   
    29   16   41 1   
    30   17   18 1   
    31   17   24 1   
    32   17   43 1   
    33   18   19 1   
    34   18   42 1   
    35   19   20 1   
    36   19   26 1   
    37   20   21 1   
    38   21   22 1   
    39   21   28 1   
    40   22   23 1   
    41   22   44 1   
    42   23   30 1   
    43   23   45 1   
    44   24   25 1   
    45   24   46 1   
    46   24   47 1   
    47   25   26 1   
    48   26   27 1   
    49   27   28 1   
    50   27   48 1   
    51   28   29 1   
    52   29   30 1   
    53   29   49 1   
    54   30   50 1   
@<TRIPOS>SUBSTRUCTURE
     1 JJZ         1 TEMP              0 ****  ****    0 ROOT
