@<TRIPOS>MOLECULE
JJZ
   51    46     1     0     0
SMALL
bcc


@<TRIPOS>ATOM
      1 CAA         0.7230   -4.3150   -7.9190 c1        1 JJZ     -0.152000
      2 CAB         1.5400   -4.3910   -6.7920 c1        1 JJZ     -0.123667
      3 CAC         1.0140   -4.1270   -5.5350 c1        1 JJZ     -0.123667
      4 OAD        -0.4840   -1.2890   -4.1900 o         1 JJZ     -0.354000
      5 OAE        -2.3610   -1.1960    0.3030 o         1 JJZ     -0.316000
      6 CLAF       -1.6050   -3.7500   -9.2070 cl        1 JJZ     -0.017000
      7 CAG        -0.6160   -3.9760   -7.7840 c2        1 JJZ     -0.033000
      8 CAH        -1.1430   -3.7110   -6.5210 c2        1 JJZ     -0.184000
      9 CAI        -0.3280   -3.7860   -5.3990 c1        1 JJZ      0.088000
     10 NAJ        -0.8840   -3.5520   -4.0830 n         1 JJZ     -0.325000
     11 CAK        -0.9200   -2.2170   -3.5430 c2        1 JJZ      0.311000
     12 CAL        -1.5480   -1.9630   -2.1640 c3        1 JJZ     -0.178000
     13 CAM        -1.0230   -0.6420   -1.5980 c3        1 JJZ     -0.179000
     14 CAN        -1.4670   -0.4980   -0.1320 c2        1 JJZ      0.325000
     15 NAO        -0.8750    0.5230    0.7040 n         1 JJZ     -0.326000
     16 NAP        -1.6890    1.3610    1.4540 n2        1 JJZ      0.009000
     17 CAQ        -1.2020    1.9760    2.5210 c1        1 JJZ     -0.145000
     18 CAR        -0.7520   -0.4370    5.7560 c1        1 JJZ     -0.123667
     19 CAS        -0.5840    0.0480    4.4580 c1        1 JJZ     -0.126000
     20 CAT         0.0610    1.2810    4.2450 c1        1 JJZ     -0.014000
     21 CAU         0.2560    1.7630    2.9250 c1        1 JJZ     -0.079000
     22 CAV         0.9280    2.9910    2.7120 c1        1 JJZ     -0.014000
     23 CAW         1.1410    3.4610    1.3990 c1        1 JJZ     -0.123667
     24 CAX         1.8190    4.6560    1.1890 c1        1 JJZ     -0.123667
     25 CAY        -0.2820    0.2970    6.8400 c1        1 JJZ     -0.123667
     26 CAZ         0.3550    1.5150    6.6320 c1        1 JJZ     -0.116000
     27 CBA         0.5270    2.0080    5.3190 c2        1 JJZ     -0.040000
     28 CBB         1.1990    3.2370    5.1050 c2        1 JJZ     -0.093000
     29 CBC         1.3930    3.7180    3.7870 c2        1 JJZ     -0.040000
     30 CBD         2.0820    4.9310    3.5730 c2        1 JJZ     -0.116000
     31 CBE         2.2910    5.3930    2.2800 c1        1 JJZ     -0.126000
     32 HAA         1.0940   -4.5020   -8.8040 ha        1 JJZ      0.149000
     33 HAB         2.4840   -4.6300   -6.8880 ha        1 JJZ      0.144667
     34 HAC         1.5890   -4.1800   -4.7430 ha        1 JJZ      0.144667
     35 HAH        -2.0910   -3.4700   -6.4240 ha        1 JJZ      0.144000
     36 HNAJ       -1.2250   -4.2400   -3.6070 hn        1 JJZ      0.234000
     37 HAL        -1.3130   -2.6910   -1.5610 hc        1 JJZ      0.125000
     38 HALA       -2.5250   -1.9150   -2.2540 hc        1 JJZ      0.125000
     39 HAM        -1.3810    0.1030   -2.1240 hc        1 JJZ      0.127000
     40 HAMA       -0.0440   -0.6340   -1.6450 hc        1 JJZ      0.127000
     41 HNAO        0.0230    0.6710    0.6750 hn        1 JJZ      0.223000
     42 HAQ        -1.7740    2.5660    3.0480 ha        1 JJZ      0.177000
     43 HAR        -1.1990   -1.2930    5.9040 ha        1 JJZ      0.144667
     44 HAS        -0.9170   -0.4720    3.6920 ha        1 JJZ      0.143000
     45 HAW         0.8090    2.9440    0.6320 ha        1 JJZ      0.144667
     46 HAX         1.9670    4.9810    0.2810 ha        1 JJZ      0.144667
     47 HAY        -0.4000   -0.0430    7.7480 ha        1 JJZ      0.144667
     48 HAZ         0.6840    2.0310    7.3950 ha        1 JJZ      0.134000
     49 HBB         1.4760    3.7820    5.8710 ha        1 JJZ      0.138000
     50 HBD         2.4100    5.4470    4.3350 ha        1 JJZ      0.134000
     51 HBE         2.7690    6.2360    2.1320 ha        1 JJZ      0.136000
@<TRIPOS>BOND
     1    1    7 1   
     2    1   32 1   
     3    2    3 1   
     4    2   33 1   
     5    3   34 1   
     6    4   11 1   
     7    5   14 1   
     8    6    7 1   
     9    7    8 1   
    10    8    9 1   
    11    8   35 1   
    12    9   10 1   
    13   10   11 1   
    14   10   36 1   
    15   11   12 1   
    16   12   13 1   
    17   12   37 1   
    18   12   38 1   
    19   13   14 1   
    20   13   39 1   
    21   13   40 1   
    22   14   15 1   
    23   15   16 1   
    24   15   41 1   
    25   16   17 1   
    26   17   42 1   
    27   18   25 1   
    28   18   43 1   
    29   19   20 1   
    30   19   44 1   
    31   20   27 1   
    32   21   22 1   
    33   22   29 1   
    34   23   24 1   
    35   23   45 1   
    36   24   46 1   
    37   25   47 1   
    38   26   27 1   
    39   26   48 1   
    40   27   28 1   
    41   28   29 1   
    42   28   49 1   
    43   29   30 1   
    44   30   31 1   
    45   30   50 1   
    46   31   51 1   
@<TRIPOS>SUBSTRUCTURE
     1 JJZ         1 TEMP              0 ****  ****    0 ROOT
