@<TRIPOS>MOLECULE
JJZ
   53    54     1     0     0
SMALL
bcc


@<TRIPOS>ATOM
      1 CAA         0.7900   -2.4290    3.2740 c2        1 JJZ      0.030000
      2 CAB         0.3850   -1.2390    2.7850 c2        1 JJZ     -0.204000
      3 CAC         1.1160   -0.0910    2.3490 c2        1 JJZ      0.088000
      4 OAD         3.4240    1.6380    4.5500 o         1 JJZ     -0.174000
      5 OAE         8.2980    2.7740    3.3520 o         1 JJZ     -0.158000
      6 CAG         2.1100   -2.9800    3.4710 c2        1 JJZ     -0.148000
      7 CAH         2.3510   -3.9750    4.3430 c2        1 JJZ     -0.077000
      8 CAI         2.3980    0.1940    2.4170 c1        1 JJZ      0.036000
      9 NAJ         3.5940    0.6460    2.4580 n         1 JJZ     -0.113000
     10 CAK         4.1330    1.4200    3.5720 c2        1 JJZ      0.314000
     11 CAL         5.5290    1.8950    3.4050 c2        1 JJZ     -0.113000
     12 CAM         6.1110    2.6070    4.3860 c2        1 JJZ     -0.105000
     13 CAN         7.4980    3.0760    4.2260 c2        1 JJZ      0.287000
     14 NAO         8.0110    4.0600    5.2730 n4        1 JJZ     -0.032000
     15 NAP         7.9870    3.5270    6.5740 n2        1 JJZ     -0.225000
     16 CAQ         9.1130    3.2700    7.2080 c2        1 JJZ      0.087000
     17 CAR         6.4910    4.5810   10.4340 c2        1 JJZ     -0.069000
     18 CAS         7.3230    4.2240    9.4310 c2        1 JJZ     -0.211000
     19 CAT         8.2980    3.1650    9.5780 ca        1 JJZ      0.134000
     20 CAU         9.1660    2.7520    8.5580 ca        1 JJZ     -0.180000
     21 CAV        10.2060    1.7920    8.8290 ca        1 JJZ      0.055000
     22 CAW        11.1080    1.3280    7.8390 ca        1 JJZ     -0.189000
     23 CAX        12.1070    0.4280    8.1490 ca        1 JJZ     -0.046000
     24 CAY         6.5030    3.9100   11.7510 c3        1 JJZ     -0.224000
     25 CAZ         7.5100    2.8820   11.9480 c1        1 JJZ     -0.022000
     26 CBA         8.4080    2.5710   10.8810 ca        1 JJZ     -0.207000
     27 CBB         9.4090    1.6470   11.1450 ca        1 JJZ      0.112000
     28 CBC        10.3300    1.2600   10.1410 ca        1 JJZ     -0.115000
     29 CBD        11.3640    0.3310   10.4380 ca        1 JJZ     -0.058000
     30 CBE        12.2430   -0.0730    9.4600 ca        1 JJZ     -0.135000
     31 HAA        -0.0200   -3.1310    3.5860 ha        1 JJZ      0.179000
     32 HAB        -0.7150   -1.0860    2.7010 ha        1 JJZ      0.186000
     33 HAC         0.4920    0.7150    1.8760 ha        1 JJZ      0.230000
     34 HAH         1.5500   -4.4020    4.9680 ha        1 JJZ      0.162000
     35 HNAJ        3.3490   -4.4160    4.4850 ha        1 JJZ      0.162000
     36 HAL         6.1620    0.3500    0.0010 ha        1 JJZ      0.002500
     37 HALA        5.9100    0.5680    0.5930 ha        1 JJZ      0.002500
     38 HAM         6.0610    1.6480    2.4640 ha        1 JJZ      0.192000
     39 HAMA        5.5900    2.8410    5.3380 ha        1 JJZ      0.214000
     40 HNAO        8.9380    4.4010    4.9550 hn        1 JJZ      0.255000
     41 HAQ        10.1180    3.4160    6.7320 h4        1 JJZ      0.157000
     42 HAR         7.2900    4.7870    8.4880 ha        1 JJZ      0.123000
     43 HAS         5.7750    5.4100   10.3040 ha        1 JJZ      0.145000
     44 HAW        11.0250    1.6740    6.7990 ha        1 JJZ      0.115000
     45 HAX        12.8090    0.0900    7.3700 ha        1 JJZ      0.155000
     46 HAY         5.4930    3.4420   11.9640 hc        1 JJZ      0.183000
     47 HAZ         6.6470    4.6780   12.5730 hc        1 JJZ      0.183000
     48 HBB         9.4850    1.2080   12.1590 ha        1 JJZ      0.185000
     49 HBD        11.4470   -0.0570   11.4670 ha        1 JJZ      0.162000
     50 HBE        13.0520   -0.7870    9.6880 ha        1 JJZ      0.166000
     51 CLAF        3.3900   -2.4000    2.4880 cl        1 JJZ     -0.043000
     52 HAJ2        4.2290    0.4370    1.6930 hn        1 JJZ      0.292000
     53 HAO2        7.3560    4.8620    5.2990 hn        1 JJZ      0.255000
@<TRIPOS>BOND
     1    1    2 1   
     2    1    6 1   
     3    1   31 1   
     4    2    3 1   
     5    2   32 1   
     6    3    8 1   
     7    3   33 1   
     8    4   10 1   
     9    5   13 1   
    10    6    7 1   
    11    6   51 1   
    12    7   34 1   
    13    7   35 1   
    14    8    9 1   
    15    9   10 1   
    16    9   52 1   
    17   10   11 1   
    18   11   12 1   
    19   11   38 1   
    20   12   13 1   
    21   12   39 1   
    22   13   14 1   
    23   14   15 1   
    24   14   40 1   
    25   14   53 1   
    26   15   16 1   
    27   16   20 1   
    28   16   41 1   
    29   17   18 1   
    30   17   24 1   
    31   17   43 1   
    32   18   19 1   
    33   18   42 1   
    34   19   20 1   
    35   19   26 1   
    36   20   21 1   
    37   21   22 1   
    38   21   28 1   
    39   22   23 1   
    40   22   44 1   
    41   23   30 1   
    42   23   45 1   
    43   24   25 1   
    44   24   46 1   
    45   24   47 1   
    46   25   26 1   
    47   26   27 1   
    48   27   28 1   
    49   27   48 1   
    50   28   29 1   
    51   29   30 1   
    52   29   49 1   
    53   30   50 1   
    54   36   37 1   
@<TRIPOS>SUBSTRUCTURE
     1 JJZ         1 TEMP              0 ****  ****    0 ROOT
