@<TRIPOS>MOLECULE
JK1
   61    60     1     0     0
SMALL
bcc


@<TRIPOS>ATOM
      1 O1          0.5230    0.1370   -0.0670 o         1 JK1     -0.390000
      2 N2          2.1180   -0.1740   -3.4060 n1        1 JK1     -0.193000
      3 C3         -6.9730   -0.1640   12.8920 c3        1 JK1     -0.072000
      4 O4         -4.6790   -2.7740   14.8020 os        1 JK1     -0.215500
      5 C5         -1.0550   -2.0430   -3.3440 c3        1 JK1     -0.279000
      6 C6          1.2970   -0.5900   -6.3530 c1        1 JK1      0.230000
      7 C7          3.0770    0.2560    7.7770 c1        1 JK1      0.172000
      8 C8         -0.0280   -1.0330   -3.0400 c2        1 JK1      0.038000
      9 C10         1.9040   -0.1610    8.2340 c2        1 JK1     -0.441000
     10 C11         2.6590    2.1260    6.4490 c2        1 JK1     -0.249000
     11 C15        -2.7580   -2.5170   13.2930 ca        1 JK1     -0.046000
     12 C16         2.2200    1.6460    3.5630 c2        1 JK1     -0.158000
     13 C17         1.6060    0.7480   -0.0540 c2        1 JK1      0.272000
     14 C19         1.0660   -0.7590   -3.8890 c2        1 JK1     -0.056000
     15 C20        -2.1610   -1.8970   12.1280 ca        1 JK1     -0.115000
     16 C22         0.6140    0.4330    7.9440 c2        1 JK1     -0.085000
     17 C23         1.5110    1.5870    5.9650 c2        1 JK1      0.092000
     18 C24        -4.2930   -0.6600   11.8370 ca        1 JK1     -0.054000
     19 C25        -4.0370   -2.2180   13.7040 ca        1 JK1     -0.054000
     20 C26        -4.8460   -1.2780   12.9880 ca        1 JK1      0.216000
     21 C1         -4.7660    0.5330    9.8300 c3        1 JK1     -0.081000
     22 N1          0.2490    0.6250    4.1090 n2        1 JK1     -0.052000
     23 C2         -3.8850   -3.6410   15.6040 c3        1 JK1     -0.081000
     24 O2         -1.6000    0.6410    8.8140 o         1 JK1     -0.318000
     25 N3          2.1880    1.2550    1.0890 n         1 JK1     -0.301000
     26 O3         -5.0980    0.2740   11.1930 os        1 JK1     -0.215500
     27 C4         -1.8670   -1.8380   -4.5310 c1        1 JK1     -0.014000
     28 N4         -0.9470   -2.1670   11.7350 n1        1 JK1     -0.253000
     29 N5          1.3170    1.3010    4.5900 na        1 JK1     -0.092000
     30 O5         -6.0750   -1.0820   13.5220 os        1 JK1     -0.163000
     31 C9          0.9510   -1.2680   -5.2810 c2        1 JK1     -0.511000
     32 C12         0.4110    0.5140    2.7770 c2        1 JK1     -0.146000
     33 C13         0.4130    1.2460    6.8830 c2        1 JK1     -0.087000
     34 C14        -3.0030   -0.9530   11.4300 ca        1 JK1     -0.046000
     35 C21         1.6640    1.1520    2.3670 c2        1 JK1     -0.046000
     36 HN2         2.2050    0.9420   -0.9770 h5        1 JK1      0.162000
     37 H3         -6.5340    0.8630   12.8790 h1        1 JK1      0.101333
     38 H3A        -7.8750   -0.2110   13.5560 h1        1 JK1      0.101333
     39 H3B        -7.2150   -0.5060   11.8580 h1        1 JK1      0.101333
     40 H5         -1.7910   -2.1500   -2.4870 hc        1 JK1      0.177000
     41 H6         -1.7370   -0.8890   -5.0740 ha        1 JK1      0.060000
     42 H7          3.5440    2.3400    5.8390 ha        1 JK1      0.149000
     43 H8         -0.0550   -0.5750   -2.0270 ha        1 JK1      0.185000
     44 H10         1.8950   -1.0510    8.8980 ha        1 JK1      0.199000
     45 H11         2.7170    2.4750    7.4930 ha        1 JK1      0.149000
     46 H15        -2.1480   -3.2470   13.8530 ha        1 JK1      0.166000
     47 H16         3.1410    2.1930    3.7520 h4        1 JK1      0.184000
     48 H1         -4.6860   -0.4170    9.2510 h1        1 JK1      0.090333
     49 H1A        -3.8120    1.1130    9.7620 h1        1 JK1      0.090333
     50 H1B        -5.6290    1.1490    9.4700 h1        1 JK1      0.090333
     51 H2         -3.5790   -4.5450   15.0240 h1        1 JK1      0.090333
     52 H2A        -2.9870   -3.1070   16.0000 h1        1 JK1      0.090333
     53 H2B        -4.5770   -3.9230   16.4380 h1        1 JK1      0.090333
     54 HN3         3.0650    1.7200    1.0120 hn        1 JK1      0.239000
     55 H4         -0.5700   -3.0650   -3.4470 hc        1 JK1      0.177000
     56 HN4        -0.2660   -0.6980    9.6150 h4        1 JK1      0.142000
     57 H9          0.5800   -2.3060   -5.3780 ha        1 JK1      0.183000
     58 H12        -0.3080    0.0140    2.1210 h4        1 JK1      0.213000
     59 H13        -0.5870    1.6570    6.6600 ha        1 JK1      0.179000
     60 H14        -2.5840   -0.4520   10.5340 ha        1 JK1      0.166000
     61 C18        -0.4930    0.0940    8.8640 c2        1 JK1      0.220000
@<TRIPOS>BOND
     1    1   13 1   
     2    2   14 1   
     3    3   30 1   
     4    3   37 1   
     5    3   38 1   
     6    3   39 1   
     7    4   19 1   
     8    4   23 1   
     9    5    8 1   
    10    5   27 1   
    11    5   40 1   
    12    5   55 1   
    13    6   31 1   
    14    7    9 1   
    15    8   14 1   
    16    8   43 1   
    17    9   16 1   
    18    9   44 1   
    19   10   17 1   
    20   10   42 1   
    21   10   45 1   
    22   11   15 1   
    23   11   19 1   
    24   11   46 1   
    25   12   29 1   
    26   12   35 1   
    27   12   47 1   
    28   13   25 1   
    29   13   36 1   
    30   14   31 1   
    31   15   28 1   
    32   15   34 1   
    33   16   33 1   
    34   16   61 1   
    35   17   29 1   
    36   17   33 1   
    37   18   20 1   
    38   18   26 1   
    39   18   34 1   
    40   19   20 1   
    41   20   30 1   
    42   21   26 1   
    43   21   48 1   
    44   21   49 1   
    45   21   50 1   
    46   22   29 1   
    47   22   32 1   
    48   23   51 1   
    49   23   52 1   
    50   23   53 1   
    51   24   61 1   
    52   25   35 1   
    53   25   54 1   
    54   27   41 1   
    55   31   57 1   
    56   32   35 1   
    57   32   58 1   
    58   33   59 1   
    59   34   60 1   
    60   56   61 1   
@<TRIPOS>SUBSTRUCTURE
     1 JK1         1 TEMP              0 ****  ****    0 ROOT
