@<TRIPOS>MOLECULE
JK1
   61    62     1     0     0
SMALL
bcc


@<TRIPOS>ATOM
      1 O1         -0.0300    0.3440   -0.1050 o         1 JK1     -0.362000
      2 N2          1.7850   -0.4150   -1.3510 ns        1 JK1     -0.311000
      3 C3         -6.1230   -1.8850   14.2110 c3        1 JK1     -0.075000
      4 O4         -2.7850   -0.9120   14.6740 os        1 JK1     -0.195000
      5 C5          0.0360    1.6130   -4.0680 c3        1 JK1     -0.232000
      6 C6          1.5230   -0.2690   -5.0030 c1        1 JK1      0.192000
      7 C7          0.5930    1.5280    9.3180 c1        1 JK1      0.223000
      8 C8          0.5230    1.1470   -2.7480 c2        1 JK1     -0.212000
      9 C10         0.5640    0.7410    8.2620 c2        1 JK1     -0.458000
     10 C11         2.1340   -1.2080    6.3490 c2        1 JK1     -0.262000
     11 C15        -2.1240   -0.6290   12.3340 ca        1 JK1     -0.266500
     12 C16         1.5910   -1.1770    3.4410 c2        1 JK1     -0.164000
     13 C17         1.0130   -0.3400   -0.1690 c2        1 JK1      0.390000
     14 C19         1.2840    0.0320   -2.5930 c2        1 JK1      0.076000
     15 C20        -2.5270   -0.4920   10.9840 ca        1 JK1      0.135000
     16 C22        -0.4080   -0.2340    7.8270 c2        1 JK1     -0.052000
     17 C23         0.9000   -1.0010    5.8420 c2        1 JK1      0.081000
     18 C24        -4.8490   -0.5860   11.6850 ca        1 JK1      0.118000
     19 C25        -3.0860   -0.7420   13.3390 ca        1 JK1      0.118000
     20 C26        -4.4630   -0.7030   13.0350 ca        1 JK1     -0.029000
     21 C1         -6.6360   -0.3650   10.1220 c3        1 JK1     -0.079000
     22 N1         -0.4660   -0.3140    3.9340 n2        1 JK1     -0.047000
     23 C2         -1.4250   -0.7160   15.0460 c3        1 JK1     -0.079000
     24 O2         -2.7610   -0.5840    8.0660 o         1 JK1     -0.329000
     25 N3          1.4740   -1.0880    0.9430 ns        1 JK1     -0.277000
     26 O3         -6.2090   -0.6080   11.4600 os        1 JK1     -0.195000
     27 C4          0.9720    2.1390   -5.0430 c1        1 JK1     -0.041000
     28 N4         -1.5180   -0.3650   10.0120 ns        1 JK1     -0.323000
     29 N5          0.6700   -0.8320    4.4500 na        1 JK1     -0.096000
     30 O5         -5.3860   -0.6690   14.0630 os        1 JK1     -0.191000
     31 C9          1.6960   -0.7360   -3.7780 c2        1 JK1     -0.446000
     32 C12        -0.3330   -0.3060    2.5930 c2        1 JK1     -0.135000
     33 C13        -0.2850   -0.9850    6.7140 c2        1 JK1     -0.061000
     34 C14        -3.8970   -0.4760   10.6640 ca        1 JK1     -0.266500
     35 C21         0.9710   -0.8540    2.2160 c2        1 JK1     -0.047000
     36 HN2         2.4710   -1.1340   -1.4150 hn        1 JK1      0.221000
     37 H3         -6.6900   -2.1110   13.2760 h1        1 JK1      0.079667
     38 H3A        -6.8190   -1.6670   15.0590 h1        1 JK1      0.079667
     39 H3B        -5.4350   -2.7260   14.4680 h1        1 JK1      0.079667
     40 H5         -0.7280    2.4370   -3.9090 hc        1 JK1      0.165500
     41 H6          2.0500    2.0670   -4.8270 ha        1 JK1      0.052000
     42 H7          3.0490   -1.2500    5.7470 ha        1 JK1      0.135000
     43 H8          0.2020    1.7400   -1.8750 ha        1 JK1      0.172000
     44 H10         1.4250    0.8840    7.5590 ha        1 JK1      0.211000
     45 H11         2.2690   -1.3680    7.4270 ha        1 JK1      0.135000
     46 H15        -1.0570   -0.6470   12.5960 ha        1 JK1      0.159000
     47 H16         2.5560   -1.6270    3.6590 h4        1 JK1      0.180000
     48 H1         -6.2890   -1.1830    9.4450 h1        1 JK1      0.086833
     49 H1A        -6.2680    0.6260    9.7620 h1        1 JK1      0.086833
     50 H1B        -7.7520   -0.3660   10.2070 h1        1 JK1      0.086833
     51 H2         -0.7830   -1.5240   14.6190 h1        1 JK1      0.086833
     52 H2A        -1.0610    0.2880   14.7200 h1        1 JK1      0.086833
     53 H2B        -1.4520   -0.7840   16.1630 h1        1 JK1      0.086833
     54 HN3         2.4130   -1.4220    0.9270 hn        1 JK1      0.220000
     55 H4         -0.5450    0.7880   -4.5960 hc        1 JK1      0.165500
     56 HN4        -0.5890   -0.3220   10.3710 hn        1 JK1      0.235000
     57 H9          2.1580   -1.7300   -3.6310 ha        1 JK1      0.188000
     58 H12        -1.1010    0.0770    1.9150 h4        1 JK1      0.219000
     59 H13        -1.1190   -1.6450    6.4040 ha        1 JK1      0.179000
     60 H14        -4.2260   -0.3760    9.6180 ha        1 JK1      0.159000
     61 C18        -1.6690   -0.4030    8.6330 c2        1 JK1      0.343000
@<TRIPOS>BOND
     1    1   13 1   
     2    2   13 1   
     3    2   14 1   
     4    2   36 1   
     5    3   30 1   
     6    3   37 1   
     7    3   38 1   
     8    3   39 1   
     9    4   19 1   
    10    4   23 1   
    11    5    8 1   
    12    5   27 1   
    13    5   40 1   
    14    5   55 1   
    15    6   31 1   
    16    7    9 1   
    17    8   14 1   
    18    8   43 1   
    19    9   16 1   
    20    9   44 1   
    21   10   17 1   
    22   10   42 1   
    23   10   45 1   
    24   11   15 1   
    25   11   19 1   
    26   11   46 1   
    27   12   29 1   
    28   12   35 1   
    29   12   47 1   
    30   13   25 1   
    31   14   31 1   
    32   15   28 1   
    33   15   34 1   
    34   16   33 1   
    35   16   61 1   
    36   17   29 1   
    37   17   33 1   
    38   18   20 1   
    39   18   26 1   
    40   18   34 1   
    41   19   20 1   
    42   20   30 1   
    43   21   26 1   
    44   21   48 1   
    45   21   49 1   
    46   21   50 1   
    47   22   29 1   
    48   22   32 1   
    49   23   51 1   
    50   23   52 1   
    51   23   53 1   
    52   24   61 1   
    53   25   35 1   
    54   25   54 1   
    55   27   41 1   
    56   28   56 1   
    57   28   61 1   
    58   31   57 1   
    59   32   35 1   
    60   32   58 1   
    61   33   59 1   
    62   34   60 1   
@<TRIPOS>SUBSTRUCTURE
     1 JK1         1 TEMP              0 ****  ****    0 ROOT
