@<TRIPOS>MOLECULE
JK1
   61    64     1     0     0
SMALL
bcc


@<TRIPOS>ATOM
      1 O1          6.2700    0.9150   -0.7960 o         1 JK1     -0.603100
      2 N2          7.9530   -0.3390    0.2230 n         1 JK1     -0.457100
      3 C3         -9.0240    2.7030   -0.9760 c3        1 JK1      0.114700
      4 O4         -8.2950   -0.6210   -1.7970 os        1 JK1     -0.311400
      5 C5          9.9940    2.6390   -0.7270 ca        1 JK1     -0.108500
      6 C6         11.4050    0.6890   -0.6540 ca        1 JK1     -0.108500
      7 C7         -0.5810   -3.6230    0.9960 ca        1 JK1     -0.119000
      8 C8          8.8840    1.8670   -0.3930 ca        1 JK1     -0.154500
      9 C10        -1.6960   -2.7890    1.0490 ca        1 JK1     -0.117000
     10 C11         0.6700   -3.1190    0.6530 ca        1 JK1     -0.133000
     11 C15        -6.0560   -0.7950   -0.8170 ca        1 JK1     -0.271000
     12 C16         3.3200   -1.7770    0.4790 cc        1 JK1     -0.189300
     13 C17         6.6260   -0.1320   -0.2160 c         1 JK1      0.765100
     14 C19         9.0270    0.4800   -0.1870 ca        1 JK1      0.055600
     15 C20        -5.0870   -0.2490    0.0590 ca        1 JK1      0.129600
     16 C22        -1.5490   -1.4290    0.7630 ca        1 JK1     -0.133600
     17 C23         0.8230   -1.7440    0.3770 ca        1 JK1      0.031800
     18 C24        -6.6390    1.5230    0.6430 ca        1 JK1      0.164100
     19 C25        -7.3010   -0.1780   -0.9500 ca        1 JK1      0.164100
     20 C26        -7.6210    0.9790   -0.2070 ca        1 JK1      0.013100
     21 C1         -6.0670    3.2100    2.2290 c3        1 JK1      0.110700
     22 N1          2.2930   -0.1410   -0.7400 nc        1 JK1     -0.488800
     23 C2         -8.0670   -1.8690   -2.4410 c3        1 JK1      0.110700
     24 O2         -2.6390    0.5810    1.4570 o         1 JK1     -0.573100
     25 N3          5.7070   -1.1860    0.0230 n         1 JK1     -0.424100
     26 O3         -7.0050    2.6810    1.2950 os        1 JK1     -0.311400
     27 C4         11.2550    2.0600   -0.8570 ca        1 JK1     -0.148000
     28 N4         -3.8580   -0.9200    0.1710 n         1 JK1     -0.467100
     29 N5          2.1010   -1.2250    0.0400 na        1 JK1      0.150300
     30 O5         -8.9090    1.4790   -0.2470 os        1 JK1     -0.307900
     31 C9         10.3100   -0.1020   -0.3280 ca        1 JK1     -0.154500
     32 C12         3.6250    0.0460   -0.8460 cd        1 JK1      0.327200
     33 C13        -0.3020   -0.8940    0.4370 ca        1 JK1     -0.074000
     34 C14        -5.3840    0.9190    0.7840 ca        1 JK1     -0.271000
     35 C21         4.3370   -0.9770   -0.0820 cd        1 JK1     -0.117700
     36 HN2         8.2190   -1.2710    0.4570 hn        1 JK1      0.305500
     37 H3        -10.1080    2.9600   -0.8860 h1        1 JK1      0.040367
     38 H3A        -8.3860    3.4930   -0.5100 h1        1 JK1      0.040367
     39 H3B        -8.7390    2.5460   -2.0440 h1        1 JK1      0.040367
     40 H5          9.8670    3.7200   -0.8880 ha        1 JK1      0.134500
     41 H6         12.3970    0.2240   -0.7560 ha        1 JK1      0.134500
     42 H7         -0.6890   -4.6950    1.2220 ha        1 JK1      0.143000
     43 H8          7.8950    2.3460   -0.3030 ha        1 JK1      0.148000
     44 H10        -2.6760   -3.2010    1.3310 ha        1 JK1      0.144000
     45 H11         1.5310   -3.8040    0.5970 ha        1 JK1      0.144000
     46 H15        -5.8320   -1.7010   -1.3970 ha        1 JK1      0.158500
     47 H16         3.3660   -2.6460    1.1310 h4        1 JK1      0.179000
     48 H1         -5.8460    2.4660    3.0320 h1        1 JK1      0.046867
     49 H1A        -5.1280    3.5200    1.7090 h1        1 JK1      0.046867
     50 H1B        -6.6000    4.1000    2.6500 h1        1 JK1      0.046867
     51 H2         -9.0220   -2.0480   -2.9980 h1        1 JK1      0.046867
     52 H2A        -7.2070   -1.7940   -3.1510 h1        1 JK1      0.046867
     53 H2B        -7.8900   -2.6790   -1.6930 h1        1 JK1      0.046867
     54 HN3         5.9630   -1.8910    0.6790 hn        1 JK1      0.305500
     55 H4         12.1250    2.6790   -1.1190 ha        1 JK1      0.134000
     56 HN4        -3.7830   -1.7680   -0.3490 hn        1 JK1      0.320500
     57 H9         10.4550   -1.1830   -0.1760 ha        1 JK1      0.148000
     58 H12         4.0730    0.8640   -1.4190 h4        1 JK1      0.082100
     59 H13        -0.2130    0.1880    0.2390 ha        1 JK1      0.181000
     60 H14        -4.6350    1.3610    1.4600 ha        1 JK1      0.158500
     61 C18        -2.7160   -0.4940    0.8380 c         1 JK1      0.682700
@<TRIPOS>BOND
     1    1   13 2   
     2    2   13 1   
     3    2   14 1   
     4    2   36 1   
     5    3   30 1   
     6    3   37 1   
     7    3   38 1   
     8    3   39 1   
     9    4   19 1   
    10    4   23 1   
    11    5    8 ar  
    12    5   27 ar  
    13    5   40 1   
    14    6   27 ar  
    15    6   31 ar  
    16    6   41 1   
    17    7    9 ar  
    18    7   10 ar  
    19    7   42 1   
    20    8   14 ar  
    21    8   43 1   
    22    9   16 ar  
    23    9   44 1   
    24   10   17 ar  
    25   10   45 1   
    26   11   15 ar  
    27   11   19 ar  
    28   11   46 1   
    29   12   29 1   
    30   12   35 2   
    31   12   47 1   
    32   13   25 1   
    33   14   31 ar  
    34   15   28 1   
    35   15   34 ar  
    36   16   33 ar  
    37   16   61 1   
    38   17   29 1   
    39   17   33 ar  
    40   18   20 ar  
    41   18   26 1   
    42   18   34 ar  
    43   19   20 ar  
    44   20   30 1   
    45   21   26 1   
    46   21   48 1   
    47   21   49 1   
    48   21   50 1   
    49   22   29 1   
    50   22   32 2   
    51   23   51 1   
    52   23   52 1   
    53   23   53 1   
    54   24   61 2   
    55   25   35 1   
    56   25   54 1   
    57   27   55 1   
    58   28   56 1   
    59   28   61 1   
    60   31   57 1   
    61   32   35 1   
    62   32   58 1   
    63   33   59 1   
    64   34   60 1   
@<TRIPOS>SUBSTRUCTURE
     1 JK1         1 TEMP              0 ****  ****    0 ROOT
