@<TRIPOS>MOLECULE
JK1
   61    54     1     0     0
SMALL
bcc


@<TRIPOS>ATOM
      1 O1          3.3740   -0.7920   -6.3570 o         1 JK1     -0.367000
      2 N2          2.8670    0.8890   -7.8460 n         1 JK1     -0.312000
      3 C3         -6.2700   -0.3350    7.6540 c3        1 JK1     -0.073000
      4 O4         -4.0750   -2.4990    6.7620 os        1 JK1     -0.201000
      5 C5          4.7950   -0.7530  -10.6660 c1        1 JK1     -0.120500
      6 C6          5.9580    1.0820   -9.6630 c1        1 JK1     -0.108000
      7 C7          2.3810   -0.2180    1.1430 c1        1 JK1     -0.120500
      8 C8          3.7520   -0.5830   -9.7620 c1        1 JK1     -0.133000
      9 C10         1.2430   -0.0860    1.9520 c1        1 JK1     -0.118000
     10 C11         2.2570   -0.1990   -0.2420 c1        1 JK1     -0.120500
     11 C15        -2.7200   -1.2850    5.1090 c1        1 JK1     -0.265000
     12 C16         1.1150    0.6680   -3.2260 c1        1 JK1     -0.149000
     13 C17         2.7060    0.1910   -6.5930 c2        1 JK1      0.393000
     14 C18        -1.2510    0.1160    2.2460 c1        1 JK1      0.354000
     15 C19         3.8170    0.4190   -8.8130 c2        1 JK1      0.064000
     16 C20        -2.3500   -0.0910    4.4790 c1        1 JK1      0.115000
     17 C22        -0.0020    0.0650    1.3720 c1        1 JK1     -0.110000
     18 C23         0.9990   -0.0460   -0.8280 c1        1 JK1      0.079000
     19 C24        -3.7790    1.1400    5.9840 c1        1 JK1      0.101000
     20 C25        -3.6190   -1.2610    6.1760 c2        1 JK1      0.098000
     21 C26        -4.1490   -0.0480    6.6130 c2        1 JK1     -0.029000
     22 C1         -3.4190    3.0360    7.3020 c3        1 JK1     -0.074000
     23 N1          1.6120   -1.4110   -2.6210 n2        1 JK1     -0.076500
     24 C2         -3.0540   -3.2110    7.4980 c3        1 JK1     -0.078000
     25 O2         -2.3480    0.2480    1.7310 o         1 JK1     -0.336000
     26 N3          1.7830    0.6910   -5.6020 n         1 JK1     -0.279000
     27 O3         -4.2820    2.3580    6.4450 o         1 JK1     -0.220000
     28 C4          5.8930    0.0770  -10.6150 c1        1 JK1     -0.120500
     29 N4         -1.1430   -0.0650    3.6550 n3        1 JK1     -0.320000
     30 N5          1.0900   -0.2080   -2.1820 n2        1 JK1     -0.076500
     31 O5         -4.9000    0.0290    7.8080 os        1 JK1     -0.211000
     32 C9          4.9180    1.2510   -8.7620 c2        1 JK1     -0.177000
     33 C12         1.9570   -1.2690   -3.9360 c1        1 JK1     -0.149000
     34 C13        -0.1270    0.0850   -0.0290 c2        1 JK1     -0.106000
     35 C14        -2.8770    1.1150    4.9150 c2        1 JK1     -0.191000
     36 C21         1.6530    0.0150   -4.3190 c2        1 JK1     -0.046000
     37 HN2         2.3310    1.6070   -8.0420 hn        1 JK1      0.220000
     38 H3         -6.4830   -0.4070    6.7060 h1        1 JK1      0.082667
     39 H3A        -6.8450    0.3560    8.0700 h1        1 JK1      0.082667
     40 H3B        -6.4310   -1.2010    8.0920 h1        1 JK1      0.082667
     41 H5          4.7500   -1.4530  -11.3290 ha        1 JK1      0.145250
     42 H6          6.7340    1.6680   -9.6260 ha        1 JK1      0.132000
     43 H7          3.2650   -0.3260    1.5540 ha        1 JK1      0.145250
     44 H8          2.9820   -1.1650   -9.7980 ha        1 JK1      0.169000
     45 H10         1.3300   -0.0990    2.9220 ha        1 JK1      0.142000
     46 H11         3.0440   -0.2910   -0.8000 ha        1 JK1      0.145250
     47 H15        -2.4390   -2.1330    4.7350 ha        1 JK1      0.137000
     48 H16         0.8360    1.5890   -3.1990 DU        1 JK1      0.202000
     49 H1         -2.5230    3.0750    6.9000 h1        1 JK1      0.086333
     50 H1A        -3.7480    3.9380    7.4460 h1        1 JK1      0.086333
     51 H1B        -3.3720    2.5620    8.1640 h1        1 JK1      0.086333
     52 H2         -2.6730   -2.6200    8.1840 h1        1 JK1      0.085000
     53 H2A        -3.4550   -4.0080    7.9330 h1        1 JK1      0.085000
     54 H2B        -2.3460   -3.4960    6.8820 h1        1 JK1      0.085000
     55 HN3         1.2690    1.4280   -5.7860 hn        1 JK1      0.222000
     56 H4          6.6220   -0.0430  -11.2460 ha        1 JK1      0.145250
     57 HN4        -0.3420   -0.2240    4.0270 hn        1 JK1      0.234000
     58 H9          4.9630    1.9500   -8.1000 ha        1 JK1      0.128000
     59 H12         2.3530   -1.9630   -4.5070 DU        1 JK1      0.202000
     60 H13        -1.0070    0.1910   -0.4410 ha        1 JK1      0.161000
     61 H14        -2.6190    1.9470    4.4750 ha        1 JK1      0.189000
@<TRIPOS>BOND
     1    1   13 1   
     2    2   13 1   
     3    2   15 1   
     4    2   37 1   
     5    3   31 1   
     6    3   38 1   
     7    3   39 1   
     8    3   40 1   
     9    4   20 1   
    10    4   24 1   
    11    5   28 1   
    12    5   41 1   
    13    6   32 1   
    14    6   42 1   
    15    7   10 1   
    16    7   43 1   
    17    8   15 1   
    18    8   44 1   
    19    9   17 1   
    20    9   45 1   
    21   10   46 1   
    22   11   20 1   
    23   11   47 1   
    24   12   30 1   
    25   12   36 1   
    26   13   26 1   
    27   14   25 1   
    28   14   29 1   
    29   15   32 1   
    30   16   29 1   
    31   16   35 1   
    32   17   34 1   
    33   18   34 1   
    34   19   21 1   
    35   19   35 1   
    36   20   21 1   
    37   21   31 1   
    38   22   27 1   
    39   22   49 1   
    40   22   50 1   
    41   22   51 1   
    42   23   30 1   
    43   23   33 1   
    44   24   52 1   
    45   24   53 1   
    46   24   54 1   
    47   26   36 1   
    48   26   55 1   
    49   28   56 1   
    50   29   57 1   
    51   32   58 1   
    52   33   36 1   
    53   34   60 1   
    54   35   61 1   
@<TRIPOS>SUBSTRUCTURE
     1 JK1         1 TEMP              0 ****  ****    0 ROOT
