@<TRIPOS>MOLECULE
JK1
   61    63     1     0     0
SMALL
bcc


@<TRIPOS>ATOM
      1 O1         -0.0710    0.2820   -0.0930 o         1 JK1     -0.370000
      2 N2          1.7640   -0.4470   -1.3270 n         1 JK1     -0.307000
      3 C3         -6.1640   -1.8860   14.2240 c3        1 JK1     -0.075000
      4 O4         -2.8270   -0.9170   14.6920 os        1 JK1     -0.195000
      5 C5          0.0660    1.5310   -4.1630 c3        1 JK1     -0.103000
      6 C6          1.8950    0.2360   -4.8050 c1        1 JK1     -0.159000
      7 C7          0.5580    1.5310    9.3440 c1        1 JK1      0.221000
      8 C8          0.3670    0.9700   -2.7990 c2        1 JK1     -0.186000
      9 C10         0.5270    0.7500    8.2840 c2        1 JK1     -0.458000
     10 C11         2.1050   -1.1950    6.3810 c2        1 JK1     -0.264000
     11 C15        -2.1630   -0.6300   12.3530 ca        1 JK1     -0.267000
     12 C16         1.5750   -1.1730    3.4710 c2        1 JK1     -0.167000
     13 C17         0.9920   -0.3720   -0.1510 c2        1 JK1      0.393000
     14 C19         1.3230    0.0190   -2.5730 c2        1 JK1      0.033000
     15 C20        -2.5650   -0.4900   11.0020 ca        1 JK1      0.136000
     16 C22        -0.4430   -0.2280    7.8490 c2        1 JK1     -0.054000
     17 C23         0.8720   -0.9960    5.8680 c2        1 JK1      0.082000
     18 C24        -4.8880   -0.5830   11.7010 ca        1 JK1      0.118000
     19 C25        -3.1260   -0.7430   13.3570 ca        1 JK1      0.118000
     20 C26        -4.5030   -0.7030   13.0520 ca        1 JK1     -0.029000
     21 C1         -6.6730   -0.3590   10.1370 c3        1 JK1     -0.079000
     22 N1         -0.4960   -0.3370    3.9530 n2        1 JK1     -0.048000
     23 C2         -1.4660   -0.7250   15.0650 c3        1 JK1     -0.079000
     24 O2         -2.7960   -0.5740    8.0850 o         1 JK1     -0.329000
     25 N3          1.4700   -1.0940    0.9730 n         1 JK1     -0.280000
     26 O3         -6.2470   -0.6030   11.4750 os        1 JK1     -0.195000
     27 C4          1.2670    1.3730   -5.0590 c2        1 JK1     -0.107000
     28 N4         -1.5550   -0.3610   10.0320 n         1 JK1     -0.324000
     29 N5          0.6450   -0.8360    4.4750 na        1 JK1     -0.097000
     30 O5         -5.4280   -0.6700   14.0780 os        1 JK1     -0.191000
     31 C9          1.8970   -0.6220   -3.7950 c2        1 JK1     -0.110000
     32 C12        -0.3570   -0.3310    2.6120 c2        1 JK1     -0.136000
     33 C13        -0.3160   -0.9800    6.7380 c2        1 JK1     -0.060000
     34 C14        -3.9350   -0.4720   10.6820 ca        1 JK1     -0.267000
     35 C21         0.9570   -0.8630    2.2430 c2        1 JK1     -0.041000
     36 HN2         2.4820   -1.1370   -1.3780 hn        1 JK1      0.227000
     37 H3         -6.7300   -2.1110   13.2880 h1        1 JK1      0.079667
     38 H3A        -6.8610   -1.6710   15.0710 h1        1 JK1      0.079667
     39 H3B        -5.4760   -2.7280   14.4790 h1        1 JK1      0.079667
     40 H5         -0.1400    2.6310   -4.0660 hc        1 JK1      0.115000
     41 H6          1.5830    2.1830   -5.7190 ha        1 JK1      0.155000
     42 H7          3.0220   -1.2370    5.7820 ha        1 JK1      0.135000
     43 H8         -0.2590    1.3710   -1.9860 ha        1 JK1      0.175000
     44 H10         1.3850    0.8990    7.5780 ha        1 JK1      0.212000
     45 H11         2.2370   -1.3480    7.4600 ha        1 JK1      0.135000
     46 H15        -1.0960   -0.6490   12.6160 ha        1 JK1      0.159000
     47 H16         2.5460   -1.6070    3.6950 h4        1 JK1      0.179000
     48 H1         -6.3050    0.6320    9.7780 h1        1 JK1      0.086667
     49 H1A        -6.3260   -1.1770    9.4600 h1        1 JK1      0.086667
     50 H1B        -7.7890   -0.3610   10.2200 h1        1 JK1      0.086667
     51 H2         -0.8260   -1.5340   14.6360 h1        1 JK1      0.086667
     52 H2A        -1.1000    0.2800   14.7420 h1        1 JK1      0.086667
     53 H2B        -1.4940   -0.7960   16.1820 h1        1 JK1      0.086667
     54 HN3         2.4160   -1.4090    0.9630 hn        1 JK1      0.220000
     55 H4         -0.8600    1.0440   -4.5690 hc        1 JK1      0.115000
     56 HN4        -0.6260   -0.3200   10.3920 hn        1 JK1      0.235000
     57 H9          2.1220   -1.6900   -3.8180 ha        1 JK1      0.156000
     58 H12        -1.1270    0.0370    1.9280 h4        1 JK1      0.219000
     59 H13        -1.1490   -1.6420    6.4270 ha        1 JK1      0.179000
     60 H14        -4.2620   -0.3690    9.6360 ha        1 JK1      0.159000
     61 C18        -1.7050   -0.3960    8.6520 c2        1 JK1      0.343000
@<TRIPOS>BOND
     1    1   13 1   
     2    2   13 1   
     3    2   14 1   
     4    2   36 1   
     5    3   30 1   
     6    3   37 1   
     7    3   38 1   
     8    3   39 1   
     9    4   19 1   
    10    4   23 1   
    11    5    8 1   
    12    5   27 1   
    13    5   40 1   
    14    5   55 1   
    15    6   27 1   
    16    6   31 1   
    17    7    9 1   
    18    8   14 1   
    19    8   43 1   
    20    9   16 1   
    21    9   44 1   
    22   10   17 1   
    23   10   42 1   
    24   10   45 1   
    25   11   15 1   
    26   11   19 1   
    27   11   46 1   
    28   12   29 1   
    29   12   35 1   
    30   12   47 1   
    31   13   25 1   
    32   14   31 1   
    33   15   28 1   
    34   15   34 1   
    35   16   33 1   
    36   16   61 1   
    37   17   29 1   
    38   17   33 1   
    39   18   20 1   
    40   18   26 1   
    41   18   34 1   
    42   19   20 1   
    43   20   30 1   
    44   21   26 1   
    45   21   48 1   
    46   21   49 1   
    47   21   50 1   
    48   22   29 1   
    49   22   32 1   
    50   23   51 1   
    51   23   52 1   
    52   23   53 1   
    53   24   61 1   
    54   25   35 1   
    55   25   54 1   
    56   27   41 1   
    57   28   56 1   
    58   28   61 1   
    59   31   57 1   
    60   32   35 1   
    61   32   58 1   
    62   33   59 1   
    63   34   60 1   
@<TRIPOS>SUBSTRUCTURE
     1 JK1         1 TEMP              0 ****  ****    0 ROOT
