@<TRIPOS>MOLECULE
JK2
   63    53     1     0     0
SMALL
bcc


@<TRIPOS>ATOM
      1 C12        -0.9280    3.5110   -2.9920 c1        1 JK2     -0.123000
      2 C13        -2.6490    0.4940   -3.8610 c1        1 JK2     -0.143000
      3 C14        -0.7570   -2.6430    4.9500 c1        1 JK2     -0.200000
      4 C16        -1.3760    0.5050    0.1310 c1        1 JK2     -0.075000
      5 C18        -0.5160   -0.5850    2.2940 c1        1 JK2      0.353000
      6 C26        -0.8550    3.4190   -5.4190 c1        1 JK2      0.004000
      7 C27         0.0990   -1.7280    4.3260 c1        1 JK2      0.095000
      8 C31         0.6790    3.6240   -7.3560 c1        1 JK2      0.036000
      9 C35        -2.0300    1.6960   -4.1530 c1        1 JK2     -0.121000
     10 C36        -1.7040    2.3040   -2.9760 c1        1 JK2      0.003000
     11 F38         1.7100    5.5670   -6.4720 f         1 JK2     -0.113000
     12 C28         1.8150    4.4060   -7.1420 c2        1 JK2      0.028000
     13 C07         2.9990    4.0930   -7.7820 c2        1 JK2     -0.129000
     14 C04         3.0600    3.0010   -8.6410 c1        1 JK2     -0.144000
     15 C10         0.7380    2.5320   -8.2130 c1        1 JK2     -0.130250
     16 C05         1.9260    2.2190   -8.8560 c1        1 JK2     -0.130250
     17 N21        -0.4230    4.1090   -6.6230 n2        1 JK2     -0.236000
     18 C11        -0.5120    4.0560   -4.2130 c2        1 JK2     -0.128000
     19 C17        -1.5990    2.2620   -5.4040 c1        1 JK2     -0.064000
     20 N37        -2.1190    1.4820   -1.9460 n2        1 JK2     -0.125000
     21 N19        -2.7040    0.3640   -2.5060 n2        1 JK2     -0.023000
     22 C30        -2.2020    1.3920   -0.5610 c1        1 JK2      0.080000
     23 C09        -3.1050    2.2030    0.1400 c1        1 JK2     -0.130250
     24 C06        -3.1790    2.1250    1.5260 c1        1 JK2     -0.130250
     25 C29        -1.4470    0.4240    1.5180 c1        1 JK2     -0.114000
     26 C08        -2.3490    1.2340    2.2210 c1        1 JK2     -0.113000
     27 O22         0.2730   -1.3000    1.6690 o         1 JK2     -0.331000
     28 N20        -0.6590   -0.7450    3.6480 n3        1 JK2     -0.323000
     29 C15         1.4810   -1.8000    4.5420 c1        1 JK2     -0.168000
     30 C33         2.0080   -2.7900    5.3840 c1        1 JK2      0.085000
     31 O24         3.4300   -2.8570    5.6170 os        1 JK2     -0.220000
     32 C02         4.1290   -3.4900    4.6100 c3        1 JK2     -0.074000
     33 C34         1.1510   -3.7060    6.0080 c1        1 JK2     -0.031000
     34 O25         1.6770   -4.7260    6.8110 o         1 JK2     -0.227000
     35 C03         1.8060   -4.3740    8.1720 c3        1 JK2     -0.076000
     36 C32        -0.2320   -3.6320    5.7910 c2        1 JK2      0.072000
     37 O23        -1.1040   -4.5480    6.4510 os        1 JK2     -0.228000
     38 C01        -1.5790   -5.5970    5.6180 c3        1 JK2     -0.077000
     39 H12        -0.6910    3.9560   -2.1500 ha        1 JK2      0.146000
     40 H13        -2.9960   -0.1600   -4.5270 DU        1 JK2      0.191000
     41 H14        -1.7720   -2.5870    4.7900 ha        1 JK2      0.148000
     42 H16        -0.7590   -0.0280   -0.3410 ha        1 JK2      0.176000
     43 H07         3.7820    4.6320   -7.6340 ha        1 JK2      0.148000
     44 H04         3.9010    2.7810   -9.0940 ha        1 JK2      0.139000
     45 H10        -0.0850    1.9670   -8.3690 ha        1 JK2      0.144250
     46 H05         1.9670    1.4550   -9.4550 ha        1 JK2      0.144250
     47 HN21       -0.8750    4.8880   -6.9100 hn        1 JK2      0.211000
     48 H11         0.0740    4.8510   -4.2260 ha        1 JK2      0.138000
     49 H17        -1.8340    1.8040   -6.2690 ha        1 JK2      0.156000
     50 H09        -3.6890    2.8290   -0.3510 ha        1 JK2      0.144250
     51 H06        -3.8030    2.6860    2.0090 ha        1 JK2      0.144250
     52 H08        -2.4020    1.1750    3.2520 ha        1 JK2      0.145000
     53 HN20       -1.2570   -0.2810    4.0810 hn        1 JK2      0.236000
     54 H15         2.1080   -1.1290    4.0840 ha        1 JK2      0.188000
     55 H02         3.6590   -4.3570    4.3650 h1        1 JK2      0.085667
     56 H02A        4.1690   -2.8990    3.8160 h1        1 JK2      0.085667
     57 H02B        5.0800   -3.6960    4.9310 h1        1 JK2      0.085667
     58 H03         1.4880   -5.0870    8.7160 h1        1 JK2      0.085333
     59 H03A        2.7570   -4.2010    8.3780 h1        1 JK2      0.085333
     60 H03B        1.2980   -3.5930    8.3470 h1        1 JK2      0.085333
     61 H01        -2.4860   -5.3440    5.2440 h1        1 JK2      0.086333
     62 H01A       -0.9290   -5.7480    4.8570 h1        1 JK2      0.086333
     63 H01B       -1.6600   -6.4200    6.1430 h1        1 JK2      0.086333
@<TRIPOS>BOND
     1    1   18 1   
     2    1   39 1   
     3    2    9 1   
     4    2   21 1   
     5    3   36 1   
     6    3   41 1   
     7    4   22 1   
     8    4   42 1   
     9    5   27 1   
    10    5   28 1   
    11    6   18 1   
    12    6   19 1   
    13    7   28 1   
    14    7   29 1   
    15    8   12 1   
    16    8   17 1   
    17    9   10 1   
    18   11   12 1   
    19   12   13 1   
    20   13   14 1   
    21   13   43 1   
    22   14   44 1   
    23   15   16 1   
    24   15   45 1   
    25   16   46 1   
    26   17   47 1   
    27   18   48 1   
    28   19   49 1   
    29   20   21 1   
    30   20   22 1   
    31   23   24 1   
    32   23   50 1   
    33   24   51 1   
    34   25   26 1   
    35   26   52 1   
    36   28   53 1   
    37   29   54 1   
    38   30   31 1   
    39   30   33 1   
    40   31   32 1   
    41   32   55 1   
    42   32   56 1   
    43   32   57 1   
    44   33   36 1   
    45   34   35 1   
    46   35   58 1   
    47   35   59 1   
    48   35   60 1   
    49   36   37 1   
    50   37   38 1   
    51   38   61 1   
    52   38   62 1   
    53   38   63 1   
@<TRIPOS>SUBSTRUCTURE
     1 JK2         1 TEMP              0 ****  ****    0 ROOT
