@<TRIPOS>MOLECULE
JK2
   63    67     1     0     0
SMALL
bcc


@<TRIPOS>ATOM
      1 C12        -0.0820   -0.4620    0.2060 ca        1 JK2     -0.116000
      2 C13         3.2230   -0.9720   -1.1970 cc        1 JK2      0.352800
      3 C14         3.5840   -3.5970    8.4240 ca        1 JK2     -0.270500
      4 C16         3.3160   -1.1360    3.0540 ca        1 JK2     -0.076000
      5 C18         4.2560   -1.6790    5.2820 c         1 JK2      0.681700
      6 C26        -0.4630   -0.6920   -2.2150 ca        1 JK2      0.111600
      7 C27         4.3730   -3.0140    7.4020 ca        1 JK2      0.129600
      8 C31        -1.0910   -1.1200   -4.5540 ca        1 JK2      0.106600
      9 C35         1.7810   -0.8220   -1.3660 ca        1 JK2     -0.186900
     10 C36         1.2900   -0.6160   -0.0260 ca        1 JK2     -0.059200
     11 C28        -1.5710   -0.3690   -5.6700 ca        1 JK2      0.066900
     12 C07        -1.3250   -0.7980   -6.9830 ca        1 JK2     -0.135000
     13 C04        -0.5950   -1.9580   -7.2100 ca        1 JK2     -0.132000
     14 C10        -0.3590   -2.2970   -4.8250 ca        1 JK2     -0.138000
     15 C05        -0.1160   -2.7020   -6.1320 ca        1 JK2     -0.118000
     16 N21        -1.4330   -0.7550   -3.2400 nh        1 JK2     -0.610000
     17 C11        -0.9360   -0.4990   -0.8810 ca        1 JK2     -0.126000
     18 C17         0.9130   -0.8470   -2.4490 ca        1 JK2     -0.114000
     19 N37         2.4250   -0.6610    0.8200 na        1 JK2      0.144800
     20 N19         3.5550   -0.8670    0.1000 nd        1 JK2     -0.486100
     21 C30         2.4310   -0.4230    2.2180 ca        1 JK2      0.037800
     22 C09         1.5600    0.5320    2.7840 ca        1 JK2     -0.132000
     23 C06         1.5610    0.7420    4.1600 ca        1 JK2     -0.120000
     24 C29         3.2930   -0.9110    4.4320 ca        1 JK2     -0.134600
     25 C08         2.4190    0.0250    4.9910 ca        1 JK2     -0.117000
     26 O22         5.4480   -1.8040    4.9520 o         1 JK2     -0.573100
     27 N20         3.7160   -2.2360    6.4360 n         1 JK2     -0.468100
     28 C15         5.7660   -3.2130    7.4010 ca        1 JK2     -0.270500
     29 C33         6.3560   -4.0000    8.3970 ca        1 JK2      0.164100
     30 O24         7.7130   -4.2260    8.4850 os        1 JK2     -0.312400
     31 C02         8.5060   -3.7630    7.3940 c3        1 JK2      0.111200
     32 C34         5.5810   -4.6020    9.4090 ca        1 JK2      0.014100
     33 O25         6.1290   -5.4920   10.3130 os        1 JK2     -0.307900
     34 C03         6.8970   -4.8630   11.3400 c3        1 JK2      0.114700
     35 C32         4.1900   -4.3690    9.4170 ca        1 JK2      0.164100
     36 O23         3.5060   -4.9430   10.4680 os        1 JK2     -0.312400
     37 C01         2.0860   -4.9230   10.3840 c3        1 JK2      0.111200
     38 H12        -0.4780   -0.3300    1.2230 ha        1 JK2      0.144000
     39 H13         3.9650   -1.1460   -1.9770 h4        1 JK2      0.060800
     40 H16         4.0390   -1.8580    2.6380 ha        1 JK2      0.177000
     41 H07        -1.7140   -0.2010   -7.8220 ha        1 JK2      0.150000
     42 H04        -0.3980   -2.2880   -8.2410 ha        1 JK2      0.140000
     43 H10         0.0140   -2.9070   -3.9860 ha        1 JK2      0.151000
     44 H05         0.4570   -3.6240   -6.3140 ha        1 JK2      0.139000
     45 HN21       -2.1030   -0.0130   -3.1920 hn        1 JK2      0.421800
     46 H11        -2.0180   -0.3820   -0.7070 ha        1 JK2      0.142000
     47 H17         1.3110   -0.9860   -3.4660 ha        1 JK2      0.152000
     48 H09         0.8870    1.1240    2.1440 ha        1 JK2      0.150000
     49 H06         0.8810    1.4930    4.5920 ha        1 JK2      0.143000
     50 H08         2.4180    0.2180    6.0740 ha        1 JK2      0.143000
     51 HN20        2.7340   -2.1240    6.5700 hn        1 JK2      0.320500
     52 H15         6.3930   -2.7600    6.6180 ha        1 JK2      0.158000
     53 H02         9.5300   -4.1360    7.6480 h1        1 JK2      0.046867
     54 H02A        8.1520   -4.2020    6.4300 h1        1 JK2      0.046867
     55 H02B        8.4920   -2.6470    7.3470 h1        1 JK2      0.046867
     56 H03         7.2690   -5.7210   11.9530 h1        1 JK2      0.040033
     57 H03A        7.7480   -4.2930   10.8930 h1        1 JK2      0.040033
     58 H03B        6.2510   -4.1890   11.9510 h1        1 JK2      0.040033
     59 H01         1.7030   -3.8770   10.4720 h1        1 JK2      0.046867
     60 H01A        1.7680   -5.5330   11.2680 h1        1 JK2      0.046867
     61 H01B        1.7330   -5.3920    9.4340 h1        1 JK2      0.046867
     62 F38        -2.2870    0.7670   -5.4660 f         1 JK2     -0.146900
     63 H14         2.4960   -3.4430    8.4410 ha        1 JK2      0.158000
@<TRIPOS>BOND
     1    1   10 ar  
     2    1   17 ar  
     3    1   38 1   
     4    2    9 1   
     5    2   20 2   
     6    2   39 1   
     7    3    7 ar  
     8    3   35 ar  
     9    3   63 1   
    10    4   21 ar  
    11    4   24 ar  
    12    4   40 1   
    13    5   24 1   
    14    5   26 2   
    15    5   27 1   
    16    6   16 1   
    17    6   17 ar  
    18    6   18 ar  
    19    7   27 1   
    20    7   28 ar  
    21    8   11 ar  
    22    8   14 ar  
    23    8   16 1   
    24    9   10 ar  
    25    9   18 ar  
    26   10   19 1   
    27   11   12 ar  
    28   11   62 1   
    29   12   13 ar  
    30   12   41 1   
    31   13   15 ar  
    32   13   42 1   
    33   14   15 ar  
    34   14   43 1   
    35   15   44 1   
    36   16   45 1   
    37   17   46 1   
    38   18   47 1   
    39   19   20 1   
    40   19   21 1   
    41   21   22 ar  
    42   22   23 ar  
    43   22   48 1   
    44   23   25 ar  
    45   23   49 1   
    46   24   25 ar  
    47   25   50 1   
    48   27   51 1   
    49   28   29 ar  
    50   28   52 1   
    51   29   30 1   
    52   29   32 ar  
    53   30   31 1   
    54   31   53 1   
    55   31   54 1   
    56   31   55 1   
    57   32   33 1   
    58   32   35 ar  
    59   33   34 1   
    60   34   56 1   
    61   34   57 1   
    62   34   58 1   
    63   35   36 1   
    64   36   37 1   
    65   37   59 1   
    66   37   60 1   
    67   37   61 1   
@<TRIPOS>SUBSTRUCTURE
     1 JK2         1 TEMP              0 ****  ****    0 ROOT
