@<TRIPOS>MOLECULE
JK2
   63    67     1     0     0
SMALL
bcc


@<TRIPOS>ATOM
      1 C12         3.6470    1.5020    0.4650 ca        1 JK2     -0.125000
      2 C13         3.3480   -1.7060    2.1320 cc        1 JK2      0.357800
      3 C14        -5.7450    0.9410   -1.0560 ca        1 JK2     -0.270500
      4 C16        -0.4700    0.0580    1.4780 ca        1 JK2     -0.075000
      5 C18        -2.9390    0.1080    1.2760 c         1 JK2      0.681700
      6 C26         5.9140    0.5470    0.3910 ca        1 JK2      0.085600
      7 C27        -5.0880    0.2460   -0.0110 ca        1 JK2      0.128600
      8 C31         7.8880   -0.0560   -0.9360 ca        1 JK2      0.117600
      9 C35         4.1580   -0.7010    1.4510 ca        1 JK2     -0.204900
     10 C36         3.2250    0.3600    1.1570 ca        1 JK2     -0.044200
     11 C28         9.1320    0.3700   -1.4990 ca        1 JK2      0.062900
     12 C07         9.8100   -0.4330   -2.4270 ca        1 JK2     -0.129000
     13 C04         9.2700   -1.6520   -2.8230 ca        1 JK2     -0.144000
     14 C10         7.3640   -1.2890   -1.3760 ca        1 JK2     -0.162000
     15 C05         8.0490   -2.0710   -2.3000 ca        1 JK2     -0.108000
     16 N21         7.2850    0.7180    0.0710 nh        1 JK2     -0.604000
     17 C11         4.9780    1.5790    0.0910 ca        1 JK2     -0.128000
     18 C17         5.4920   -0.6020    1.0810 ca        1 JK2     -0.063000
     19 N37         1.9720   -0.0690    1.6550 na        1 JK2      0.143800
     20 N19         2.0760   -1.2930    2.2330 nd        1 JK2     -0.485100
     21 C30         0.7750    0.6930    1.6670 ca        1 JK2      0.035800
     22 C09         0.8190    2.0880    1.8750 ca        1 JK2     -0.131000
     23 C06        -0.3600    2.8270    1.8650 ca        1 JK2     -0.121000
     24 C29        -1.6380    0.8230    1.4660 ca        1 JK2     -0.134600
     25 C08        -1.5910    2.2060    1.6590 ca        1 JK2     -0.116000
     26 O22        -3.1890   -0.9450    1.8870 o         1 JK2     -0.573100
     27 N20        -3.8150    0.6990    0.3730 n         1 JK2     -0.468100
     28 C15        -5.7270   -0.8440    0.6090 ca        1 JK2     -0.270500
     29 C33        -6.9970   -1.2410    0.1760 ca        1 JK2      0.164100
     30 O24        -7.7040   -2.2800    0.7430 os        1 JK2     -0.311900
     31 C02        -7.0090   -3.0740    1.7010 c3        1 JK2      0.111200
     32 C34        -7.6550   -0.5720   -0.8750 ca        1 JK2      0.014100
     33 O25        -8.8420   -1.0380   -1.4060 os        1 JK2     -0.307900
     34 C03        -9.9800   -0.7700   -0.5840 c3        1 JK2      0.114700
     35 C32        -7.0160    0.5380   -1.4680 ca        1 JK2      0.164100
     36 O23        -7.7440    1.1770   -2.4500 os        1 JK2     -0.311900
     37 C01        -7.0490    2.1510   -3.2200 c3        1 JK2      0.111200
     38 H12         2.9450    2.3080    0.2090 ha        1 JK2      0.145000
     39 H13         3.6820   -2.6700    2.5220 h4        1 JK2      0.061800
     40 H16        -0.5410   -1.0370    1.3560 ha        1 JK2      0.177000
     41 H07        10.7700   -0.0820   -2.8360 ha        1 JK2      0.148000
     42 H04         9.8070   -2.2790   -3.5490 ha        1 JK2      0.139000
     43 H10         6.3950   -1.6410   -0.9880 ha        1 JK2      0.146000
     44 H05         7.6150   -3.0310   -2.6190 ha        1 JK2      0.137000
     45 HN21        7.5590    1.6820    0.0360 hn        1 JK2      0.416800
     46 H11         5.3190    2.4740   -0.4540 ha        1 JK2      0.138000
     47 H17         6.1990   -1.4090    1.3300 ha        1 JK2      0.156000
     48 H09         1.7780    2.5960    2.0590 ha        1 JK2      0.151000
     49 H06        -0.3180    3.9140    2.0340 ha        1 JK2      0.143000
     50 H08        -2.5140    2.8050    1.6740 ha        1 JK2      0.143000
     51 HN20       -3.4870    1.5100   -0.1060 hn        1 JK2      0.320500
     52 H15        -5.2320   -1.3880    1.4280 ha        1 JK2      0.158000
     53 H02        -6.7740   -2.4700    2.6110 h1        1 JK2      0.046867
     54 H02A       -7.7430   -3.8840    1.9420 h1        1 JK2      0.046867
     55 H02B       -6.0760   -3.5020    1.2610 h1        1 JK2      0.046867
     56 H03        -9.8600   -1.2570    0.4140 h1        1 JK2      0.040367
     57 H03A      -10.1260    0.3300   -0.4700 h1        1 JK2      0.040367
     58 H03B      -10.8280   -1.2270   -1.1530 h1        1 JK2      0.040367
     59 H01        -7.7940    2.4380   -4.0040 h1        1 JK2      0.046867
     60 H01A       -6.7850    3.0340   -2.5880 h1        1 JK2      0.046867
     61 H01B       -6.1330    1.7140   -3.6870 h1        1 JK2      0.046867
     62 F38         9.6700    1.5650   -1.1420 f         1 JK2     -0.147900
     63 H14        -5.2600    1.7980   -1.5430 ha        1 JK2      0.158000
@<TRIPOS>BOND
     1    1   10 ar  
     2    1   17 ar  
     3    1   38 1   
     4    2    9 1   
     5    2   20 2   
     6    2   39 1   
     7    3    7 ar  
     8    3   35 ar  
     9    3   63 1   
    10    4   21 ar  
    11    4   24 ar  
    12    4   40 1   
    13    5   24 1   
    14    5   26 2   
    15    5   27 1   
    16    6   16 1   
    17    6   17 ar  
    18    6   18 ar  
    19    7   27 1   
    20    7   28 ar  
    21    8   11 ar  
    22    8   14 ar  
    23    8   16 1   
    24    9   10 ar  
    25    9   18 ar  
    26   10   19 1   
    27   11   12 ar  
    28   11   62 1   
    29   12   13 ar  
    30   12   41 1   
    31   13   15 ar  
    32   13   42 1   
    33   14   15 ar  
    34   14   43 1   
    35   15   44 1   
    36   16   45 1   
    37   17   46 1   
    38   18   47 1   
    39   19   20 1   
    40   19   21 1   
    41   21   22 ar  
    42   22   23 ar  
    43   22   48 1   
    44   23   25 ar  
    45   23   49 1   
    46   24   25 ar  
    47   25   50 1   
    48   27   51 1   
    49   28   29 ar  
    50   28   52 1   
    51   29   30 1   
    52   29   32 ar  
    53   30   31 1   
    54   31   53 1   
    55   31   54 1   
    56   31   55 1   
    57   32   33 1   
    58   32   35 ar  
    59   33   34 1   
    60   34   56 1   
    61   34   57 1   
    62   34   58 1   
    63   35   36 1   
    64   36   37 1   
    65   37   59 1   
    66   37   60 1   
    67   37   61 1   
@<TRIPOS>SUBSTRUCTURE
     1 JK2         1 TEMP              0 ****  ****    0 ROOT
