@<TRIPOS>MOLECULE
JK2
   63    67     1     0     0
SMALL
bcc


@<TRIPOS>ATOM
      1 C12        -0.1030   -0.5610    0.2890 ca        1 JK2     -0.115000
      2 C13         3.2680   -0.7540   -1.0330 cc        1 JK2      0.352800
      3 C14         3.6640   -3.2390    8.6300 ca        1 JK2     -0.270500
      4 C16         3.2770   -0.8770    3.2210 ca        1 JK2     -0.076000
      5 C18         4.2150   -1.3040    5.4750 c         1 JK2      0.681700
      6 C26        -0.4020   -0.8420   -2.1380 ca        1 JK2      0.111600
      7 C27         4.4150   -2.5970    7.6150 ca        1 JK2      0.129600
      8 C31        -0.9290   -1.3390   -4.4890 ca        1 JK2      0.106600
      9 C35         1.8230   -0.7470   -1.2360 ca        1 JK2     -0.186900
     10 C36         1.2830   -0.5810    0.0900 ca        1 JK2     -0.059200
     11 C28        -1.4540   -0.6420   -5.6190 ca        1 JK2      0.066900
     12 C07        -1.1350   -1.0500   -6.9240 ca        1 JK2     -0.135000
     13 C04        -0.2900   -2.1340   -7.1270 ca        1 JK2     -0.132000
     14 C10        -0.0800   -2.4400   -4.7350 ca        1 JK2     -0.138000
     15 C05         0.2330   -2.8240   -6.0330 ca        1 JK2     -0.118000
     16 N21        -1.3370   -1.0050   -3.1850 nu        1 JK2     -0.610000
     17 C11        -0.9230   -0.6870   -0.8170 ca        1 JK2     -0.126000
     18 C17         0.9880   -0.8630   -2.3390 ca        1 JK2     -0.114000
     19 N37         2.3960   -0.5110    0.9620 na        1 JK2      0.144800
     20 N19         3.5580   -0.6100    0.2700 nd        1 JK2     -0.486100
     21 C30         2.3460   -0.2610    2.3580 ca        1 JK2      0.037800
     22 C09         1.3730    0.6080    2.8930 ca        1 JK2     -0.132000
     23 C06         1.3210    0.8300    4.2660 ca        1 JK2     -0.120000
     24 C29         3.2000   -0.6420    4.5960 ca        1 JK2     -0.134600
     25 C08         2.2260    0.2080    5.1240 ca        1 JK2     -0.117000
     26 O22         5.4200   -1.3150    5.1710 o         1 JK2     -0.573100
     27 N20         3.7060   -1.8980    6.6240 ns        1 JK2     -0.468100
     28 C15         5.8200   -2.6630    7.6430 ca        1 JK2     -0.270500
     29 C33         6.4620   -3.3760    8.6620 ca        1 JK2      0.164100
     30 O24         7.8320   -3.4710    8.7790 os        1 JK2     -0.312400
     31 C02         8.5990   -2.9490    7.6970 c3        1 JK2      0.111200
     32 C34         5.7280   -4.0360    9.6680 ca        1 JK2      0.014100
     33 O25         6.3380   -4.8570   10.5960 os        1 JK2     -0.307900
     34 C03         7.0230   -4.1440   11.6270 c3        1 JK2      0.114700
     35 C32         4.3200   -3.9360    9.6460 ca        1 JK2      0.164100
     36 O23         3.6730   -4.5590   10.6930 os        1 JK2     -0.312400
     37 C01         2.2590   -4.6740   10.5820 c3        1 JK2      0.111200
     38 H12        -0.5340   -0.4620    1.2960 ha        1 JK2      0.144000
     39 H13         4.0420   -0.8600   -1.7950 h4        1 JK2      0.060800
     40 H16         4.0770   -1.5280    2.8290 ha        1 JK2      0.177000
     41 H07        -1.5600   -0.4970   -7.7750 ha        1 JK2      0.150000
     42 H04        -0.0380   -2.4470   -8.1510 ha        1 JK2      0.140000
     43 H10         0.3300   -3.0080   -3.8840 ha        1 JK2      0.151000
     44 H05         0.8970   -3.6860   -6.1960 ha        1 JK2      0.139000
     45 HN21       -2.0790   -0.3320   -3.1570 hn        1 JK2      0.421800
     46 H11        -2.0150   -0.6760   -0.6680 ha        1 JK2      0.142000
     47 H17         1.4210   -0.9690   -3.3450 ha        1 JK2      0.152000
     48 H09         0.6610    1.1260    2.2320 ha        1 JK2      0.150000
     49 H06         0.5620    1.5140    4.6750 ha        1 JK2      0.143000
     50 H08         2.1820    0.4100    6.2050 ha        1 JK2      0.142000
     51 HN20        2.7160   -1.8810    6.7370 hn        1 JK2      0.320500
     52 H15         6.4170   -2.1620    6.8650 ha        1 JK2      0.158000
     53 H02         9.6500   -3.2190    7.9750 h1        1 JK2      0.046867
     54 H02A        8.4800   -1.8400    7.6330 h1        1 JK2      0.046867
     55 H02B        8.3090   -3.4330    6.7330 h1        1 JK2      0.046867
     56 H03         6.3040   -3.5270   12.2160 h1        1 JK2      0.040033
     57 H03A        7.8250   -3.5020   11.1880 h1        1 JK2      0.040033
     58 H03B        7.4620   -4.9560   12.2590 h1        1 JK2      0.040033
     59 H01         1.7780   -3.6680   10.6470 h1        1 JK2      0.046867
     60 H01A        1.9710   -5.1870    9.6330 h1        1 JK2      0.046867
     61 H01B        1.9830   -5.3000   11.4690 h1        1 JK2      0.046867
     62 F38        -2.2820    0.4190   -5.4390 f         1 JK2     -0.146900
     63 H14         2.5670   -3.1880    8.6240 ha        1 JK2      0.158000
@<TRIPOS>BOND
     1    1   10 ar  
     2    1   17 ar  
     3    1   38 1   
     4    2    9 1   
     5    2   20 2   
     6    2   39 1   
     7    3    7 ar  
     8    3   35 ar  
     9    3   63 1   
    10    4   21 ar  
    11    4   24 ar  
    12    4   40 1   
    13    5   24 1   
    14    5   26 2   
    15    5   27 1   
    16    6   16 1   
    17    6   17 ar  
    18    6   18 ar  
    19    7   27 1   
    20    7   28 ar  
    21    8   11 ar  
    22    8   14 ar  
    23    8   16 1   
    24    9   10 ar  
    25    9   18 ar  
    26   10   19 1   
    27   11   12 ar  
    28   11   62 1   
    29   12   13 ar  
    30   12   41 1   
    31   13   15 ar  
    32   13   42 1   
    33   14   15 ar  
    34   14   43 1   
    35   15   44 1   
    36   16   45 1   
    37   17   46 1   
    38   18   47 1   
    39   19   20 1   
    40   19   21 1   
    41   21   22 ar  
    42   22   23 ar  
    43   22   48 1   
    44   23   25 ar  
    45   23   49 1   
    46   24   25 ar  
    47   25   50 1   
    48   27   51 1   
    49   28   29 ar  
    50   28   52 1   
    51   29   30 1   
    52   29   32 ar  
    53   30   31 1   
    54   31   53 1   
    55   31   54 1   
    56   31   55 1   
    57   32   33 1   
    58   32   35 ar  
    59   33   34 1   
    60   34   56 1   
    61   34   57 1   
    62   34   58 1   
    63   35   36 1   
    64   36   37 1   
    65   37   59 1   
    66   37   60 1   
    67   37   61 1   
@<TRIPOS>SUBSTRUCTURE
     1 JK2         1 TEMP              0 ****  ****    0 ROOT
