@<TRIPOS>MOLECULE
JK2
   65    69     1     0     0
SMALL
bcc


@<TRIPOS>ATOM
      1 C12        -0.3140   -0.1320   -0.8650 ca        1 JK2     -0.117000
      2 C13         3.0610   -1.2260   -1.6810 cc        1 JK2      0.400800
      3 C14        -0.7760   -4.2380    6.6160 ca        1 JK2     -0.182500
      4 C16         0.1440   -2.0920    1.7680 ca        1 JK2     -0.074000
      5 C18        -1.5150   -2.9230    3.3470 c         1 JK2      0.579700
      6 C26         0.0350    0.5570   -3.1800 ca        1 JK2     -0.088400
      7 C27        -1.4570   -4.3190    5.3950 ca        1 JK2     -0.059400
      8 C31        -0.8110    0.3530   -5.4840 ca        1 JK2     -0.102400
      9 C35         1.8040   -0.5870   -2.0630 ca        1 JK2     -0.212900
     10 C36         0.9840   -0.6700   -0.8700 ca        1 JK2      0.000800
     11 C28         0.1300    0.1440   -6.5280 ca        1 JK2      0.154900
     12 C07        -0.2060   -0.6850   -7.6120 ca        1 JK2     -0.130000
     13 C04        -1.4530   -1.3020   -7.6490 ca        1 JK2     -0.045000
     14 C10        -2.0630   -0.2840   -5.5370 ca        1 JK2     -0.077000
     15 C05        -2.3750   -1.1030   -6.6180 ca        1 JK2     -0.113000
     16 N21        -0.4860    1.2480   -4.3690 n4        1 JK2     -0.484800
     17 C11        -0.7760    0.4730   -2.0200 ca        1 JK2     -0.076000
     18 C17         1.3300    0.0200   -3.2150 ca        1 JK2      0.000000
     19 N37         1.7700   -1.3230    0.0950 na        1 JK2      0.148800
     20 N19         3.0000   -1.6360   -0.4080 nd        1 JK2     -0.463100
     21 C30         1.4240   -1.6090    1.4440 ca        1 JK2      0.025800
     22 C09         2.3900   -1.4540    2.4660 ca        1 JK2     -0.041000
     23 C06         2.0660   -1.7850    3.7790 ca        1 JK2     -0.111000
     24 C29        -0.1660   -2.4080    3.1040 ca        1 JK2     -0.173600
     25 C08         0.8000   -2.2630    4.1070 ca        1 JK2     -0.073000
     26 O22        -2.3600   -3.2160    2.5070 o         1 JK2     -0.444100
     27 N20        -1.9810   -3.0960    4.7790 n4        1 JK2     -0.528200
     28 C15        -1.6820   -5.5520    4.7580 ca        1 JK2     -0.182500
     29 C33        -1.2030   -6.7150    5.3560 ca        1 JK2      0.115600
     30 O24        -1.3440   -7.9750    4.8360 os        1 JK2     -0.294900
     31 C02        -2.1500   -8.1040    3.6650 c3        1 JK2      0.103700
     32 C34        -0.4970   -6.6690    6.5990 ca        1 JK2      0.166100
     33 O25        -0.0640   -7.8830    7.0320 os        1 JK2     -0.273900
     34 C03         0.5080   -7.9920    8.3390 c3        1 JK2      0.114700
     35 C32        -0.2990   -5.4120    7.2140 ca        1 JK2      0.115600
     36 O23         0.4160   -5.4060    8.3920 os        1 JK2     -0.294900
     37 C01         0.2530   -4.2690    9.2390 c3        1 JK2      0.103700
     38 H12        -0.9480   -0.1760    0.0340 ha        1 JK2      0.163000
     39 H13         3.9500   -1.3730   -2.3040 h4        1 JK2      0.091800
     40 H16        -0.6200   -2.2470    0.9860 ha        1 JK2      0.171000
     41 H07         0.5280   -0.8330   -8.4230 ha        1 JK2      0.192000
     42 H04        -1.7150   -1.9510   -8.5040 ha        1 JK2      0.183000
     43 H10        -2.8050   -0.1390   -4.7340 ha        1 JK2      0.157000
     44 H05        -3.3620   -1.5950   -6.6590 ha        1 JK2      0.178000
     45 HN21       -1.3360    1.7670   -4.1100 hn        1 JK2      0.466300
     46 H11        -1.7950    0.8990   -2.0200 ha        1 JK2      0.156000
     47 H17         1.9630    0.0750   -4.1180 ha        1 JK2      0.177000
     48 H09         3.4070   -1.0880    2.2340 ha        1 JK2      0.189000
     49 H06         2.8300   -1.6740    4.5690 ha        1 JK2      0.179000
     50 H08         0.5980   -2.5480    5.1530 ha        1 JK2      0.150000
     51 HN20       -3.0120   -3.1580    4.7800 hn        1 JK2      0.464300
     52 H15        -2.2310   -5.6070    3.8040 ha        1 JK2      0.159000
     53 H02        -3.1850   -7.7310    3.8530 h1        1 JK2      0.059867
     54 H02A       -2.1520   -9.2120    3.4890 h1        1 JK2      0.059867
     55 H02B       -1.6790   -7.5680    2.8060 h1        1 JK2      0.059867
     56 H03         1.4720   -7.4310    8.3860 h1        1 JK2      0.069367
     57 H03A       -0.2070   -7.6270    9.1130 h1        1 JK2      0.069367
     58 H03B        0.6790   -9.0970    8.4330 h1        1 JK2      0.069367
     59 H01        -0.8270   -4.0430    9.4070 h1        1 JK2      0.059867
     60 H01A        0.7850   -3.3880    8.8040 h1        1 JK2      0.059867
     61 H01B        0.7460   -4.5920   10.1920 h1        1 JK2      0.059867
     62 F38         1.3390    0.7500   -6.4810 f         1 JK2     -0.122900
     63 H212        0.2290    1.9200   -4.6890 hn        1 JK2      0.466300
     64 H202       -1.6940   -2.2830    5.3340 hn        1 JK2      0.464300
     65 H14        -0.6130   -3.2730    7.1220 ha        1 JK2      0.159000
@<TRIPOS>BOND
     1    1   10 ar  
     2    1   17 ar  
     3    1   38 1   
     4    2    9 1   
     5    2   20 2   
     6    2   39 1   
     7    3    7 ar  
     8    3   35 ar  
     9    3   65 1   
    10    4   21 ar  
    11    4   24 ar  
    12    4   40 1   
    13    5   24 1   
    14    5   26 2   
    15    5   27 1   
    16    6   16 1   
    17    6   17 ar  
    18    6   18 ar  
    19    7   27 1   
    20    7   28 ar  
    21    8   11 ar  
    22    8   14 ar  
    23    8   16 1   
    24    9   10 ar  
    25    9   18 ar  
    26   10   19 1   
    27   11   12 ar  
    28   11   62 1   
    29   12   13 ar  
    30   12   41 1   
    31   13   15 ar  
    32   13   42 1   
    33   14   15 ar  
    34   14   43 1   
    35   15   44 1   
    36   16   45 1   
    37   16   63 1   
    38   17   46 1   
    39   18   47 1   
    40   19   20 1   
    41   19   21 1   
    42   21   22 ar  
    43   22   23 ar  
    44   22   48 1   
    45   23   25 ar  
    46   23   49 1   
    47   24   25 ar  
    48   25   50 1   
    49   27   51 1   
    50   27   64 1   
    51   28   29 ar  
    52   28   52 1   
    53   29   30 1   
    54   29   32 ar  
    55   30   31 1   
    56   31   53 1   
    57   31   54 1   
    58   31   55 1   
    59   32   33 1   
    60   32   35 ar  
    61   33   34 1   
    62   34   56 1   
    63   34   57 1   
    64   34   58 1   
    65   35   36 1   
    66   36   37 1   
    67   37   59 1   
    68   37   60 1   
    69   37   61 1   
@<TRIPOS>SUBSTRUCTURE
     1 JK2         1 TEMP              0 ****  ****    0 ROOT
