@<TRIPOS>MOLECULE
JK3
   42    44     1     0     0
SMALL
bcc


@<TRIPOS>ATOM
      1 CL15       -4.9770    1.6740    0.5160 cl        1 JK3     -0.091400
      2 C01         3.7850    1.4210   -1.0340 cc        1 JK3     -0.176300
      3 C02         4.4590    0.1520   -0.9060 cc        1 JK3     -0.227300
      4 C03         3.5360   -0.7430   -0.3880 cd        1 JK3      0.290900
      5 O05         2.3070   -0.1000   -0.1820 os        1 JK3     -0.341800
      6 C06         2.4890    1.2280   -0.5870 cd        1 JK3      0.192200
      7 C07         1.3620    2.1810   -0.4980 c         1 JK3      0.599600
      8 O08         1.5350    3.3540   -0.8820 o         1 JK3     -0.583100
      9 C10        -1.0320    2.4130    0.1320 ca        1 JK3      0.093600
     10 C11        -1.0530    3.8230    0.1530 ca        1 JK3     -0.154000
     11 C12        -2.2490    4.5180    0.2760 ca        1 JK3     -0.099000
     12 C13        -3.4540    3.8370    0.3890 ca        1 JK3     -0.147000
     13 C14        -3.4600    2.4410    0.3760 ca        1 JK3      0.018400
     14 C16        -2.2720    1.6900    0.2460 ca        1 JK3      0.065600
     15 N17        -2.2220    0.2640    0.2240 nh        1 JK3     -0.662000
     16 C18        -2.8070   -0.3590   -0.9530 c3        1 JK3      0.183300
     17 C19        -2.5410   -1.8780   -0.9890 c3        1 JK3      0.164800
     18 C20        -2.5880   -0.3900    1.4700 c3        1 JK3      0.183300
     19 C21        -2.3210   -1.9090    1.4210 c3        1 JK3      0.164800
     20 N22        -2.9080   -2.5480    0.2510 n3        1 JK3     -0.722600
     21 C23        -2.6200   -3.9800    0.2290 c3        1 JK3      0.248900
     22 C24        -3.2580   -4.6970   -0.8510 c1        1 JK3     -0.141100
     23 C25        -3.7780   -5.3280   -1.7230 c1        1 JK3     -0.145500
     24 H01         4.2140    2.3480   -1.4090 ha        1 JK3      0.186000
     25 H02         5.4950   -0.0480   -1.1690 ha        1 JK3      0.178000
     26 HN09        0.1320    0.7220    0.2260 hn        1 JK3      0.349500
     27 H11        -0.1120    4.3930    0.0660 ha        1 JK3      0.174000
     28 H12        -2.2370    5.6190    0.2860 ha        1 JK3      0.143000
     29 H13        -4.4000    4.3920    0.4870 ha        1 JK3      0.150000
     30 H18        -3.9200   -0.1890   -1.0150 h1        1 JK3      0.048450
     31 H18A       -2.3310    0.1000   -1.8630 h1        1 JK3      0.048450
     32 H19        -3.1690   -2.3170   -1.8140 h1        1 JK3      0.040450
     33 H19A       -1.4550   -2.0500   -1.2500 h1        1 JK3      0.040450
     34 H20        -1.9560    0.0470    2.2920 h1        1 JK3      0.048450
     35 H20A       -3.6720   -0.2270    1.7370 h1        1 JK3      0.048450
     36 H21        -1.2070   -2.0850    1.4800 h1        1 JK3      0.040450
     37 H21A       -2.7930   -2.3660    2.3370 h1        1 JK3      0.040450
     38 H23        -1.5050   -4.1810    0.1720 h1        1 JK3      0.050700
     39 H23A       -2.9940   -4.4080    1.2080 h1        1 JK3      0.050700
     40 H25        -4.2370   -5.8900   -2.4960 ha        1 JK3      0.165500
     41 N09         0.1780    1.7040    0.0380 n         1 JK3     -0.446100
     42 BR04        3.6750   -2.5280    0.0380 br        1 JK3     -0.073200
@<TRIPOS>BOND
     1    1   13 1   
     2    2    3 1   
     3    2    6 2   
     4    2   24 1   
     5    3    4 2   
     6    3   25 1   
     7    4    5 1   
     8    4   42 1   
     9    5    6 1   
    10    6    7 1   
    11    7    8 2   
    12    7   41 1   
    13    9   10 ar  
    14    9   14 ar  
    15    9   41 1   
    16   10   11 ar  
    17   10   27 1   
    18   11   12 ar  
    19   11   28 1   
    20   12   13 ar  
    21   12   29 1   
    22   13   14 ar  
    23   14   15 1   
    24   15   16 1   
    25   15   18 1   
    26   16   17 1   
    27   16   30 1   
    28   16   31 1   
    29   17   20 1   
    30   17   32 1   
    31   17   33 1   
    32   18   19 1   
    33   18   34 1   
    34   18   35 1   
    35   19   20 1   
    36   19   36 1   
    37   19   37 1   
    38   20   21 1   
    39   21   22 1   
    40   21   38 1   
    41   21   39 1   
    42   22   23 3   
    43   23   40 1   
    44   26   41 1   
@<TRIPOS>SUBSTRUCTURE
     1 JK3         1 TEMP              0 ****  ****    0 ROOT
