@<TRIPOS>MOLECULE
JK3
   43    45     1     0     0
SMALL
bcc


@<TRIPOS>ATOM
      1 CL15        0.4830    0.0780    0.6370 cl        1 JK3     -0.018400
      2 C01         8.1010    2.1070   -1.6010 cc        1 JK3     -0.067300
      3 C02         9.3280    1.5910   -1.0600 cc        1 JK3     -0.233300
      4 C03         9.0950    0.2680   -0.7000 cd        1 JK3      0.353900
      5 O05         7.7680   -0.0800   -0.9870 os        1 JK3     -0.370800
      6 C06         7.1750    1.0690   -1.5450 cd        1 JK3      0.103200
      7 C07         5.7990    1.0130   -1.9630 c         1 JK3      0.494600
      8 O08         5.1500    1.9150   -2.4780 o         1 JK3     -0.416100
      9 C10         4.2840   -0.3210   -0.5430 ca        1 JK3     -0.038400
     10 C11         4.9410   -0.4850    0.6860 ca        1 JK3     -0.105000
     11 C12         4.2010   -0.4880    1.8630 ca        1 JK3     -0.103000
     12 C13         2.8200   -0.3170    1.8230 ca        1 JK3     -0.068000
     13 C14         2.1580   -0.1540    0.6000 ca        1 JK3      0.000400
     14 C16         2.8660   -0.1730   -0.6240 ca        1 JK3      0.153600
     15 N17         2.2930   -0.0680   -1.9260 nh        1 JK3     -0.684000
     16 C18         1.7990    1.2670   -2.2580 c3        1 JK3      0.169300
     17 C19         1.2650    1.3510   -3.7030 c3        1 JK3      0.168800
     18 C20         1.3710   -1.1450   -2.2760 c3        1 JK3      0.169300
     19 C21         0.8570   -1.0240   -3.7260 c3        1 JK3      0.168800
     20 N22         0.3140    0.2950   -4.0060 n3        1 JK3     -0.728600
     21 C23        -0.2420    0.3800   -5.3560 c3        1 JK3      0.256900
     22 C24        -0.8430    1.6530   -5.6700 c1        1 JK3     -0.167100
     23 C25        -1.3660    2.6850   -5.9700 c1        1 JK3     -0.111500
     24 H01         7.9340    3.1170   -1.9830 ha        1 JK3      0.205000
     25 H02        10.2630    2.1460   -0.9570 ha        1 JK3      0.209000
     26 HN09        4.4550   -0.4610   -2.5830 hn        1 JK3      0.478300
     27 H11         6.0370   -0.6080    0.7280 ha        1 JK3      0.162000
     28 H12         4.7130   -0.6220    2.8310 ha        1 JK3      0.173000
     29 H13         2.2410   -0.3060    2.7640 ha        1 JK3      0.181000
     30 H18         0.9840    1.5950   -1.5520 h1        1 JK3      0.058200
     31 H18A        2.6640    1.9840   -2.1640 h1        1 JK3      0.058200
     32 H19         0.7350    2.3390   -3.8110 h1        1 JK3      0.049200
     33 H19A        2.1420    1.3460   -4.4150 h1        1 JK3      0.049200
     34 H20         1.9270   -2.1200   -2.1820 h1        1 JK3      0.058200
     35 H20A        0.4800   -1.1810   -1.5860 h1        1 JK3      0.058200
     36 H21         1.6920   -1.2990   -4.4350 h1        1 JK3      0.049200
     37 H21A        0.0320   -1.7800   -3.8530 h1        1 JK3      0.049200
     38 H23         0.5450    0.1560   -6.1420 h1        1 JK3      0.057700
     39 H23A       -1.0400   -0.4210   -5.4310 h1        1 JK3      0.057700
     40 H25        -1.8350    3.5980   -6.2440 ha        1 JK3      0.173500
     41 H092        5.7730   -1.0730   -1.7280 hn        1 JK3      0.478300
     42 N09         5.0850   -0.3120   -1.7740 n4        1 JK3     -0.528200
     43 BR04       10.1900   -1.0070    0.0450 br        1 JK3     -0.002200
@<TRIPOS>BOND
     1    1   13 1   
     2    2    3 1   
     3    2    6 2   
     4    2   24 1   
     5    3    4 2   
     6    3   25 1   
     7    4    5 1   
     8    4   43 1   
     9    5    6 1   
    10    6    7 1   
    11    7    8 2   
    12    7   42 1   
    13    9   10 ar  
    14    9   14 ar  
    15    9   42 1   
    16   10   11 ar  
    17   10   27 1   
    18   11   12 ar  
    19   11   28 1   
    20   12   13 ar  
    21   12   29 1   
    22   13   14 ar  
    23   14   15 1   
    24   15   16 1   
    25   15   18 1   
    26   16   17 1   
    27   16   30 1   
    28   16   31 1   
    29   17   20 1   
    30   17   32 1   
    31   17   33 1   
    32   18   19 1   
    33   18   34 1   
    34   18   35 1   
    35   19   20 1   
    36   19   36 1   
    37   19   37 1   
    38   20   21 1   
    39   21   22 1   
    40   21   38 1   
    41   21   39 1   
    42   22   23 3   
    43   23   40 1   
    44   26   42 1   
    45   41   42 1   
@<TRIPOS>SUBSTRUCTURE
     1 JK3         1 TEMP              0 ****  ****    0 ROOT
