@<TRIPOS>MOLECULE
JK3
   42    43     1     0     0
SMALL
bcc


@<TRIPOS>ATOM
      1 Cl15        0.4840   -1.1960    1.7840 cl        1 JK3     -0.001000
      2 C01         7.3690    3.2770   -2.1180 c2        1 JK3     -0.220000
      3 C02         8.6500    3.7970   -1.7020 c2        1 JK3     -0.119000
      4 C03         8.9760    3.1930   -0.5000 c2        1 JK3     -0.189000
      5 O05         7.9520    2.2940   -0.1170 os        1 JK3     -0.084000
      6 C06         7.0040    2.3840   -1.1300 c2        1 JK3      0.148000
      7 C07         5.0330    1.4400   -1.8340 c1        1 JK3      0.103000
      8 O08         5.9760    1.5490   -0.8160 os        1 JK3     -0.201000
      9 C10         3.6840   -0.0650   -0.3640 ca        1 JK3      0.033000
     10 C11         4.7170   -0.6460    0.4000 ca        1 JK3     -0.127000
     11 C12         4.4340   -1.3650    1.5540 ca        1 JK3     -0.097000
     12 C13         3.1190   -1.5340    1.9780 ca        1 JK3     -0.130000
     13 C14         2.0790   -0.9710    1.2380 ca        1 JK3     -0.046000
     14 C16         2.3340   -0.2240    0.0680 ca        1 JK3     -0.072000
     15 N17         1.2410    0.3780   -0.6530 nh        1 JK3     -0.098000
     16 C18         0.8490    1.6160   -0.5290 c1        1 JK3     -0.176000
     17 C19        -1.0780    1.5030   -3.0780 c3        1 JK3     -0.213000
     18 C20         0.5460   -0.5180   -1.5780 c3        1 JK3     -0.041000
     19 C21         0.8250   -0.2300   -3.0450 cx        1 JK3     -0.097000
     20 N22        -0.0430    0.7520   -3.7720 nx        1 JK3     -0.020000
     21 C23         1.3800    1.0070   -3.6270 cu        1 JK3     -0.503000
     22 C24         2.5810    0.4930   -6.4900 c1        1 JK3     -0.252000
     23 C25         2.9130    0.2270   -7.6090 c1        1 JK3     -0.252000
     24 H01         6.8160    3.5290   -3.0170 ha        1 JK3      0.187000
     25 H02         9.2380    4.5310   -2.2490 ha        1 JK3      0.172000
     26 HN09        3.3160    0.5920   -2.2930 hn        1 JK3      0.287000
     27 H11         5.7690   -0.5230    0.0860 ha        1 JK3      0.168000
     28 H12         5.2580   -1.8040    2.1380 ha        1 JK3      0.150000
     29 H13         2.8990   -2.1070    2.8930 ha        1 JK3      0.156000
     30 H18         1.3970    2.2650    0.1800 ha        1 JK3      0.074000
     31 H18A       -0.6840    1.8760   -2.0850 hx        1 JK3      0.123000
     32 H19        -1.3650    2.3820   -3.7130 hx        1 JK3      0.123000
     33 H19A       -1.9780    0.8570   -2.9070 hx        1 JK3      0.123000
     34 H20        -0.5580   -0.4470   -1.3600 h1        1 JK3      0.113000
     35 H20A        0.8750   -1.5750   -1.3650 h1        1 JK3      0.113000
     36 H21         1.0120   -1.1870   -3.5910 hx        1 JK3      0.133000
     37 H21A       -0.3330    0.4810   -4.7040 hn        1 JK3      0.228000
     38 H23         2.2810    0.7350   -5.4790 ha        1 JK3      0.241000
     39 H23A        1.7400    1.8830   -3.0850 hx        1 JK3      0.128000
     40 H25         3.2110   -0.0060   -8.5980 ha        1 JK3      0.241000
     41 N09         3.9860    0.6620   -1.5430 nu        1 JK3     -0.252000
     42 Br04       10.4330    3.3660    0.6060 br        1 JK3      0.146000
@<TRIPOS>BOND
     1    1   13 1   
     2    2    3 1   
     3    2    6 1   
     4    2   24 1   
     5    3    4 1   
     6    3   25 1   
     7    4    5 1   
     8    4   42 1   
     9    5    6 1   
    10    6    8 1   
    11    7    8 1   
    12    7   41 1   
    13    9   10 1   
    14    9   14 1   
    15    9   41 1   
    16   10   11 1   
    17   10   27 1   
    18   11   12 1   
    19   11   28 1   
    20   12   13 1   
    21   12   29 1   
    22   13   14 1   
    23   14   15 1   
    24   15   16 1   
    25   15   18 1   
    26   16   30 1   
    27   17   20 1   
    28   17   31 1   
    29   17   32 1   
    30   17   33 1   
    31   18   19 1   
    32   18   34 1   
    33   18   35 1   
    34   19   20 1   
    35   19   21 1   
    36   19   36 1   
    37   20   21 1   
    38   20   37 1   
    39   21   39 1   
    40   22   23 1   
    41   22   38 1   
    42   23   40 1   
    43   26   41 1   
@<TRIPOS>SUBSTRUCTURE
     1 JK3         1 TEMP              0 ****  ****    0 ROOT
