@<TRIPOS>MOLECULE
JK3
   42    37     1     0     0
SMALL
bcc


@<TRIPOS>ATOM
      1 CL15       -3.2110   -0.5200    2.0530 cl        1 JK3     -0.013000
      2 C01         5.5140    1.2580    0.5080 c1        1 JK3     -0.136500
      3 C02         6.2570    1.0240   -0.6350 c1        1 JK3     -0.136500
      4 C03         5.4470    0.3520   -1.5410 c1        1 JK3     -0.113500
      5 O05         4.2470    0.1790   -0.9730 os        1 JK3     -0.083000
      6 C06         4.2840    0.7470    0.3130 c1        1 JK3     -0.113500
      7 C07         3.1380    0.7000    1.3560 c1        1 JK3      0.383000
      8 O08         3.3390    1.0820    2.5180 o         1 JK3     -0.344000
      9 N09         1.8880    0.1170    1.0010 n3        1 JK3     -0.300000
     10 C10         0.8190   -0.0390    2.0160 c2        1 JK3      0.101000
     11 C11         1.1260    0.0480    3.3860 c1        1 JK3     -0.154000
     12 C12         0.0930   -0.0210    4.3470 c1        1 JK3     -0.123000
     13 C13        -1.2110   -0.1710    3.9460 c1        1 JK3     -0.123000
     14 C14        -1.5250   -0.2590    2.5620 c1        1 JK3     -0.060000
     15 C16        -0.5060   -0.1920    1.6090 c2        1 JK3     -0.016000
     16 N17        -0.8270   -0.2850    0.1810 n3        1 JK3     -0.264000
     17 C18        -1.6050    0.8680   -0.2140 c3        1 JK3     -0.053500
     18 C19        -2.0990    0.7720   -1.6420 c3        1 JK3     -0.072000
     19 C20        -1.4920   -1.4970   -0.0710 c3        1 JK3     -0.053500
     20 C21        -2.0010   -1.5970   -1.5130 c3        1 JK3     -0.072000
     21 N22        -2.7700   -0.4620   -1.9000 n3        1 JK3     -0.248000
     22 C23        -3.1030   -0.5520   -3.2830 c3        1 JK3      0.039000
     23 C24        -4.5850   -0.1890   -3.4740 c1        1 JK3     -0.168000
     24 C25        -5.7050    0.0800   -3.6190 c1        1 JK3     -0.203000
     25 BR04        5.9290   -0.1930   -3.2240 br        1 JK3      0.158000
     26 H01         5.8190    1.7070    1.3010 DU        1 JK3      0.195667
     27 H02         7.1450    1.2730   -0.7730 DU        1 JK3      0.195667
     28 HN09        1.7620   -0.2120    0.1430 hn        1 JK3      0.263000
     29 H11         1.9750    0.1450    3.6490 ha        1 JK3      0.174000
     30 H12         0.3200    0.0440    5.3570 ha        1 JK3      0.146500
     31 H13        -1.9510   -0.2180    4.6380 ha        1 JK3      0.146500
     32 H18        -2.3800    0.9470    0.3820 h1        1 JK3      0.087750
     33 H18A       -1.0410    1.6850   -0.1200 h1        1 JK3      0.087750
     34 H19        -2.6980    1.4820   -1.8060 h1        1 JK3      0.079750
     35 H19A       -1.2910    0.8580   -2.2840 h1        1 JK3      0.079750
     36 H20        -2.2120   -1.5690    0.5050 h1        1 JK3      0.087750
     37 H20A       -0.8740   -2.2400    0.0970 h1        1 JK3      0.087750
     38 H21        -2.5730   -2.4300   -1.6020 h1        1 JK3      0.079750
     39 H21A       -1.2980   -1.6700   -2.0630 h1        1 JK3      0.079750
     40 H23        -2.9540   -1.4320   -3.5900 h1        1 JK3      0.090000
     41 H23A       -2.5400    0.0750   -3.7960 h1        1 JK3      0.090000
     42 H25        -6.6500    0.3020   -3.7410 DU        1 JK3      0.195667
@<TRIPOS>BOND
     1    1   14 1   
     2    2    3 1   
     3    2    6 1   
     4    3    4 1   
     5    4    5 1   
     6    5    6 1   
     7    7    8 1   
     8    7    9 1   
     9    9   10 1   
    10    9   28 1   
    11   10   11 1   
    12   10   15 1   
    13   11   29 1   
    14   12   13 1   
    15   12   30 1   
    16   13   31 1   
    17   14   15 1   
    18   15   16 1   
    19   16   17 1   
    20   16   19 1   
    21   17   18 1   
    22   17   32 1   
    23   17   33 1   
    24   18   21 1   
    25   18   34 1   
    26   18   35 1   
    27   19   20 1   
    28   19   36 1   
    29   19   37 1   
    30   20   21 1   
    31   20   38 1   
    32   20   39 1   
    33   21   22 1   
    34   22   23 1   
    35   22   40 1   
    36   22   41 1   
    37   23   24 1   
@<TRIPOS>SUBSTRUCTURE
     1 JK3         1 TEMP              0 ****  ****    0 ROOT
