@<TRIPOS>MOLECULE
JK4
   57    59     1     0     0
SMALL
bcc


@<TRIPOS>ATOM
      1 N01        -2.7090   -0.6870    1.7760 nb        1 JK4     -0.817000
      2 C02        -2.0250   -1.8690    1.6820 ca        1 JK4      0.621200
      3 N02        -2.7460   -3.0330    1.3220 nv        1 JK4     -0.930500
      4 C03        -0.6410   -1.9640    2.0060 ca        1 JK4     -0.283300
      5 C04         0.0400   -0.8190    2.4200 ca        1 JK4      0.024700
      6 C05        -0.6600    0.3950    2.4850 ca        1 JK4     -0.263300
      7 C06        -2.0260    0.4200    2.1580 ca        1 JK4      0.454600
      8 C07         1.4730   -0.8750    2.7830 c3        1 JK4     -0.076800
      9 C08        -2.7550    1.7380    2.2170 c3        1 JK4     -0.127700
     10 O09        -5.2630    1.5760    1.1010 os        1 JK4     -0.432600
     11 N1'        -4.0740    4.3140   -0.0730 n7        1 JK4     -0.788200
     12 C10        -6.3400    0.7900    0.6310 c3        1 JK4      0.109400
     13 C11        -6.1010   -0.6990    0.9390 c3        1 JK4      0.079800
     14 N12        -5.5110   -0.9010    2.2910 ny        1 JK4     -0.780000
     15 C13        -5.8690   -2.2040    2.8940 c3        1 JK4      0.044800
     16 C14        -5.6100   -2.2340    4.4500 c3        1 JK4      0.476900
     17 F15        -4.2880   -1.9480    4.7230 f         1 JK4     -0.216800
     18 F16        -6.2510   -1.1730    5.0610 f         1 JK4     -0.216800
     19 C2'        -4.6980    3.1450   -0.6770 c3        1 JK4      0.128800
     20 C21        -6.0620   -3.5880    4.9650 ca        1 JK4     -0.194300
     21 C22        -7.4360   -3.9090    4.9920 ca        1 JK4      0.111900
     22 F22        -8.3630   -3.0320    4.5440 f         1 JK4     -0.122900
     23 C23        -7.8480   -5.1730    5.4930 ca        1 JK4      0.111900
     24 F23        -9.1610   -5.4840    5.5170 f         1 JK4     -0.102900
     25 C24        -6.8860   -6.0860    5.9580 ca        1 JK4     -0.105000
     26 C25        -5.5370   -5.7490    5.9240 ca        1 JK4     -0.110000
     27 C26        -5.1260   -4.5100    5.4340 ca        1 JK4     -0.078000
     28 C3'        -4.2680    1.8830    0.1150 c3        1 JK4      0.108100
     29 C4'        -2.9720    2.3140    0.8330 c3        1 JK4     -0.079700
     30 C5'        -3.0340    3.8620    0.8460 c3        1 JK4      0.150800
     31 HN02       -3.3870   -2.8970    0.5690 hn        1 JK4      0.395800
     32 HN0A       -2.1420   -3.8130    1.1590 hn        1 JK4      0.395800
     33 H03        -0.1140   -2.9260    1.9340 ha        1 JK4      0.159000
     34 H05        -0.1430    1.3160    2.7890 ha        1 JK4      0.163000
     35 H07         1.5840   -0.8000    3.8950 hc        1 JK4      0.066700
     36 H07A        1.9440   -1.8310    2.4460 hc        1 JK4      0.066700
     37 H07B        2.0290   -0.0220    2.3190 hc        1 JK4      0.066700
     38 H08        -2.1300    2.4540    2.8190 hc        1 JK4      0.070700
     39 H08A       -3.7330    1.6250    2.7560 hc        1 JK4      0.070700
     40 HN1'       -4.7540    4.8720    0.4090 hn        1 JK4      0.366800
     41 H10        -6.5110    0.9030   -0.4710 h1        1 JK4      0.086700
     42 H10A       -7.2390    1.1650    1.1940 h1        1 JK4      0.086700
     43 H11        -7.0850   -1.2410    0.8650 hx        1 JK4      0.097700
     44 H11A       -5.3840   -1.1400    0.1910 hx        1 JK4      0.097700
     45 HN12       -5.8320   -0.1430    2.9090 hn        1 JK4      0.486800
     46 H13        -6.9650   -2.4130    2.7320 hx        1 JK4      0.127200
     47 H13A       -5.2480   -3.0140    2.4180 hx        1 JK4      0.127200
     48 H2'        -5.8160    3.2300   -0.7060 h1        1 JK4      0.063700
     49 H2'A       -4.3170    3.0610   -1.7320 h1        1 JK4      0.063700
     50 H24        -7.2180   -7.0610    6.3520 ha        1 JK4      0.177000
     51 H25        -4.7860   -6.4660    6.2950 ha        1 JK4      0.166000
     52 H26        -4.0540   -4.2500    5.4270 ha        1 JK4      0.164000
     53 H3'        -4.1020    0.9990   -0.5500 h1        1 JK4      0.055700
     54 H4'        -2.1180    2.0040    0.1690 hc        1 JK4      0.076700
     55 H5'        -2.0550    4.2820    0.4840 h1        1 JK4      0.058700
     56 H5'A       -3.2080    4.2400    1.8900 h1        1 JK4      0.058700
     57 H122       -4.4540   -0.8090    2.2050 hn        1 JK4      0.486800
@<TRIPOS>BOND
     1    1    2 ar  
     2    1    7 ar  
     3    2    3 1   
     4    2    4 ar  
     5    3   31 1   
     6    3   32 1   
     7    4    5 ar  
     8    4   33 1   
     9    5    6 ar  
    10    5    8 1   
    11    6    7 ar  
    12    6   34 1   
    13    7    9 1   
    14    8   35 1   
    15    8   36 1   
    16    8   37 1   
    17    9   29 1   
    18    9   38 1   
    19    9   39 1   
    20   10   12 1   
    21   10   28 1   
    22   11   19 1   
    23   11   30 1   
    24   11   40 1   
    25   12   13 1   
    26   12   41 1   
    27   12   42 1   
    28   13   14 1   
    29   13   43 1   
    30   13   44 1   
    31   14   15 1   
    32   14   45 1   
    33   14   57 1   
    34   15   16 1   
    35   15   46 1   
    36   15   47 1   
    37   16   17 1   
    38   16   18 1   
    39   16   20 1   
    40   19   28 1   
    41   19   48 1   
    42   19   49 1   
    43   20   21 ar  
    44   20   27 ar  
    45   21   22 1   
    46   21   23 ar  
    47   23   24 1   
    48   23   25 ar  
    49   25   26 ar  
    50   25   50 1   
    51   26   27 ar  
    52   26   51 1   
    53   27   52 1   
    54   28   29 1   
    55   28   53 1   
    56   29   30 1   
    57   29   54 1   
    58   30   55 1   
    59   30   56 1   
@<TRIPOS>SUBSTRUCTURE
     1 JK4         1 TEMP              0 ****  ****    0 ROOT
