@<TRIPOS>MOLECULE
JK4
   57    59     1     0     0
SMALL
bcc


@<TRIPOS>ATOM
      1 N01        -2.3580    0.0970    2.9180 nb        1 JK4     -0.774000
      2 C02        -1.7830   -1.0720    3.3440 ca        1 JK4      0.576200
      3 N02        -2.5640   -1.9290    4.1690 nh        1 JK4     -0.941500
      4 C03        -0.4870   -1.4760    2.9280 ca        1 JK4     -0.281300
      5 C04         0.2320   -0.6530    2.0570 ca        1 JK4      0.011700
      6 C05        -0.3490    0.5480    1.6370 ca        1 JK4     -0.266300
      7 C06        -1.6390    0.8890    2.0920 ca        1 JK4      0.451600
      8 C07         1.5910   -1.0330    1.6110 c3        1 JK4     -0.073800
      9 C08        -2.2150    2.2120    1.6560 c3        1 JK4     -0.130700
     10 O09        -4.8260    1.7360    1.8310 os        1 JK4     -0.411600
     11 N1'        -4.1480    4.0720   -0.5670 n3        1 JK4     -0.784200
     12 C10        -6.1550    1.3320    2.0770 c3        1 JK4      0.106400
     13 C11        -6.3090   -0.1950    2.0190 c3        1 JK4      0.059800
     14 N12        -5.1980   -0.9150    2.7100 n4        1 JK4     -0.739000
     15 C13        -5.5150   -2.3470    2.9400 c3        1 JK4      0.041800
     16 C14        -6.1820   -2.6160    4.3430 c3        1 JK4      0.477900
     17 F15        -5.3460   -2.1730    5.3510 f         1 JK4     -0.221800
     18 F16        -7.2830   -1.8020    4.5290 f         1 JK4     -0.221800
     19 C2'        -5.1620    3.0960   -0.2000 c3        1 JK4      0.124800
     20 C21        -6.5110   -4.0950    4.4230 ca        1 JK4     -0.195300
     21 C22        -7.5300   -4.6320    3.6090 ca        1 JK4      0.110900
     22 F22        -8.2090   -3.8490    2.7400 f         1 JK4     -0.124900
     23 C23        -7.8440   -6.0150    3.7020 ca        1 JK4      0.115900
     24 F23        -8.8160   -6.5320    2.9230 f         1 JK4     -0.101900
     25 C24        -7.1390   -6.8300    4.6060 ca        1 JK4     -0.103000
     26 C25        -6.1400   -6.2790    5.4020 ca        1 JK4     -0.108000
     27 C26        -5.8280   -4.9230    5.3150 ca        1 JK4     -0.079000
     28 C3'        -4.4780    1.8640    0.4500 c3        1 JK4      0.104100
     29 C4'        -2.9570    2.1110    0.3360 c3        1 JK4     -0.082700
     30 C5'        -2.8450    3.4270   -0.4790 c3        1 JK4      0.145800
     31 HN02       -2.0020   -2.6590    4.5610 hn        1 JK4      0.392800
     32 HN0A       -3.0590   -1.4400    4.8910 hn        1 JK4      0.392800
     33 H03        -0.0480   -2.4190    3.2840 ha        1 JK4      0.155000
     34 H05         0.1970    1.2270    0.9660 ha        1 JK4      0.160000
     35 H07         1.7230   -2.1430    1.6160 hc        1 JK4      0.064367
     36 H07A        2.3520   -0.5860    2.3010 hc        1 JK4      0.064367
     37 H07B        1.7920   -0.6540    0.5780 hc        1 JK4      0.064367
     38 H08        -2.8840    2.6360    2.4520 hc        1 JK4      0.079200
     39 H08A       -1.3510    2.9240    1.5440 hc        1 JK4      0.079200
     40 HN1'       -4.1910    4.8730    0.0370 hn        1 JK4      0.365800
     41 H10        -6.8850    1.7760    1.3480 h1        1 JK4      0.091200
     42 H10A       -6.3740    1.7120    3.1140 h1        1 JK4      0.091200
     43 H11        -7.2830   -0.4780    2.5140 hx        1 JK4      0.108700
     44 H11A       -6.3260   -0.5460    0.9490 hx        1 JK4      0.108700
     45 HN12       -4.9950   -0.4510    3.6080 hn        1 JK4      0.477800
     46 H13        -6.2230   -2.7100    2.1410 hx        1 JK4      0.136700
     47 H13A       -4.5600   -2.9460    2.8980 hx        1 JK4      0.136700
     48 H2'        -5.9290    3.5350    0.4930 h1        1 JK4      0.061700
     49 H2'A       -5.6800    2.7750   -1.1450 h1        1 JK4      0.061700
     50 H24        -7.3950   -7.9000    4.6760 ha        1 JK4      0.179000
     51 H25        -5.5950   -6.9200    6.1140 ha        1 JK4      0.167000
     52 H26        -5.0450   -4.4970    5.9650 ha        1 JK4      0.161000
     53 H3'        -4.7700    0.9230   -0.0870 h1        1 JK4      0.035700
     54 H4'        -2.5110    1.2780   -0.2710 hc        1 JK4      0.067700
     55 H5'        -2.0780    4.1190   -0.0420 h1        1 JK4      0.064700
     56 H5'A       -2.5250    3.1790   -1.5300 h1        1 JK4      0.064700
     57 H122       -4.3450   -0.8300    2.1350 hn        1 JK4      0.477800
@<TRIPOS>BOND
     1    1    2 ar  
     2    1    7 ar  
     3    2    3 1   
     4    2    4 ar  
     5    3   31 1   
     6    3   32 1   
     7    4    5 ar  
     8    4   33 1   
     9    5    6 ar  
    10    5    8 1   
    11    6    7 ar  
    12    6   34 1   
    13    7    9 1   
    14    8   35 1   
    15    8   36 1   
    16    8   37 1   
    17    9   29 1   
    18    9   38 1   
    19    9   39 1   
    20   10   12 1   
    21   10   28 1   
    22   11   19 1   
    23   11   30 1   
    24   11   40 1   
    25   12   13 1   
    26   12   41 1   
    27   12   42 1   
    28   13   14 1   
    29   13   43 1   
    30   13   44 1   
    31   14   15 1   
    32   14   45 1   
    33   14   57 1   
    34   15   16 1   
    35   15   46 1   
    36   15   47 1   
    37   16   17 1   
    38   16   18 1   
    39   16   20 1   
    40   19   28 1   
    41   19   48 1   
    42   19   49 1   
    43   20   21 ar  
    44   20   27 ar  
    45   21   22 1   
    46   21   23 ar  
    47   23   24 1   
    48   23   25 ar  
    49   25   26 ar  
    50   25   50 1   
    51   26   27 ar  
    52   26   51 1   
    53   27   52 1   
    54   28   29 1   
    55   28   53 1   
    56   29   30 1   
    57   29   54 1   
    58   30   55 1   
    59   30   56 1   
@<TRIPOS>SUBSTRUCTURE
     1 JK4         1 TEMP              0 ****  ****    0 ROOT
