@<TRIPOS>MOLECULE
JK4
   58    60     1     0     0
SMALL
bcc


@<TRIPOS>ATOM
      1 N01        -0.0220   -0.1480    0.0610 nb        1 JK4     -0.669000
      2 C02         1.3220   -0.1260    0.2890 ca        1 JK4      0.454200
      3 N02         2.1870   -0.1990   -0.9120 n4        1 JK4     -0.818300
      4 C03         1.9210   -0.0390    1.5570 ca        1 JK4     -0.207300
      5 C04         1.0650    0.0340    2.6740 ca        1 JK4      0.010700
      6 C05        -0.3140    0.0140    2.4610 ca        1 JK4     -0.203300
      7 C06        -0.8270   -0.0770    1.1410 ca        1 JK4      0.456600
      8 C07         1.6370    0.1400    4.0330 c3        1 JK4     -0.085800
      9 C08        -2.3210   -0.1110    0.9420 c3        1 JK4     -0.119700
     10 O09        -4.9790    0.0390    0.6330 os        1 JK4     -0.459600
     11 N1'        -3.9550    3.0990    1.2830 n3        1 JK4     -0.784200
     12 C10        -6.1560   -0.4240   -0.0240 c3        1 JK4      0.102400
     13 C11        -6.7970   -1.4720    0.8880 c3        1 JK4      0.093800
     14 N12        -7.1650   -0.9100    2.2230 n4        1 JK4     -0.753000
     15 C13        -7.7190   -1.9230    3.1590 c3        1 JK4      0.033800
     16 C14        -6.6120   -2.7420    3.9370 c3        1 JK4      0.484900
     17 F15        -5.9140   -3.5430    3.0570 f         1 JK4     -0.221800
     18 F16        -5.6140   -1.8970    4.3840 f         1 JK4     -0.221800
     19 C2'        -4.9000    2.4710    0.3740 c3        1 JK4      0.128800
     20 C21        -7.3100   -3.5010    5.0470 ca        1 JK4     -0.209300
     21 C22        -7.8250   -2.7980    6.1570 ca        1 JK4      0.105900
     22 F22        -7.7240   -1.4500    6.2260 f         1 JK4     -0.125900
     23 C23        -8.4590   -3.5140    7.2060 ca        1 JK4      0.123900
     24 F23        -8.9530   -2.8440    8.2670 f         1 JK4     -0.093900
     25 C24        -8.5660   -4.9150    7.1270 ca        1 JK4     -0.095000
     26 C25        -8.0510   -5.5880    6.0240 ca        1 JK4     -0.103000
     27 C26        -7.4240   -4.8910    4.9910 ca        1 JK4     -0.078000
     28 C3'        -4.3330    1.1020   -0.0850 c3        1 JK4      0.114100
     29 C4'        -2.8340    1.1500    0.2810 c3        1 JK4     -0.088700
     30 C5'        -2.6780    2.4070    1.1730 c3        1 JK4      0.147800
     31 HN02        1.9380   -1.0210   -1.4780 hn        1 JK4      0.474467
     32 HN0A        2.0600    0.6460   -1.4840 hn        1 JK4      0.474467
     33 H03         3.0130   -0.0260    1.7040 ha        1 JK4      0.176000
     34 H05        -1.0090    0.0700    3.3150 ha        1 JK4      0.177000
     35 H07         2.5130   -0.5480    4.1530 hc        1 JK4      0.080700
     36 H07A        0.8780   -0.1170    4.8140 hc        1 JK4      0.080700
     37 H07B        1.9900    1.1880    4.2180 hc        1 JK4      0.080700
     38 H08        -2.8160   -0.2490    1.9400 hc        1 JK4      0.075700
     39 H08A       -2.5970   -0.9970    0.3080 hc        1 JK4      0.075700
     40 HN1'       -4.2930    3.0850    2.2270 hn        1 JK4      0.363800
     41 H10        -6.8520    0.4340   -0.2260 h1        1 JK4      0.078200
     42 H10A       -5.8860   -0.9240   -0.9950 h1        1 JK4      0.078200
     43 H11        -7.7270   -1.8730    0.3940 hx        1 JK4      0.124200
     44 H11A       -6.0720   -2.3210    1.0640 hx        1 JK4      0.124200
     45 HN12       -7.8570   -0.1620    2.0920 hn        1 JK4      0.466300
     46 H13        -8.3620   -2.6520    2.5930 hx        1 JK4      0.139200
     47 H13A       -8.3430   -1.3840    3.9320 hx        1 JK4      0.139200
     48 H2'        -5.0050    3.1430   -0.5230 h1        1 JK4      0.064700
     49 H2'A       -5.9120    2.3450    0.8410 h1        1 JK4      0.064700
     50 H24        -9.0570   -5.4640    7.9490 ha        1 JK4      0.187000
     51 H25        -8.1340   -6.6870    5.9680 ha        1 JK4      0.175000
     52 H26        -7.0060   -5.4420    4.1330 ha        1 JK4      0.163000
     53 H3'        -4.4690    0.9500   -1.1880 h1        1 JK4      0.075700
     54 H4'        -2.2710    1.3170   -0.6780 hc        1 JK4      0.083700
     55 H5'        -1.9540    3.1220    0.6910 h1        1 JK4      0.057700
     56 H5'A       -2.2670    2.1280    2.1810 h1        1 JK4      0.057700
     57 H023        3.1670   -0.2700   -0.6180 hn        1 JK4      0.474467
     58 H122       -6.3160   -0.4910    2.6380 hn        1 JK4      0.466300
@<TRIPOS>BOND
     1    1    2 ar  
     2    1    7 ar  
     3    2    3 1   
     4    2    4 ar  
     5    3   31 1   
     6    3   32 1   
     7    3   57 1   
     8    4    5 ar  
     9    4   33 1   
    10    5    6 ar  
    11    5    8 1   
    12    6    7 ar  
    13    6   34 1   
    14    7    9 1   
    15    8   35 1   
    16    8   36 1   
    17    8   37 1   
    18    9   29 1   
    19    9   38 1   
    20    9   39 1   
    21   10   12 1   
    22   10   28 1   
    23   11   19 1   
    24   11   30 1   
    25   11   40 1   
    26   12   13 1   
    27   12   41 1   
    28   12   42 1   
    29   13   14 1   
    30   13   43 1   
    31   13   44 1   
    32   14   15 1   
    33   14   45 1   
    34   14   58 1   
    35   15   16 1   
    36   15   46 1   
    37   15   47 1   
    38   16   17 1   
    39   16   18 1   
    40   16   20 1   
    41   19   28 1   
    42   19   48 1   
    43   19   49 1   
    44   20   21 ar  
    45   20   27 ar  
    46   21   22 1   
    47   21   23 ar  
    48   23   24 1   
    49   23   25 ar  
    50   25   26 ar  
    51   25   50 1   
    52   26   27 ar  
    53   26   51 1   
    54   27   52 1   
    55   28   29 1   
    56   28   53 1   
    57   29   30 1   
    58   29   54 1   
    59   30   55 1   
    60   30   56 1   
@<TRIPOS>SUBSTRUCTURE
     1 JK4         1 TEMP              0 ****  ****    0 ROOT
