@<TRIPOS>MOLECULE
JK4
   56    58     1     0     0
SMALL
bcc


@<TRIPOS>ATOM
      1 N01        -5.4170    0.8010   -0.8120 nb        1 JK4     -0.733000
      2 C02        -6.3250    1.7950   -0.5560 ca        1 JK4      0.627200
      3 N02        -7.6090    1.7060   -1.1240 nh        1 JK4     -0.922500
      4 C03        -6.0330    2.8790    0.3250 ca        1 JK4     -0.301300
      5 C04        -4.7970    2.9120    0.9680 ca        1 JK4     -0.006300
      6 C05        -3.8780    1.8850    0.7220 ca        1 JK4     -0.289300
      7 C06        -4.2280    0.8530   -0.1710 ca        1 JK4      0.449600
      8 C07        -4.4600    4.0070    1.9060 c3        1 JK4     -0.061800
      9 C08        -3.2160   -0.2270   -0.4470 c3        1 JK4     -0.113700
     10 O09        -1.5120   -2.1590   -0.8890 os        1 JK4     -0.422600
     11 N1'        -3.2560   -2.9090    2.0580 n3        1 JK4     -0.786200
     12 C10        -0.6740   -3.1370   -1.5030 c3        1 JK4      0.122400
     13 C11         0.6140   -2.4150   -1.9100 c3        1 JK4      0.166800
     14 N12         1.4270   -2.0320   -0.7720 n3        1 JK4     -0.820200
     15 C13         2.4890   -1.1190   -1.1230 c3        1 JK4      0.132800
     16 C14         3.2220   -0.5230    0.1310 c3        1 JK4      0.465900
     17 F15         2.3410    0.1310    0.9720 f         1 JK4     -0.226800
     18 F16         3.7150   -1.5070    0.9650 f         1 JK4     -0.226800
     19 C2'        -2.3820   -3.4360    1.0180 c3        1 JK4      0.111800
     20 C21         4.3250    0.4020   -0.3830 ca        1 JK4     -0.169300
     21 C22         4.0050    1.6690   -0.9070 ca        1 JK4      0.122900
     22 F22         2.7280    2.1070   -0.9550 f         1 JK4     -0.114900
     23 C23         5.0460    2.5040   -1.3990 ca        1 JK4      0.089900
     24 F23         4.7460    3.7220   -1.9040 f         1 JK4     -0.121900
     25 C24         6.3780    2.0610   -1.3580 ca        1 JK4     -0.128000
     26 C25         6.6720    0.8050   -0.8350 ca        1 JK4     -0.122000
     27 C26         5.6560   -0.0160   -0.3510 ca        1 JK4     -0.089000
     28 C3'        -2.6930   -2.7220   -0.3250 c3        1 JK4      0.116100
     29 C4'        -3.6800   -1.5880    0.0280 c3        1 JK4     -0.079700
     30 C5'        -3.8270   -1.6580    1.5660 c3        1 JK4      0.140800
     31 HN02       -7.7040    1.0540   -1.8730 hn        1 JK4      0.397800
     32 HN0A       -8.0150    2.5940   -1.3180 hn        1 JK4      0.397800
     33 H03        -6.7750    3.6690    0.5030 ha        1 JK4      0.141000
     34 H05        -2.8980    1.8830    1.2160 ha        1 JK4      0.146000
     35 H07        -4.5870    3.6540    2.9610 hc        1 JK4      0.049700
     36 H07A       -3.3980    4.3300    1.7700 hc        1 JK4      0.049700
     37 H07B       -5.1240    4.8930    1.7510 hc        1 JK4      0.049700
     38 H08        -3.0130   -0.2780   -1.5510 hc        1 JK4      0.068700
     39 H08A       -2.2480    0.0360    0.0560 hc        1 JK4      0.068700
     40 HN1'       -3.9870   -3.5660    2.2590 hn        1 JK4      0.345800
     41 H10        -0.4720   -3.9780   -0.7900 h1        1 JK4      0.040700
     42 H10A       -1.1800   -3.5380   -2.4210 h1        1 JK4      0.040700
     43 H11         1.2220   -3.1220   -2.5420 h1        1 JK4      0.041200
     44 H11A        0.3310   -1.5300   -2.5530 h1        1 JK4      0.041200
     45 HN12        0.8540   -1.6500   -0.0390 hn        1 JK4      0.385800
     46 H13         3.2540   -1.6860   -1.7200 h1        1 JK4      0.056700
     47 H13A        2.1380   -0.2340   -1.7290 h1        1 JK4      0.056700
     48 H2'        -1.3200   -3.2100    1.3160 h1        1 JK4      0.057200
     49 H2'A       -2.4890   -4.5460    0.9110 h1        1 JK4      0.057200
     50 H24         7.1750    2.7160   -1.7400 ha        1 JK4      0.158000
     51 H25         7.7160    0.4600   -0.8010 ha        1 JK4      0.149000
     52 H26         5.8990   -1.0060    0.0710 ha        1 JK4      0.161000
     53 H3'        -3.1550   -3.4340   -1.0600 h1        1 JK4      0.041700
     54 H4'        -4.6680   -1.8270   -0.4500 hc        1 JK4      0.071700
     55 H5'        -4.9030   -1.5550    1.8640 h1        1 JK4      0.056700
     56 H5'A       -3.2530   -0.8160    2.0420 h1        1 JK4      0.056700
@<TRIPOS>BOND
     1    1    2 ar  
     2    1    7 ar  
     3    2    3 1   
     4    2    4 ar  
     5    3   31 1   
     6    3   32 1   
     7    4    5 ar  
     8    4   33 1   
     9    5    6 ar  
    10    5    8 1   
    11    6    7 ar  
    12    6   34 1   
    13    7    9 1   
    14    8   35 1   
    15    8   36 1   
    16    8   37 1   
    17    9   29 1   
    18    9   38 1   
    19    9   39 1   
    20   10   12 1   
    21   10   28 1   
    22   11   19 1   
    23   11   30 1   
    24   11   40 1   
    25   12   13 1   
    26   12   41 1   
    27   12   42 1   
    28   13   14 1   
    29   13   43 1   
    30   13   44 1   
    31   14   15 1   
    32   14   45 1   
    33   15   16 1   
    34   15   46 1   
    35   15   47 1   
    36   16   17 1   
    37   16   18 1   
    38   16   20 1   
    39   19   28 1   
    40   19   48 1   
    41   19   49 1   
    42   20   21 ar  
    43   20   27 ar  
    44   21   22 1   
    45   21   23 ar  
    46   23   24 1   
    47   23   25 ar  
    48   25   26 ar  
    49   25   50 1   
    50   26   27 ar  
    51   26   51 1   
    52   27   52 1   
    53   28   29 1   
    54   28   53 1   
    55   29   30 1   
    56   29   54 1   
    57   30   55 1   
    58   30   56 1   
@<TRIPOS>SUBSTRUCTURE
     1 JK4         1 TEMP              0 ****  ****    0 ROOT
