@<TRIPOS>MOLECULE
JK4
   56    53     1     0     0
SMALL
bcc


@<TRIPOS>ATOM
      1 N01         3.3010    2.1940   -0.5720 n1        1 JK4     -0.204000
      2 C02         4.6850    2.0410   -0.7290 c1        1 JK4      0.111000
      3 N02         5.2330    1.8240   -2.0270 n3        1 JK4     -0.321000
      4 C03         5.5110    2.0220    0.3830 c1        1 JK4     -0.237000
      5 C04         4.9620    2.1560    1.6640 c1        1 JK4      0.002000
      6 C05         3.5970    2.3070    1.8170 c1        1 JK4     -0.230000
      7 C06         2.7610    2.3260    0.6860 c1        1 JK4      0.029000
      8 C07         5.8930    2.1840    2.9070 c3        1 JK4     -0.186000
      9 C08         1.2190    2.3820    0.8680 c3        1 JK4     -0.102000
     10 O09        -1.2260    1.7430    0.4030 os        1 JK4     -0.280000
     11 N1'        -0.4100    5.2870    0.3420 n3        1 JK4     -0.267000
     12 C10        -2.0850    0.8980   -0.4450 c3        1 JK4     -0.023000
     13 C11        -2.3200   -0.4240    0.2230 c3        1 JK4     -0.083000
     14 N12        -3.2180   -1.2340   -0.6000 n3        1 JK4     -0.299000
     15 C13        -3.0500   -2.5880   -0.2810 c3        1 JK4     -0.090000
     16 C14        -3.6160   -3.4480   -1.4150 c3        1 JK4      0.265000
     17 F15        -4.9260   -3.2770   -1.4820 f         1 JK4     -0.163500
     18 F16        -3.0440   -3.0700   -2.5990 f         1 JK4     -0.163500
     19 C2'        -1.4360    4.0580    0.3910 c3        1 JK4     -0.120000
     20 C21        -3.3070   -4.9280   -1.1500 c2        1 JK4     -0.158000
     21 C22        -4.3330   -5.7980   -0.7280 c2        1 JK4      0.087000
     22 F22        -5.5670   -5.3440   -0.5940 f         1 JK4     -0.080000
     23 C23        -4.0580   -7.1680   -0.5270 c1        1 JK4      0.057000
     24 F23        -5.0230   -7.9870   -0.0640 f         1 JK4     -0.086000
     25 C24        -2.7770   -7.6550   -0.7440 c2        1 JK4     -0.128000
     26 C25        -1.7500   -6.7780   -1.1680 c1        1 JK4     -0.121000
     27 C26        -2.0250   -5.4180   -1.3670 c1        1 JK4     -0.091000
     28 C3'        -0.8410    3.0500   -0.2360 c3        1 JK4      0.003000
     29 C4'         0.6590    3.3070   -0.0640 c3        1 JK4     -0.120000
     30 C5'         0.7730    4.7760    0.4890 c3        1 JK4     -0.097000
     31 HN02        6.1160    1.6530   -2.1240 hn        1 JK4      0.195500
     32 HN0A        4.7000    1.8560   -2.7500 hn        1 JK4      0.195500
     33 H03         6.5070    1.9130    0.2690 ha        1 JK4      0.141000
     34 H05         3.2100    2.4010    2.7150 ha        1 JK4      0.141000
     35 H07         5.4260    2.6170    3.6630 hc        1 JK4      0.088333
     36 H07A        6.1370    1.2610    3.1560 hc        1 JK4      0.088333
     37 H07B        6.6990    2.6860    2.6930 hc        1 JK4      0.088333
     38 H08         1.0000    2.6850    1.8140 hc        1 JK4      0.106000
     39 H08A        0.8320    1.4740    0.7100 hc        1 JK4      0.106000
     40 HN1'       -0.5790    5.8400    1.0140 hn        1 JK4      0.143000
     41 H10        -1.6570    0.7570   -1.2820 h1        1 JK4      0.075500
     42 H10A       -2.9700    1.3600   -0.5930 h1        1 JK4      0.075500
     43 H11        -2.7310   -0.2770    1.1110 h1        1 JK4      0.091500
     44 H11A       -1.4350   -0.9090    0.3340 h1        1 JK4      0.091500
     45 HN12       -3.0260   -1.1060   -1.4770 hn        1 JK4      0.175000
     46 H13        -3.5100   -2.7820    0.5240 h1        1 JK4      0.119500
     47 H13A       -2.1260   -2.7760   -0.1720 h1        1 JK4      0.119500
     48 H2'        -2.2340    4.2850   -0.0510 h1        1 JK4      0.095500
     49 H2'A       -1.6260    3.8120    1.3290 h1        1 JK4      0.095500
     50 H24        -2.5810   -8.6140   -0.6030 ha        1 JK4      0.159000
     51 H25        -0.8930   -7.1030   -1.3140 ha        1 JK4      0.149000
     52 H26        -1.3170   -4.8170   -1.6580 ha        1 JK4      0.159000
     53 H3'        -1.0820    3.0490   -1.1930 h1        1 JK4      0.092000
     54 H4'         1.1000    3.2380   -0.9000 hc        1 JK4      0.118000
     55 H5'         1.4400    5.2930   -0.0340 h1        1 JK4      0.094000
     56 H5'A        1.0210    4.7620    1.4420 h1        1 JK4      0.094000
@<TRIPOS>BOND
     1    1    7 1   
     2    2    3 1   
     3    2    4 1   
     4    3   31 1   
     5    3   32 1   
     6    4   33 1   
     7    5    6 1   
     8    5    8 1   
     9    6   34 1   
    10    7    9 1   
    11    8   35 1   
    12    8   36 1   
    13    8   37 1   
    14    9   29 1   
    15    9   38 1   
    16    9   39 1   
    17   10   12 1   
    18   10   28 1   
    19   11   19 1   
    20   11   30 1   
    21   11   40 1   
    22   12   13 1   
    23   12   41 1   
    24   12   42 1   
    25   13   14 1   
    26   13   43 1   
    27   13   44 1   
    28   14   15 1   
    29   14   45 1   
    30   15   16 1   
    31   15   46 1   
    32   15   47 1   
    33   16   17 1   
    34   16   18 1   
    35   16   20 1   
    36   19   28 1   
    37   19   48 1   
    38   19   49 1   
    39   20   21 1   
    40   20   27 1   
    41   21   22 1   
    42   21   23 1   
    43   23   25 1   
    44   25   26 1   
    45   25   50 1   
    46   26   51 1   
    47   27   52 1   
    48   28   29 1   
    49   28   53 1   
    50   29   30 1   
    51   29   54 1   
    52   30   55 1   
    53   30   56 1   
@<TRIPOS>SUBSTRUCTURE
     1 JK4         1 TEMP              0 ****  ****    0 ROOT
