@<TRIPOS>MOLECULE
JK5
   57    59     1     0     0
SMALL
bcc


@<TRIPOS>ATOM
      1 N01        -2.5770   -0.6200    1.9610 nb        1 JK5     -0.818000
      2 C02        -1.9090   -1.8080    2.0920 ca        1 JK5      0.614200
      3 N02        -2.6630   -3.0070    2.0340 nh        1 JK5     -0.932500
      4 C03        -0.5120   -1.8590    2.3580 ca        1 JK5     -0.281300
      5 C04         0.2010   -0.6660    2.4800 ca        1 JK5      0.025700
      6 C05        -0.4850    0.5470    2.3200 ca        1 JK5     -0.262300
      7 C06        -1.8680    0.5300    2.0650 ca        1 JK5      0.455600
      8 C07         1.6510   -0.6710    2.7700 c3        1 JK5     -0.076800
      9 C08        -2.5800    1.8470    1.8930 c3        1 JK5     -0.129700
     10 O09        -5.1790    1.5490    1.0980 os        1 JK5     -0.432600
     11 N1'        -4.0510    3.9530   -0.7400 n3        1 JK5     -0.788200
     12 C10        -6.3580    0.8010    0.8830 c3        1 JK5      0.108400
     13 C11        -6.1580   -0.6710    1.2820 c3        1 JK5      0.067800
     14 N12        -5.3550   -0.8090    2.5290 n4        1 JK5     -0.784000
     15 C13        -5.5280   -2.1110    3.2070 c3        1 JK5      0.050800
     16 C14        -6.7660   -2.1670    4.1830 c3        1 JK5      0.464900
     17 F15        -6.7480   -1.0840    5.0400 f         1 JK5     -0.222300
     18 F16        -7.9420   -1.9540    3.4920 f         1 JK5     -0.222300
     19 C2'        -4.7890    2.7280   -1.0080 c3        1 JK5      0.128800
     20 C21        -6.7070   -3.5070    4.8940 ca        1 JK5     -0.144300
     21 C22        -5.8890   -3.6410    6.0170 ca        1 JK5     -0.144000
     22 C23        -5.8190   -4.8880    6.6650 ca        1 JK5      0.152900
     23 F23        -5.0280   -5.0330    7.7500 f         1 JK5     -0.112900
     24 C24        -6.5660   -5.9840    6.1910 ca        1 JK5     -0.129000
     25 C25        -7.3810   -5.8170    5.0700 ca        1 JK5      0.041400
     26 CL25       -8.2890   -7.1220    4.4920 cl        1 JK5     -0.036400
     27 C26        -7.4600   -4.5800    4.4170 ca        1 JK5     -0.110000
     28 C3'        -4.3020    1.6250   -0.0340 c3        1 JK5      0.106100
     29 C4'        -2.9200    2.1180    0.4410 c3        1 JK5     -0.077700
     30 C5'        -2.9140    3.6330    0.1160 c3        1 JK5      0.150800
     31 HN02       -3.3190   -3.0360    1.2810 hn        1 JK5      0.396300
     32 HN0A       -2.0760   -3.8170    2.0420 hn        1 JK5      0.396300
     33 H03         0.0020   -2.8250    2.4690 ha        1 JK5      0.161000
     34 H05         0.0550    1.5020    2.3920 ha        1 JK5      0.165000
     35 H07         2.1890    0.0390    2.0920 hc        1 JK5      0.068033
     36 H07A        2.0920   -1.6900    2.6380 hc        1 JK5      0.068033
     37 H07B        1.8270   -0.3450    3.8270 hc        1 JK5      0.068033
     38 H08        -1.8980    2.6590    2.2680 hc        1 JK5      0.073200
     39 H08A       -3.5040    1.8770    2.5290 hc        1 JK5      0.073200
     40 HN1'       -4.6410    4.6380   -0.3040 hn        1 JK5      0.367800
     41 H10        -6.7040    0.8340   -0.1830 h1        1 JK5      0.088700
     42 H10A       -7.1280    1.2850    1.5470 h1        1 JK5      0.088700
     43 H11        -7.1700   -1.1430    1.4330 hx        1 JK5      0.102200
     44 H11A       -5.6120   -1.2250    0.4680 hx        1 JK5      0.102200
     45 HN12       -4.3250   -0.6680    2.2740 hn        1 JK5      0.487300
     46 H13        -4.6050   -2.3160    3.8250 hx        1 JK5      0.128700
     47 H13A       -5.6470   -2.9250    2.4400 hx        1 JK5      0.128700
     48 H2'        -4.5550    2.4130   -2.0630 h1        1 JK5      0.063700
     49 H2'A       -5.8970    2.8760   -0.9180 h1        1 JK5      0.063700
     50 H22        -5.3210   -2.7860    6.4120 ha        1 JK5      0.165000
     51 H24        -6.5040   -6.9540    6.7130 ha        1 JK5      0.184000
     52 H26        -8.1260   -4.4520    3.5480 ha        1 JK5      0.166000
     53 H3'        -4.2390    0.6240   -0.5300 h1        1 JK5      0.051700
     54 H4'        -2.1550    1.6170   -0.2150 hc        1 JK5      0.075700
     55 H5'        -1.9780    3.8920   -0.4520 h1        1 JK5      0.059200
     56 H5'A       -2.9230    4.2410    1.0610 h1        1 JK5      0.059200
     57 H122       -5.6170   -0.0530    3.1750 hn        1 JK5      0.487300
@<TRIPOS>BOND
     1    1    2 ar  
     2    1    7 ar  
     3    2    3 1   
     4    2    4 ar  
     5    3   31 1   
     6    3   32 1   
     7    4    5 ar  
     8    4   33 1   
     9    5    6 ar  
    10    5    8 1   
    11    6    7 ar  
    12    6   34 1   
    13    7    9 1   
    14    8   35 1   
    15    8   36 1   
    16    8   37 1   
    17    9   29 1   
    18    9   38 1   
    19    9   39 1   
    20   10   12 1   
    21   10   28 1   
    22   11   19 1   
    23   11   30 1   
    24   11   40 1   
    25   12   13 1   
    26   12   41 1   
    27   12   42 1   
    28   13   14 1   
    29   13   43 1   
    30   13   44 1   
    31   14   15 1   
    32   14   45 1   
    33   14   57 1   
    34   15   16 1   
    35   15   46 1   
    36   15   47 1   
    37   16   17 1   
    38   16   18 1   
    39   16   20 1   
    40   19   28 1   
    41   19   48 1   
    42   19   49 1   
    43   20   21 ar  
    44   20   27 ar  
    45   21   22 ar  
    46   21   50 1   
    47   22   23 1   
    48   22   24 ar  
    49   24   25 ar  
    50   24   51 1   
    51   25   26 1   
    52   25   27 ar  
    53   27   52 1   
    54   28   29 1   
    55   28   53 1   
    56   29   30 1   
    57   29   54 1   
    58   30   55 1   
    59   30   56 1   
@<TRIPOS>SUBSTRUCTURE
     1 JK5         1 TEMP              0 ****  ****    0 ROOT
