@<TRIPOS>MOLECULE
JK5
   57    59     1     0     0
SMALL
bcc


@<TRIPOS>ATOM
      1 N01        -2.5780   -0.6340    1.9560 nb        1 JK5     -0.818000
      2 C02        -1.9180   -1.8270    2.0900 ca        1 JK5      0.614200
      3 N02        -2.6820   -3.0200    2.0420 nv        1 JK5     -0.932500
      4 C03        -0.5200   -1.8870    2.3490 ca        1 JK5     -0.281300
      5 C04         0.2020   -0.6990    2.4610 ca        1 JK5      0.025700
      6 C05        -0.4740    0.5180    2.2970 ca        1 JK5     -0.262300
      7 C06        -1.8580    0.5100    2.0490 ca        1 JK5      0.455600
      8 C07         1.6540   -0.7160    2.7460 c3        1 JK5     -0.076800
      9 C08        -2.5610    1.8320    1.8720 c3        1 JK5     -0.129700
     10 O09        -5.1650    1.5500    1.0880 os        1 JK5     -0.432600
     11 N1'        -4.0260    3.9360   -0.7670 n7        1 JK5     -0.788200
     12 C10        -6.3510    0.8100    0.8820 c3        1 JK5      0.108400
     13 C11        -6.1600   -0.6610    1.2890 c3        1 JK5      0.067800
     14 N12        -5.3540   -0.7970    2.5340 ny        1 JK5     -0.784000
     15 C13        -5.5360   -2.0940    3.2210 c3        1 JK5      0.050800
     16 C14        -6.7710   -2.1340    4.2010 c3        1 JK5      0.464900
     17 F15        -6.7410   -1.0460    5.0510 f         1 JK5     -0.222300
     18 F16        -7.9470   -1.9170    3.5130 f         1 JK5     -0.222300
     19 C2'        -4.7730    2.7140   -1.0260 c3        1 JK5      0.128800
     20 C21        -6.7200   -3.4700    4.9210 ca        1 JK5     -0.144300
     21 C22        -5.9000   -3.6030    6.0420 ca        1 JK5     -0.144000
     22 C23        -5.8380   -4.8460    6.6980 ca        1 JK5      0.152900
     23 F23        -5.0450   -4.9890    7.7830 f         1 JK5     -0.112900
     24 C24        -6.5940   -5.9390    6.2340 ca        1 JK5     -0.129000
     25 C25        -7.4100   -5.7730    5.1140 ca        1 JK5      0.041400
     26 Cl25       -8.3300   -7.0750    4.5470 cl        1 JK5     -0.036400
     27 C26        -7.4820   -4.5400    4.4530 ca        1 JK5     -0.110000
     28 C3'        -4.2920    1.6130   -0.0470 c3        1 JK5      0.107100
     29 C4'        -2.9040    2.0980    0.4200 c3        1 JK5     -0.077700
     30 C5'        -2.8880    3.6120    0.0870 c3        1 JK5      0.150800
     31 HN02       -3.3410   -3.0480    1.2920 hn        1 JK5      0.395800
     32 HN0A       -2.1020   -3.8350    2.0530 hn        1 JK5      0.395800
     33 H03        -0.0130   -2.8570    2.4640 ha        1 JK5      0.161000
     34 H05         0.0730    1.4690    2.3610 ha        1 JK5      0.165000
     35 H07         1.8300   -0.4600    3.8230 hc        1 JK5      0.067700
     36 H07A        2.0980   -1.7230    2.5470 hc        1 JK5      0.067700
     37 H07B        2.1880    0.0390    2.1170 hc        1 JK5      0.067700
     38 H08        -1.8710    2.6410    2.2410 hc        1 JK5      0.073200
     39 H08A       -3.4820    1.8730    2.5120 hc        1 JK5      0.073200
     40 HN1'       -4.6090    4.6270   -0.3340 hn        1 JK5      0.367800
     41 H10        -7.1140    1.3040    1.5450 h1        1 JK5      0.088700
     42 H10A       -6.6990    0.8390   -0.1830 h1        1 JK5      0.088700
     43 H11        -5.6220   -1.2240    0.4760 hx        1 JK5      0.102200
     44 H11A       -7.1760   -1.1250    1.4460 hx        1 JK5      0.102200
     45 HN12       -4.3250   -0.6660    2.2740 hn        1 JK5      0.487300
     46 H13        -4.6120   -2.3030    3.8370 hx        1 JK5      0.128700
     47 H13A       -5.6630   -2.9120    2.4590 hx        1 JK5      0.128700
     48 H2'        -4.5450    2.3920   -2.0790 h1        1 JK5      0.063700
     49 H2'A       -5.8800    2.8710   -0.9320 h1        1 JK5      0.063700
     50 H22        -5.3240   -2.7490    6.4310 ha        1 JK5      0.165000
     51 H24        -6.5380   -6.9060    6.7620 ha        1 JK5      0.184000
     52 H26        -8.1490   -4.4130    3.5850 ha        1 JK5      0.166000
     53 H3'        -4.2380    0.6080   -0.5380 h1        1 JK5      0.051700
     54 H4'        -2.1450    1.5880   -0.2360 hc        1 JK5      0.075700
     55 H5'        -2.8900    4.2250    1.0300 h1        1 JK5      0.059200
     56 H5'A       -1.9520    3.8610   -0.4850 h1        1 JK5      0.059200
     57 H122       -5.6080   -0.0350    3.1760 hn        1 JK5      0.487300
@<TRIPOS>BOND
     1    1    2 ar  
     2    1    7 ar  
     3    2    3 1   
     4    2    4 ar  
     5    3   31 1   
     6    3   32 1   
     7    4    5 ar  
     8    4   33 1   
     9    5    6 ar  
    10    5    8 1   
    11    6    7 ar  
    12    6   34 1   
    13    7    9 1   
    14    8   35 1   
    15    8   36 1   
    16    8   37 1   
    17    9   29 1   
    18    9   38 1   
    19    9   39 1   
    20   10   12 1   
    21   10   28 1   
    22   11   19 1   
    23   11   30 1   
    24   11   40 1   
    25   12   13 1   
    26   12   41 1   
    27   12   42 1   
    28   13   14 1   
    29   13   43 1   
    30   13   44 1   
    31   14   15 1   
    32   14   45 1   
    33   14   57 1   
    34   15   16 1   
    35   15   46 1   
    36   15   47 1   
    37   16   17 1   
    38   16   18 1   
    39   16   20 1   
    40   19   28 1   
    41   19   48 1   
    42   19   49 1   
    43   20   21 ar  
    44   20   27 ar  
    45   21   22 ar  
    46   21   50 1   
    47   22   23 1   
    48   22   24 ar  
    49   24   25 ar  
    50   24   51 1   
    51   25   26 1   
    52   25   27 ar  
    53   27   52 1   
    54   28   29 1   
    55   28   53 1   
    56   29   30 1   
    57   29   54 1   
    58   30   55 1   
    59   30   56 1   
@<TRIPOS>SUBSTRUCTURE
     1 JK5         1 TEMP              0 ****  ****    0 ROOT
