@<TRIPOS>MOLECULE
JK5
   58    60     1     0     0
SMALL
bcc


@<TRIPOS>ATOM
      1 N01         0.1860    0.0230   -0.2530 nb        1 JK5     -0.669000
      2 C02         1.5400    0.1360   -0.1430 ca        1 JK5      0.454200
      3 N02         2.2950    0.1870   -1.4170 n4        1 JK5     -0.819300
      4 C03         2.2450    0.2070    1.0710 ca        1 JK5     -0.206300
      5 C04         1.4920    0.1600    2.2600 ca        1 JK5      0.011700
      6 C05         0.1030    0.0460    2.1690 ca        1 JK5     -0.203300
      7 C06        -0.5200   -0.0210    0.8960 ca        1 JK5      0.455600
      8 C07         2.1770    0.2430    3.5680 c3        1 JK5     -0.085800
      9 C08        -2.0200   -0.1550    0.8260 c3        1 JK5     -0.118700
     10 O09        -4.7060   -0.1930    0.7220 os        1 JK5     -0.460600
     11 N1'        -3.8570    2.8690    1.5950 n3        1 JK5     -0.784200
     12 C10        -5.8870   -0.6860    0.0940 c3        1 JK5      0.102400
     13 C11        -6.4470   -1.7930    0.9900 c3        1 JK5      0.102800
     14 N12        -6.7960   -1.2950    2.3530 n4        1 JK5     -0.755000
     15 C13        -7.3720   -2.3580    3.2180 c3        1 JK5      0.031800
     16 C14        -7.6190   -1.8450    4.6960 c3        1 JK5      0.477900
     17 F15        -6.4340   -1.3630    5.2170 f         1 JK5     -0.219300
     18 F16        -8.3970   -0.7060    4.6680 f         1 JK5     -0.219300
     19 C2'        -4.8220    2.2500    0.7020 c3        1 JK5      0.129800
     20 C21        -8.2170   -3.0010    5.4680 ca        1 JK5     -0.156300
     21 C22        -7.3640   -3.9710    5.9980 ca        1 JK5     -0.152000
     22 C23        -7.9190   -5.0510    6.7070 ca        1 JK5      0.158900
     23 F23        -7.1050   -5.9990    7.2200 f         1 JK5     -0.107900
     24 C24        -9.3130   -5.1510    6.8860 ca        1 JK5     -0.118000
     25 C25       -10.1400   -4.1600    6.3520 ca        1 JK5      0.044400
     26 CL25      -11.8120   -4.2590    6.5640 cl        1 JK5     -0.017400
     27 C26        -9.5980   -3.0780    5.6430 ca        1 JK5     -0.106000
     28 C3'        -4.1930    0.9810    0.0700 c3        1 JK5      0.113100
     29 C4'        -2.6780    1.1160    0.3330 c3        1 JK5     -0.088700
     30 C5'        -2.5460    2.2920    1.3310 c3        1 JK5      0.147800
     31 HN02        2.0570    1.0480   -1.9270 hn        1 JK5      0.474467
     32 HN0A        3.3000    0.1750   -1.2140 hn        1 JK5      0.474467
     33 H03         3.3410    0.2950    1.1220 ha        1 JK5      0.177000
     34 H05        -0.5130    0.0090    3.0820 ha        1 JK5      0.176000
     35 H07         1.5050   -0.0820    4.4010 hc        1 JK5      0.081367
     36 H07A        2.4930    1.3010    3.7660 hc        1 JK5      0.081367
     37 H07B        3.0920   -0.4020    3.5800 hc        1 JK5      0.081367
     38 H08        -2.2930   -1.0010    0.1380 hc        1 JK5      0.074200
     39 H08A       -2.4070   -0.4170    1.8460 hc        1 JK5      0.074200
     40 HN1'       -4.1190    2.7490    2.5550 hn        1 JK5      0.365800
     41 H10        -6.6300    0.1430   -0.0520 h1        1 JK5      0.080700
     42 H10A       -5.6310   -1.1390   -0.9030 h1        1 JK5      0.080700
     43 H11        -5.6810   -2.6120    1.1090 hx        1 JK5      0.119200
     44 H11A       -7.3760   -2.2190    0.5120 hx        1 JK5      0.119200
     45 HN12       -5.9430   -0.9190    2.7940 hn        1 JK5      0.465800
     46 H13        -6.6600   -3.2290    3.2660 hx        1 JK5      0.134200
     47 H13A       -8.3570   -2.6950    2.7900 hx        1 JK5      0.134200
     48 H2'        -5.0520    2.9900   -0.1150 h1        1 JK5      0.064200
     49 H2'A       -5.7810    1.9970    1.2270 h1        1 JK5      0.064200
     50 H22        -6.2720   -3.8890    5.8940 ha        1 JK5      0.158000
     51 H24        -9.7320   -6.0010    7.4500 ha        1 JK5      0.192000
     52 H26       -10.2580   -2.2880    5.2500 ha        1 JK5      0.169000
     53 H3'        -4.4010    0.9220   -1.0300 h1        1 JK5      0.076700
     54 H4'        -2.2060    1.4170   -0.6420 hc        1 JK5      0.084700
     55 H5'        -2.0410    1.9540    2.2770 h1        1 JK5      0.058200
     56 H5'A       -1.9130    3.1030    0.8740 h1        1 JK5      0.058200
     57 H023        2.0540   -0.6220   -2.0050 hn        1 JK5      0.474467
     58 H122       -7.4720   -0.5220    2.2790 hn        1 JK5      0.465800
@<TRIPOS>BOND
     1    1    2 ar  
     2    1    7 ar  
     3    2    3 1   
     4    2    4 ar  
     5    3   31 1   
     6    3   32 1   
     7    3   57 1   
     8    4    5 ar  
     9    4   33 1   
    10    5    6 ar  
    11    5    8 1   
    12    6    7 ar  
    13    6   34 1   
    14    7    9 1   
    15    8   35 1   
    16    8   36 1   
    17    8   37 1   
    18    9   29 1   
    19    9   38 1   
    20    9   39 1   
    21   10   12 1   
    22   10   28 1   
    23   11   19 1   
    24   11   30 1   
    25   11   40 1   
    26   12   13 1   
    27   12   41 1   
    28   12   42 1   
    29   13   14 1   
    30   13   43 1   
    31   13   44 1   
    32   14   15 1   
    33   14   45 1   
    34   14   58 1   
    35   15   16 1   
    36   15   46 1   
    37   15   47 1   
    38   16   17 1   
    39   16   18 1   
    40   16   20 1   
    41   19   28 1   
    42   19   48 1   
    43   19   49 1   
    44   20   21 ar  
    45   20   27 ar  
    46   21   22 ar  
    47   21   50 1   
    48   22   23 1   
    49   22   24 ar  
    50   24   25 ar  
    51   24   51 1   
    52   25   26 1   
    53   25   27 ar  
    54   27   52 1   
    55   28   29 1   
    56   28   53 1   
    57   29   30 1   
    58   29   54 1   
    59   30   55 1   
    60   30   56 1   
@<TRIPOS>SUBSTRUCTURE
     1 JK5         1 TEMP              0 ****  ****    0 ROOT
