@<TRIPOS>MOLECULE
JK5
   56    58     1     0     0
SMALL
bcc


@<TRIPOS>ATOM
      1 N01        -5.6300    0.7490   -1.2310 nb        1 JK5     -0.733000
      2 C02        -6.5830    1.7240   -1.0890 ca        1 JK5      0.629200
      3 N02        -7.7530    1.6490   -1.8650 nh        1 JK5     -0.922500
      4 C03        -6.4570    2.7710   -0.1270 ca        1 JK5     -0.301300
      5 C04        -5.3470    2.7850    0.7140 ca        1 JK5     -0.006300
      6 C05        -4.3840    1.7770    0.5830 ca        1 JK5     -0.291300
      7 C06        -4.5660    0.7830   -0.3990 ca        1 JK5      0.449600
      8 C07        -5.1890    3.8400    1.7420 c3        1 JK5     -0.061800
      9 C08        -3.5080   -0.2790   -0.5460 c3        1 JK5     -0.113700
     10 O09        -1.7400   -2.1890   -0.7920 os        1 JK5     -0.423600
     11 N1'        -3.8270   -2.9750    1.9160 n3        1 JK5     -0.786200
     12 C10        -0.8220   -3.1550   -1.3030 c3        1 JK5      0.121400
     13 C11         0.4940   -2.4130   -1.5590 c3        1 JK5      0.167800
     14 N12         1.1630   -2.0140   -0.3370 n3        1 JK5     -0.820200
     15 C13         2.2310   -1.0700   -0.5630 c3        1 JK5      0.133800
     16 C14         2.8160   -0.4770    0.7680 c3        1 JK5      0.459900
     17 F15         1.8320    0.1340    1.5240 f         1 JK5     -0.228800
     18 F16         3.2590   -1.4580    1.6300 f         1 JK5     -0.228800
     19 C2'        -2.8190   -3.4820    0.9930 c3        1 JK5      0.112800
     20 C21         3.9290    0.4920    0.3730 ca        1 JK5     -0.121300
     21 C22         3.6230    1.8300    0.1310 ca        1 JK5     -0.139000
     22 C23         4.6480    2.7060   -0.2710 ca        1 JK5      0.134900
     23 F23         4.3630    4.0080   -0.5110 f         1 JK5     -0.130900
     24 C24         5.9670    2.2430   -0.4270 ca        1 JK5     -0.150000
     25 C25         6.2430    0.8990   -0.1720 ca        1 JK5      0.036400
     26 CL25        7.8310    0.3260   -0.3520 cl        1 JK5     -0.072400
     27 C26         5.2340    0.0170    0.2280 ca        1 JK5     -0.111000
     28 C3'        -2.9740   -2.7690   -0.3780 c3        1 JK5      0.116100
     29 C4'        -4.0130   -1.6500   -0.1490 c3        1 JK5     -0.079700
     30 C5'        -4.3600   -1.7370    1.3560 c3        1 JK5      0.140800
     31 HN02       -7.7140    1.0300   -2.6460 hn        1 JK5      0.398800
     32 HN0A       -8.1390    2.5410   -2.0830 hn        1 JK5      0.398800
     33 H03        -7.2300    3.5470   -0.0420 ha        1 JK5      0.141000
     34 H05        -3.5010    1.7590    1.2340 ha        1 JK5      0.145000
     35 H07        -5.5200    3.4500    2.7370 hc        1 JK5      0.049700
     36 H07A       -4.1190    4.1510    1.8270 hc        1 JK5      0.049700
     37 H07B       -5.8030    4.7400    1.4950 hc        1 JK5      0.049700
     38 H08        -3.1570   -0.3180   -1.6130 hc        1 JK5      0.067700
     39 H08A       -2.6200   -0.0080    0.0850 hc        1 JK5      0.067700
     40 HN1'       -4.5630   -3.6490    2.0250 hn        1 JK5      0.346800
     41 H10        -0.6910   -3.9910   -0.5670 h1        1 JK5      0.041200
     42 H10A       -1.2120   -3.5650   -2.2720 h1        1 JK5      0.041200
     43 H11         1.1830   -3.1110   -2.1140 h1        1 JK5      0.041700
     44 H11A        0.2730   -1.5340   -2.2350 h1        1 JK5      0.041700
     45 HN12        0.5020   -1.6570    0.3310 hn        1 JK5      0.384800
     46 H13         3.0700   -1.6070   -1.0850 h1        1 JK5      0.055200
     47 H13A        1.9220   -0.1860   -1.1930 h1        1 JK5      0.055200
     48 H2'        -1.8080   -3.2360    1.4220 h1        1 JK5      0.057700
     49 H2'A       -2.8900   -4.5940    0.8710 h1        1 JK5      0.057700
     50 H22         2.5960    2.2050    0.2620 ha        1 JK5      0.166000
     51 H24         6.7580    2.9400   -0.7410 ha        1 JK5      0.167000
     52 H26         5.4610   -1.0400    0.4410 ha        1 JK5      0.168000
     53 H3'        -3.3320   -3.4860   -1.1640 h1        1 JK5      0.042700
     54 H4'        -4.9260   -1.8950   -0.7550 hc        1 JK5      0.071700
     55 H5'        -5.4690   -1.6630    1.5090 h1        1 JK5      0.056200
     56 H5'A       -3.8770   -0.8830    1.9080 h1        1 JK5      0.056200
@<TRIPOS>BOND
     1    1    2 ar  
     2    1    7 ar  
     3    2    3 1   
     4    2    4 ar  
     5    3   31 1   
     6    3   32 1   
     7    4    5 ar  
     8    4   33 1   
     9    5    6 ar  
    10    5    8 1   
    11    6    7 ar  
    12    6   34 1   
    13    7    9 1   
    14    8   35 1   
    15    8   36 1   
    16    8   37 1   
    17    9   29 1   
    18    9   38 1   
    19    9   39 1   
    20   10   12 1   
    21   10   28 1   
    22   11   19 1   
    23   11   30 1   
    24   11   40 1   
    25   12   13 1   
    26   12   41 1   
    27   12   42 1   
    28   13   14 1   
    29   13   43 1   
    30   13   44 1   
    31   14   15 1   
    32   14   45 1   
    33   15   16 1   
    34   15   46 1   
    35   15   47 1   
    36   16   17 1   
    37   16   18 1   
    38   16   20 1   
    39   19   28 1   
    40   19   48 1   
    41   19   49 1   
    42   20   21 ar  
    43   20   27 ar  
    44   21   22 ar  
    45   21   50 1   
    46   22   23 1   
    47   22   24 ar  
    48   24   25 ar  
    49   24   51 1   
    50   25   26 1   
    51   25   27 ar  
    52   27   52 1   
    53   28   29 1   
    54   28   53 1   
    55   29   30 1   
    56   29   54 1   
    57   30   55 1   
    58   30   56 1   
@<TRIPOS>SUBSTRUCTURE
     1 JK5         1 TEMP              0 ****  ****    0 ROOT
