@<TRIPOS>MOLECULE
JKE
   15    15     1     0     0
SMALL
bcc


@<TRIPOS>ATOM
      1 SD          0.2830    2.2960   -0.1280 sh        1 JKE     -0.432700
      2 CZ         -0.0120   -0.4690   -0.1260 ca        1 JKE     -0.130600
      3 CD1        -1.9610    0.9720    0.0000 ca        1 JKE     -0.152000
      4 OD1         2.2490    0.0080   -0.8300 o         1 JKE     -0.828300
      5 CD2        -2.2520   -1.4190    0.0120 ca        1 JKE     -0.172000
      6 OD2         1.8750   -1.8450    0.3430 o         1 JKE     -0.828300
      7 CE1        -0.5680    0.8160   -0.0910 ca        1 JKE      0.081900
      8 CE2        -0.8730   -1.5760   -0.0700 ca        1 JKE     -0.094000
      9 CG1        -2.8000   -0.1350    0.0490 ca        1 JKE     -0.146000
     10 HSD         1.5340    1.8460   -0.3950 hs        1 JKE      0.316800
     11 HD1        -2.3870    1.9860    0.0290 ha        1 JKE      0.119000
     12 HD2        -2.9090   -2.2990    0.0520 ha        1 JKE      0.106000
     13 HE2        -0.4170   -2.5800   -0.0760 ha        1 JKE      0.150000
     14 HG1        -3.8870    0.0010    0.1170 ha        1 JKE      0.103000
     15 CG          1.4780   -0.7810   -0.2070 c         1 JKE      0.907200
@<TRIPOS>BOND
     1    1    7 1   
     2    1   10 1   
     3    2    7 ar  
     4    2    8 ar  
     5    2   15 1   
     6    3    7 ar  
     7    3    9 ar  
     8    3   11 1   
     9    4   15 1   
    10    5    8 ar  
    11    5    9 ar  
    12    5   12 1   
    13    6   15 1   
    14    8   13 1   
    15    9   14 1   
@<TRIPOS>SUBSTRUCTURE
     1 JKE         1 TEMP              0 ****  ****    0 ROOT
