@<TRIPOS>MOLECULE
JKE
   15    14     1     0     0
SMALL
bcc


@<TRIPOS>ATOM
      1 SD          0.3320   -1.1430    0.0740 s         1 JKE     -0.606000
      2 CZ          2.5380   -0.2600    1.2400 c2        1 JKE     -0.105000
      3 CD1         2.3570    0.0260   -1.2020 c2        1 JKE     -0.229000
      4 OD1         0.5980    0.5370    2.5510 oh        1 JKE     -0.327000
      5 CD2         4.2500    1.0510   -2.4270 c1        1 JKE      0.049000
      6 OD2         2.5620    1.3060    3.0850 o         1 JKE     -0.387000
      7 CE1         1.8150   -0.4040   -0.0330 c2        1 JKE     -0.021000
      8 CE2         3.7090   -0.8670    1.4780 c2        1 JKE     -0.193000
      9 CG1         3.6370    0.6760   -1.3260 c2        1 JKE     -0.370000
     10 HSD         0.1510   -0.0480    1.8720 ho        1 JKE      0.294000
     11 HD1         1.7860   -0.1170   -2.1320 ha        1 JKE      0.133000
     12 HD2         4.1590    0.8830   -0.3630 ha        1 JKE      0.181000
     13 HE2         4.2250   -0.7770    2.4430 ha        1 JKE      0.114500
     14 HG1         4.2000   -1.4930    0.7230 ha        1 JKE      0.114500
     15 CG          1.9270    0.5660    2.3150 c2        1 JKE      0.351000
@<TRIPOS>BOND
     1    1    7 1   
     2    2    7 1   
     3    2    8 1   
     4    2   15 1   
     5    3    7 1   
     6    3    9 1   
     7    3   11 1   
     8    4   10 1   
     9    4   15 1   
    10    5    9 1   
    11    6   15 1   
    12    8   13 1   
    13    8   14 1   
    14    9   12 1   
@<TRIPOS>SUBSTRUCTURE
     1 JKE         1 TEMP              0 ****  ****    0 ROOT
