@<TRIPOS>MOLECULE
JKE
   15    12     1     0     0
SMALL
bcc


@<TRIPOS>ATOM
      1 SD         -2.6190   -0.0910   -0.3890 sh        1 JKE     -0.034000
      2 CG         -0.8900   -0.0770    2.1080 c1        1 JKE      0.356000
      3 CZ         -0.1440   -0.0630    0.7920 c1        1 JKE     -0.110000
      4 CD1        -0.1630   -0.0780   -1.6080 c1        1 JKE     -0.152000
      5 OD1        -1.0880    1.0000    2.7300 o         1 JKE     -0.563000
      6 CD2         1.9250   -0.0460   -0.4250 c1        1 JKE     -0.159000
      7 OD2        -1.3020   -1.1660    2.5860 o         1 JKE     -0.563000
      8 CE1        -0.8460   -0.0790   -0.4030 c2        1 JKE     -0.145000
      9 CE2         1.2420   -0.0470    0.7810 c1        1 JKE     -0.094000
     10 CG1         1.2230   -0.0620   -1.6200 c1        1 JKE     -0.159000
     11 HSD        -3.0220    0.9270   -0.8230 hs        1 JKE      0.145000
     12 HD1        -0.6580   -0.0880   -2.4500 ha        1 JKE      0.119000
     13 HD2         2.9010   -0.0340   -0.4330 ha        1 JKE      0.104500
     14 HE2         1.7370   -0.0350    1.6220 ha        1 JKE      0.150000
     15 HG1         1.7040   -0.0610   -2.4690 ha        1 JKE      0.104500
@<TRIPOS>BOND
     1    1    8 1   
     2    1   11 1   
     3    2    5 1   
     4    2    7 1   
     5    3    8 1   
     6    3    9 1   
     7    4    8 1   
     8    4   12 1   
     9    6   10 1   
    10    6   13 1   
    11    9   14 1   
    12   10   15 1   
@<TRIPOS>SUBSTRUCTURE
     1 JKE         1 TEMP              0 ****  ****    0 ROOT
