@<TRIPOS>MOLECULE
JKF
   58    57     1     0     0
SMALL
bcc


@<TRIPOS>ATOM
      1 CAA        -0.3220    0.5450   -0.2920 c3        1 JKF     -0.077000
      2 CAB         7.1950    1.5900    4.9590 c1        1 JKF     -0.027000
      3 CAC        -0.8350    4.1910    5.3880 c1        1 JKF     -0.096000
      4 OAD        -0.3520    6.6890    4.0750 o         1 JKF     -0.240000
      5 CAH         5.7300    4.0920   -0.8030 c2        1 JKF     -0.546000
      6 CAI         5.3720    4.6290    0.4460 c1        1 JKF     -0.046000
      7 CAJ         6.9570    3.6450   -1.0650 c1        1 JKF      0.422000
      8 CAK         2.4320   -2.8810    3.2080 c2        1 JKF     -0.069000
      9 CAL         1.9050   -4.0330    1.0820 c1        1 JKF      0.217000
     10 CAM         1.7830   -1.7260    2.9700 c2        1 JKF     -0.168000
     11 CAN         0.3670   -2.2670    1.0510 c2        1 JKF     -0.191000
     12 CAO         0.1750    0.9550    2.9380 ca        1 JKF     -0.103000
     13 CAP         3.9600    0.2700    1.7060 c1        1 JKF      0.096000
     14 CAQ        -0.2050    2.0330    3.7280 ca        1 JKF     -0.113000
     15 CAR         5.9620    0.8650    3.0990 c1        1 JKF      0.208000
     16 CAS         1.7310    5.7720    3.3010 c1        1 JKF      0.089000
     17 CAT         1.7260    2.3570    1.7470 ca        1 JKF     -0.079000
     18 NAU         4.8310    0.5940    2.4930 n2        1 JKF     -0.219000
     19 OAV         1.0110    0.0630   -0.2460 os        1 JKF     -0.268000
     20 CAW         2.6340   -3.9010    2.1990 c2        1 JKF     -0.357000
     21 CAX         4.0160    5.1730    0.6970 c3        1 JKF      0.049000
     22 CAY         4.4140    4.2780    2.9570 c2        1 JKF      0.059000
     23 CAZ         1.1790   -1.4010    1.6860 c2        1 JKF     -0.089000
     24 CBA         1.1520    1.0990    1.9480 ca        1 JKF     -0.115000
     25 CBB         2.0330    4.7800    2.2700 c3        1 JKF     -0.098000
     26 CBC         3.5080    4.6790    2.0370 c2        1 JKF     -0.178000
     27 CBD         3.0600   -0.0880    0.8190 c2        1 JKF     -0.200000
     28 CBE         0.3810    5.7120    3.8800 c2        1 JKF      0.180000
     29 CBF         1.3710    3.4550    2.5340 ca        1 JKF     -0.111000
     30 CBG         0.3870    3.3000    3.5400 ca        1 JKF      0.058000
     31 NBH         6.0070    1.4060    4.3940 n3        1 JKF     -0.250000
     32 NBI        -0.0450    4.4010    4.3520 n         1 JKF     -0.170000
     33 CBJ         1.5750   -0.0630    1.0760 c3        1 JKF      0.227000
     34 HAA        -0.6440    0.3440   -1.3460 h1        1 JKF      0.080667
     35 HAAA       -0.3410    1.6420   -0.0790 h1        1 JKF      0.080667
     36 HAAB       -0.9770    0.0030    0.4320 h1        1 JKF      0.080667
     37 HAB         3.2670    0.7440    5.9000 ha        1 JKF      0.000750
     38 HABA        3.1080    0.3550    5.3690 ha        1 JKF      0.000750
     39 HABB        7.1260    2.0250    5.9860 ha        1 JKF      0.023000
     40 HAC        -2.8160    2.8040    5.4920 ha        1 JKF      0.000750
     41 HACA       -3.3080    2.3580    5.3510 ha        1 JKF      0.000750
     42 HACB       -1.1470    5.1010    5.9430 ha        1 JKF      0.076000
     43 HAH         4.9750    4.0200   -1.6240 ha        1 JKF      0.194000
     44 HAI         4.1770    6.3010    0.7930 h1        1 JKF      0.148000
     45 HAJ         5.5060    4.2700    2.7470 h4        1 JKF      0.196000
     46 HAK         2.8660   -3.0870    4.2020 ha        1 JKF      0.149000
     47 HAL        -0.0150   -2.0750    0.0380 ha        1 JKF      0.144500
     48 HAM         1.7170   -0.9540    3.7560 ha        1 JKF      0.149000
     49 HAN        -0.0390   -3.1700    1.5390 ha        1 JKF      0.144500
     50 HAO        -0.3150   -0.0200    3.0970 ha        1 JKF      0.151000
     51 HAP         3.3630   -0.4620   -0.1740 ha        1 JKF      0.188000
     52 HAQ        -0.9770    1.9070    4.5120 ha        1 JKF      0.186000
     53 HAR         5.1430    1.6450    4.8620 hn        1 JKF      0.148000
     54 HAS         1.5560    5.1980    1.3130 hc        1 JKF      0.183000
     55 HAT         2.4760    2.4940    0.9480 ha        1 JKF      0.158000
     56 FAE         3.0800    4.9770   -0.3180 f         1 JKF     -0.187000
     57 FAF         4.1010    3.8500    4.1940 f         1 JKF     -0.115000
     58 CLAG        3.9140   -5.0000    2.4580 cl        1 JKF      0.023000
@<TRIPOS>BOND
     1    1   19 1   
     2    1   34 1   
     3    1   35 1   
     4    1   36 1   
     5    2   31 1   
     6    2   39 1   
     7    3   32 1   
     8    3   42 1   
     9    4   28 1   
    10    5    6 1   
    11    5    7 1   
    12    5   43 1   
    13    6   21 1   
    14    8   10 1   
    15    8   20 1   
    16    8   46 1   
    17    9   20 1   
    18   10   23 1   
    19   10   48 1   
    20   11   23 1   
    21   11   47 1   
    22   11   49 1   
    23   12   14 1   
    24   12   24 1   
    25   12   50 1   
    26   13   18 1   
    27   13   27 1   
    28   14   30 1   
    29   14   52 1   
    30   15   18 1   
    31   15   31 1   
    32   16   25 1   
    33   16   28 1   
    34   17   24 1   
    35   17   29 1   
    36   17   55 1   
    37   19   33 1   
    38   20   58 1   
    39   21   26 1   
    40   21   44 1   
    41   21   56 1   
    42   22   26 1   
    43   22   45 1   
    44   22   57 1   
    45   23   33 1   
    46   24   33 1   
    47   25   26 1   
    48   25   29 1   
    49   25   54 1   
    50   27   33 1   
    51   27   51 1   
    52   28   32 1   
    53   29   30 1   
    54   30   32 1   
    55   31   53 1   
    56   37   38 1   
    57   40   41 1   
@<TRIPOS>SUBSTRUCTURE
     1 JKF         1 TEMP              0 ****  ****    0 ROOT
