@<TRIPOS>MOLECULE
JKF
   58    50     1     0     0
SMALL
bcc


@<TRIPOS>ATOM
      1 CAA        -1.7430   -1.2160   -2.5170 c3        1 JKF     -0.075000
      2 CAB         3.1110   -2.0240   -2.3120 c3        1 JKF     -0.073000
      3 CAC        -3.2350    2.4420    3.5650 c3        1 JKF     -0.093000
      4 OAD        -2.0150    4.9160    3.1280 o         1 JKF     -0.351000
      5 FAE        -0.2740    3.4490   -2.1640 f         1 JKF     -0.093000
      6 FAF         2.6630    3.6710    1.5160 f         1 JKF     -0.088000
      7 CLAG       -2.5410   -7.0570    0.5530 cl        1 JKF     -0.013000
      8 CAH         3.2060    4.3080   -1.9100 c1        1 JKF     -0.119500
      9 CAI         1.9550    4.0920   -2.4540 c1        1 JKF     -0.185000
     10 CAJ         3.4380    4.0320   -0.5740 c1        1 JKF     -0.119500
     11 CAK        -1.5140   -4.7720    1.1820 c1        1 JKF     -0.119500
     12 CAL        -1.3360   -5.2100   -1.1650 c1        1 JKF     -0.130000
     13 CAM        -1.1440   -3.4550    0.9660 c1        1 JKF     -0.119500
     14 CAN        -0.9650   -3.8920   -1.3820 c1        1 JKF     -0.089000
     15 CAO        -1.8910   -0.7740    0.9790 c1        1 JKF     -0.089000
     16 CAP         1.6120   -1.6450    0.9760 c1        1 JKF     -0.166000
     17 CAQ        -2.3040    0.2700    1.8180 c1        1 JKF     -0.191000
     18 CAR         3.4570   -1.8640   -0.1700 c1        1 JKF     -0.105000
     19 CAS        -0.4430    4.1890    1.5460 c1        1 JKF     -0.187000
     20 CAT        -0.2010    0.6650    0.0090 c1        1 JKF     -0.039000
     21 NAU         2.9440   -1.7030    1.0790 n2        1 JKF     -0.142000
     22 OAV        -0.3650   -1.4740   -2.1130 os        1 JKF     -0.284000
     23 CAW        -1.6100   -5.6480    0.1160 c1        1 JKF     -0.058000
     24 CAX         0.9280    3.5980   -1.6610 c2        1 JKF      0.134000
     25 CAY         2.4130    3.5380    0.2200 c1        1 JKF      0.141000
     26 CAZ        -0.8690   -3.0160   -0.3160 c1        1 JKF     -0.127000
     27 CBA        -0.8390   -0.5750    0.0750 c1        1 JKF     -0.127000
     28 CBB         0.0130    3.0890    0.7000 c1        1 JKF      0.055000
     29 CBC         1.1570    3.3210   -0.3250 c2        1 JKF     -0.138000
     30 CBD         1.2830   -1.7700   -0.3560 c1        1 JKF     -0.123000
     31 CBE        -1.5340    3.9640    2.5240 c1        1 JKF      0.335000
     32 CBF        -0.6120    1.7110    0.8460 c1        1 JKF     -0.115000
     33 CBG        -1.6690    1.5090    1.7540 c2        1 JKF      0.119000
     34 NBH         2.4190   -1.9040   -1.0500 n3        1 JKF     -0.127000
     35 NBI        -2.1460    2.6530    2.6380 n3        1 JKF     -0.250000
     36 CBJ        -0.2020   -1.7030   -0.6940 c2        1 JKF      0.254000
     37 HAA        -1.8520   -1.4290   -3.4800 h1        1 JKF      0.080333
     38 HAAA       -2.3460   -1.7750   -1.9910 h1        1 JKF      0.080333
     39 HAAB       -1.9620   -0.2480   -2.3610 h1        1 JKF      0.080333
     40 HAB         3.8480   -2.6360   -2.2170 h1        1 JKF      0.098000
     41 HABA        3.4500   -1.1420   -2.5850 h1        1 JKF      0.098000
     42 HABB        2.4940   -2.3600   -2.9910 h1        1 JKF      0.098000
     43 HAC        -3.0850    1.5970    4.0670 h1        1 JKF      0.098667
     44 HACA       -4.0910    2.3810    3.0620 h1        1 JKF      0.098667
     45 HACB       -3.2800    3.2100    4.2100 h1        1 JKF      0.098667
     46 HAH         3.9360    4.6610   -2.4760 ha        1 JKF      0.152500
     47 HAI         1.7960    4.2830   -3.3830 ha        1 JKF      0.156000
     48 HAJ         4.3220    4.1840   -0.1910 ha        1 JKF      0.152500
     49 HAK        -1.7070   -5.0790    2.0780 ha        1 JKF      0.152500
     50 HAL        -1.4030   -5.8310   -1.9200 ha        1 JKF      0.148000
     51 HAM        -1.0770   -2.8430    1.7120 ha        1 JKF      0.152500
     52 HAN        -0.7750   -3.5890   -2.2680 ha        1 JKF      0.147500
     53 HAO        -2.3280   -1.6220    1.0230 ha        1 JKF      0.147500
     54 HAP         0.9770   -1.5320    1.7200 DU        1 JKF      0.190000
     55 HAQ        -3.0280    0.1310    2.4420 ha        1 JKF      0.145000
     56 HAR         4.4020   -1.9370   -0.3960 DU        1 JKF      0.190000
     57 HAS         0.0350    5.0580    1.5280 ha        1 JKF      0.172000
     58 HAT         0.5280    0.8020   -0.6140 ha        1 JKF      0.160000
@<TRIPOS>BOND
     1    1   22 1   
     2    1   37 1   
     3    1   38 1   
     4    1   39 1   
     5    2   34 1   
     6    2   40 1   
     7    2   41 1   
     8    2   42 1   
     9    3   35 1   
    10    3   43 1   
    11    3   44 1   
    12    3   45 1   
    13    4   31 1   
    14    5   24 1   
    15    6   25 1   
    16    7   23 1   
    17    8   10 1   
    18    8   46 1   
    19    9   24 1   
    20    9   47 1   
    21   10   48 1   
    22   11   13 1   
    23   11   49 1   
    24   12   23 1   
    25   12   50 1   
    26   13   51 1   
    27   14   26 1   
    28   14   52 1   
    29   15   27 1   
    30   15   53 1   
    31   16   21 1   
    32   16   30 1   
    33   17   33 1   
    34   17   55 1   
    35   18   21 1   
    36   18   34 1   
    37   19   28 1   
    38   19   57 1   
    39   20   32 1   
    40   20   58 1   
    41   22   36 1   
    42   24   29 1   
    43   25   29 1   
    44   26   36 1   
    45   27   36 1   
    46   28   29 1   
    47   30   34 1   
    48   31   35 1   
    49   32   33 1   
    50   33   35 1   
@<TRIPOS>SUBSTRUCTURE
     1 JKF         1 TEMP              0 ****  ****    0 ROOT
