@<TRIPOS>MOLECULE
JKF
   58    62     1     0     0
SMALL
bcc


@<TRIPOS>ATOM
      1 CAA        -1.8550    0.2130   -3.1300 c3        1 JKF      0.109700
      2 CAB        -1.0840   -1.2410    2.2130 c3        1 JKF      0.015600
      3 CAC         1.8620    4.9500    0.0290 c3        1 JKF      0.062300
      4 OAD         4.4450    4.1830    0.5430 o         1 JKF     -0.625500
      5 CAH         4.3680   -3.2470    0.1350 ca        1 JKF     -0.067000
      6 CAI         4.3770   -2.5300   -1.0560 ca        1 JKF     -0.180500
      7 CAJ         3.9600   -2.6470    1.3220 ca        1 JKF     -0.180500
      8 CAK        -4.5130    0.8240    1.1360 ca        1 JKF     -0.130000
      9 CAL        -5.3720   -0.5730   -0.6510 ca        1 JKF     -0.130000
     10 CAM        -3.2120    0.5660    0.7050 ca        1 JKF     -0.108000
     11 CAN        -4.0690   -0.8230   -1.0730 ca        1 JKF     -0.108000
     12 CAO        -0.9340    1.8610   -0.6680 ca        1 JKF     -0.073000
     13 CAP        -0.9230   -3.1250   -0.9030 cc        1 JKF      0.329200
     14 CAQ        -0.0130    2.8680   -0.4520 ca        1 JKF     -0.191000
     15 CAR        -0.6420   -3.5100    1.2280 cd        1 JKF      0.385400
     16 CAS         4.0180    1.8460    0.3400 cc        1 JKF     -0.206200
     17 CAT         0.7670    0.1920   -0.3590 ca        1 JKF     -0.039000
     18 NAU        -0.6020   -4.1120    0.0200 nc        1 JKF     -0.671000
     19 OAV        -1.5850   -0.8920   -2.2850 os        1 JKF     -0.407600
     20 CAW        -5.5920    0.2540    0.4550 ca        1 JKF      0.022400
     21 CAX         3.9670   -1.1840   -1.0650 ca        1 JKF      0.169400
     22 CAY         3.5460   -1.3020    1.3180 ca        1 JKF      0.169400
     23 CAZ        -2.9760   -0.2530   -0.4050 ca        1 JKF     -0.113300
     24 CBA        -0.5650    0.5050   -0.6020 ca        1 JKF     -0.161300
     25 CBB         3.1190    0.8590    0.1170 cd        1 JKF      0.077600
     26 CBC         3.5380   -0.5480    0.1230 ca        1 JKF     -0.148800
     27 CBD        -1.1620   -1.8970   -0.2450 cd        1 JKF     -0.225900
     28 CBE         3.6320    3.2630    0.3300 c         1 JKF      0.695700
     29 CBF         1.7300    1.1910   -0.1380 ca        1 JKF     -0.127800
     30 CBG         1.3460    2.5630   -0.1700 ca        1 JKF      0.110600
     31 NBH        -0.9800   -2.1520    1.1230 na        1 JKF     -0.187900
     32 NBI         2.2810    3.5720    0.0660 n         1 JKF     -0.347000
     33 CBJ        -1.5720   -0.5910   -0.8700 c3        1 JKF      0.347700
     34 HAA        -1.0270    0.9620   -3.0810 h1        1 JKF      0.041033
     35 HAAA       -1.9120   -0.2420   -4.1520 h1        1 JKF      0.041033
     36 HAAB       -2.8270    0.6950   -2.8580 h1        1 JKF      0.041033
     37 HAB        -2.1650   -1.0190    2.4340 h1        1 JKF      0.058367
     38 HABA       -0.6090   -1.6910    3.1250 h1        1 JKF      0.058367
     39 HABB       -0.5590   -0.2800    1.9570 h1        1 JKF      0.058367
     40 HAC         2.7380    5.6180    0.2510 h1        1 JKF      0.059700
     41 HACA        1.4610    5.2040   -0.9890 h1        1 JKF      0.059700
     42 HACB        1.0630    5.1310    0.7970 h1        1 JKF      0.059700
     43 HAH         4.6850   -4.3020    0.1390 ha        1 JKF      0.150000
     44 HAI         4.6980   -3.0010   -1.9970 ha        1 JKF      0.157500
     45 HAJ         3.9540   -3.2100    2.2670 ha        1 JKF      0.157500
     46 HAK        -4.6840    1.4720    2.0090 ha        1 JKF      0.149500
     47 HAL        -6.2200   -1.0280   -1.1850 ha        1 JKF      0.149500
     48 HAM        -2.3670    1.0170    1.2490 ha        1 JKF      0.150000
     49 HAN        -3.8860   -1.4810   -1.9390 ha        1 JKF      0.150000
     50 HAO        -1.9780    2.1260   -0.9050 ha        1 JKF      0.146000
     51 HAP        -0.9710   -3.3150   -1.9760 h4        1 JKF      0.054100
     52 HAQ        -0.3490    3.9150   -0.5100 ha        1 JKF      0.144000
     53 HAR        -0.4430   -3.9890    2.1920 h5        1 JKF      0.060100
     54 HAS         5.0840    1.6570    0.5380 ha        1 JKF      0.172000
     55 HAT         1.0920   -0.8630   -0.3500 ha        1 JKF      0.160000
     56 FAE         3.9890   -0.5020   -2.2330 f         1 JKF     -0.127400
     57 FAF         3.1510   -0.7370    2.4830 f         1 JKF     -0.127400
     58 CLAG       -7.1790    0.5670    0.9750 cl        1 JKF     -0.090400
@<TRIPOS>BOND
     1    1   19 1   
     2    1   34 1   
     3    1   35 1   
     4    1   36 1   
     5    2   31 1   
     6    2   37 1   
     7    2   38 1   
     8    2   39 1   
     9    3   32 1   
    10    3   40 1   
    11    3   41 1   
    12    3   42 1   
    13    4   28 2   
    14    5    6 ar  
    15    5    7 ar  
    16    5   43 1   
    17    6   21 ar  
    18    6   44 1   
    19    7   22 ar  
    20    7   45 1   
    21    8   10 ar  
    22    8   20 ar  
    23    8   46 1   
    24    9   11 ar  
    25    9   20 ar  
    26    9   47 1   
    27   10   23 ar  
    28   10   48 1   
    29   11   23 ar  
    30   11   49 1   
    31   12   14 ar  
    32   12   24 ar  
    33   12   50 1   
    34   13   18 1   
    35   13   27 2   
    36   13   51 1   
    37   14   30 ar  
    38   14   52 1   
    39   15   18 2   
    40   15   31 1   
    41   15   53 1   
    42   16   25 2   
    43   16   28 1   
    44   16   54 1   
    45   17   24 ar  
    46   17   29 ar  
    47   17   55 1   
    48   19   33 1   
    49   20   58 1   
    50   21   26 ar  
    51   21   56 1   
    52   22   26 ar  
    53   22   57 1   
    54   23   33 1   
    55   24   33 1   
    56   25   26 1   
    57   25   29 1   
    58   27   31 1   
    59   27   33 1   
    60   28   32 1   
    61   29   30 ar  
    62   30   32 1   
@<TRIPOS>SUBSTRUCTURE
     1 JKF         1 TEMP              0 ****  ****    0 ROOT
