@<TRIPOS>MOLECULE
JKK
   27    26     1     0     0
SMALL
bcc


@<TRIPOS>ATOM
      1 CAE         0.4980    0.4890    0.0810 c3        1 JKK     -0.236000
      2 CAF         1.6370   -0.4210   -0.0080 c1        1 JKK      0.054000
      3 CAG        -0.5080    0.1460    1.1200 c2        1 JKK     -0.126000
      4 CAH         1.0070   -1.5990    2.0580 c1        1 JKK      0.180000
      5 CAI        -1.8400   -1.5970    5.3120 c3        1 JKK     -0.073000
      6 CAJ        -1.3100   -2.6150    6.2510 c3        1 JKK     -0.843000
      7 CAM         1.7720   -1.4590    0.9720 c2        1 JKK     -0.385000
      8 CAN        -0.3060    0.3740    2.4300 c2        1 JKK     -0.204000
      9 NAL        -0.7840   -1.0920    4.3610 ny        1 JKK     -0.044000
     10 OAA        -3.6590   -3.5780    6.3840 o         1 JKK     -1.046333
     11 OAB        -2.1770   -4.0880    8.1790 o         1 JKK     -1.046333
     12 OAC        -3.0790   -1.8970    7.9300 o         1 JKK     -1.046333
     13 SAO        -2.7530   -3.1310    7.3540 s6        1 JKK      2.873000
     14 Cl          3.0410   -2.5690    0.7120 cl        1 JKK      0.073000
     15 H1         -1.4310   -0.3410    0.7570 ha        1 JKK      0.152000
     16 H2          0.9240    1.5250    0.2400 hc        1 JKK      0.171500
     17 H3          0.0180    0.5100   -0.9430 hc        1 JKK      0.171500
     18 H4          0.5820    0.9180    2.7960 ha        1 JKK      0.152000
     19 H5         -2.2370   -0.7070    5.8840 hx        1 JKK      0.149500
     20 H6         -2.6740   -2.0380    4.6890 hx        1 JKK      0.149500
     21 H7         -0.5220   -2.2280    6.9310 h1        1 JKK      0.123000
     22 H8         -0.9530   -3.5390    5.7520 h1        1 JKK      0.123000
     23 H9         -1.5560    0.8770    4.1120 hx        1 JKK      0.145500
     24 H10        -2.2570   -0.3930    3.0030 hx        1 JKK      0.145500
     25 H11        -0.4340   -1.8740    3.7870 hn        1 JKK      0.243000
     26 CAK        -1.3010   -0.0180    3.4730 c3        1 JKK     -0.100000
     27 HAL2        0.0090   -0.7410    4.9050 hn        1 JKK      0.243000
@<TRIPOS>BOND
     1    1    2 1   
     2    1    3 1   
     3    1   16 1   
     4    1   17 1   
     5    2    7 1   
     6    3    8 1   
     7    3   15 1   
     8    4    7 1   
     9    5    6 1   
    10    5    9 1   
    11    5   19 1   
    12    5   20 1   
    13    6   13 1   
    14    6   21 1   
    15    6   22 1   
    16    7   14 1   
    17    8   18 1   
    18    8   26 1   
    19    9   25 1   
    20    9   26 1   
    21    9   27 1   
    22   10   13 1   
    23   11   13 1   
    24   12   13 1   
    25   23   26 1   
    26   24   26 1   
@<TRIPOS>SUBSTRUCTURE
     1 JKK         1 TEMP              0 ****  ****    0 ROOT
