@<TRIPOS>MOLECULE
JKK
   27    27     1     0     0
SMALL
bcc


@<TRIPOS>ATOM
      1 CAE        -1.6540    1.7500   -0.2510 c1        1 JKK     -0.024000
      2 CAF         2.5610   -1.6630    3.3380 cu        1 JKK     -0.168000
      3 CAG        -2.2520    0.9490    0.7330 c2        1 JKK     -0.229000
      4 CAH         1.5490   -1.3920    4.4020 cx        1 JKK      0.106000
      5 CAI        -2.4870   -1.9940    4.5480 c3        1 JKK     -0.039000
      6 CAJ        -1.6710   -3.0230    5.3230 c3        1 JKK     -0.880000
      7 CAM         3.0340   -1.4400    4.5550 cu        1 JKK     -0.179000
      8 CAN        -1.6140    0.3650    1.7670 c2        1 JKK     -0.164000
      9 NAL        -1.6750   -1.3200    3.5550 n3        1 JKK     -0.321000
     10 OAA        -0.4230   -1.0560    6.4300 o         1 JKK     -0.932000
     11 OAB         0.1650   -3.2970    7.0190 o         1 JKK     -0.932000
     12 OAC         0.8090   -2.4880    4.8350 os        1 JKK     -0.694000
     13 SAO        -0.2950   -2.3870    6.0890 s6        1 JKK      2.826000
     14 CL          4.2820   -1.3070    5.5850 cl        1 JKK      0.108000
     15 H1         -3.3630    0.9490    0.6890 ha        1 JKK      0.165000
     16 H2         -0.8760    1.3560   -0.9140 ha        1 JKK      0.078000
     17 H3          2.7040   -1.9080    2.3070 ha        1 JKK      0.193000
     18 H4         -0.5150    0.3750    1.8430 ha        1 JKK      0.137000
     19 H5         -2.8710   -1.2160    5.2700 h1        1 JKK      0.088500
     20 H6         -3.3840   -2.5110    4.0990 h1        1 JKK      0.088500
     21 H7         -1.3780   -3.8570    4.6280 h1        1 JKK      0.166500
     22 H8         -2.3590   -3.5000    6.0730 h1        1 JKK      0.166500
     23 H9         -2.4490    0.6110    3.7210 h1        1 JKK      0.085000
     24 H10        -3.4080   -0.4700    2.6150 h1        1 JKK      0.085000
     25 H11        -1.3430   -1.9680    2.8650 hn        1 JKK      0.165000
     26 CAK        -2.3560   -0.1970    2.9340 c3        1 JKK     -0.043000
     27 HAL2        0.9730   -0.4440    4.4650 h1        1 JKK      0.148000
@<TRIPOS>BOND
     1    1    3 1   
     2    1   16 1   
     3    2    4 1   
     4    2    7 1   
     5    2   17 1   
     6    3    8 1   
     7    3   15 1   
     8    4    7 1   
     9    4   12 1   
    10    4   27 1   
    11    5    6 1   
    12    5    9 1   
    13    5   19 1   
    14    5   20 1   
    15    6   13 1   
    16    6   21 1   
    17    6   22 1   
    18    7   14 1   
    19    8   18 1   
    20    8   26 1   
    21    9   25 1   
    22    9   26 1   
    23   10   13 1   
    24   11   13 1   
    25   12   13 1   
    26   23   26 1   
    27   24   26 1   
@<TRIPOS>SUBSTRUCTURE
     1 JKK         1 TEMP              0 ****  ****    0 ROOT
