@<TRIPOS>MOLECULE
JKK
   26    22     1     0     0
SMALL
bcc


@<TRIPOS>ATOM
      1 CAE         1.2330    1.0050   -3.5930 c1        1 JKK     -0.064000
      2 CAF         2.4690    0.3950   -3.6380 c1        1 JKK     -0.081500
      3 CAG         0.5100    1.0300   -2.3960 c1        1 JKK     -0.064000
      4 CAH         2.2760   -0.1640   -1.3260 c1        1 JKK     -0.067500
      5 CAI        -1.1940    0.0150    1.6560 c3        1 JKK      0.185800
      6 CAJ        -2.0380   -1.1450    2.0760 c3        1 JKK     -0.325600
      7 CAK         0.3140    0.7800    0.0530 c3        1 JKK      0.159900
      8 CAM         2.9910   -0.1920   -2.4990 c1        1 JKK     -0.065000
      9 CAN         1.0210    0.4560   -1.2830 c1        1 JKK     -0.027100
     10 NAL        -0.5120   -0.3070    0.4310 n3        1 JKK     -0.818200
     11 OAA        -3.6070   -1.9660    4.1710 o         1 JKK     -0.750533
     12 OAB        -3.7090    0.4490    3.5390 o         1 JKK     -0.750533
     13 OAC        -1.7900   -0.6060    4.7810 o         1 JKK     -0.750533
     14 SAO        -2.8260   -0.7790    3.6650 s6        1 JKK      1.431800
     15 CL          4.5350   -0.8530   -2.5200 cl        1 JKK     -0.043000
     16 H1          0.8540    1.4030   -4.4020 ha        1 JKK      0.084500
     17 H2          2.9790    0.3760   -4.4820 ha        1 JKK      0.077500
     18 H3         -0.3750    1.4650   -2.3630 ha        1 JKK      0.084500
     19 H4          2.6230   -0.5880   -0.5490 ha        1 JKK      0.091500
     20 H5         -1.7600    0.7950    1.5180 h1        1 JKK      0.064200
     21 H6         -0.5030    0.2190    2.3870 h1        1 JKK      0.064200
     22 H7         -2.7620   -1.3150    1.3650 h1        1 JKK      0.063200
     23 H8         -1.4710   -1.9500    2.1670 h1        1 JKK      0.063200
     24 H9          0.9810    0.9360    0.7440 h1        1 JKK      0.044200
     25 H10        -0.2590    1.6150   -0.0620 h1        1 JKK      0.044200
     26 H11         0.0190   -1.0740    0.5590 hn        1 JKK      0.346800
@<TRIPOS>BOND
     1    1    3 3   
     2    1   16 1   
     3    2    8 3   
     4    2   17 1   
     5    3   18 1   
     6    4    9 3   
     7    4   19 1   
     8    5    6 1   
     9    5   10 1   
    10    5   20 1   
    11    5   21 1   
    12    6   14 1   
    13    6   22 1   
    14    6   23 1   
    15    7    9 1   
    16    7   10 1   
    17    7   24 1   
    18    7   25 1   
    19   10   26 1   
    20   11   14 1   
    21   12   14 1   
    22   13   14 1   
@<TRIPOS>SUBSTRUCTURE
     1 JKK         1 TEMP              0 ****  ****    0 ROOT
