@<TRIPOS>MOLECULE
JKK
   26    26     1     0     0
SMALL
bcc


@<TRIPOS>ATOM
      1 CAE         3.7160    2.0660   -0.7230 ca        1 JKK     -0.131000
      2 CAF         4.5940    1.0310   -0.4090 ca        1 JKK     -0.139000
      3 CAG         2.3630    1.9650   -0.4060 ca        1 JKK     -0.129000
      4 CAH         2.7450   -0.2230    0.5540 ca        1 JKK     -0.105000
      5 CAI        -1.6360   -0.5440    0.5320 c3        1 JKK      0.185800
      6 CAJ        -2.5170    0.2370   -0.4160 c3        1 JKK     -0.325600
      7 CAM         4.0990   -0.1100    0.2290 ca        1 JKK      0.012400
      8 CAN         1.8710    0.8230    0.2360 ca        1 JKK     -0.062300
      9 NAL        -0.2050   -0.5230    0.2800 n3        1 JKK     -0.816200
     10 OAA        -4.2820    0.6690    1.3680 o         1 JKK     -0.750200
     11 OAB        -4.8810    0.9790   -0.9070 o         1 JKK     -0.750200
     12 OAC        -4.5810   -1.2120   -0.0480 o         1 JKK     -0.750200
     13 SAO        -4.2400    0.1570    0.0500 s6        1 JKK      1.431800
     14 CL          5.1670   -1.3820    0.6160 cl        1 JKK     -0.119400
     15 H1          4.0960    2.9670   -1.2270 ha        1 JKK      0.127000
     16 H2          5.6610    1.1110   -0.6610 ha        1 JKK      0.135000
     17 H3          1.6770    2.7860   -0.6630 ha        1 JKK      0.138000
     18 H4          2.3590   -1.1250    1.0550 ha        1 JKK      0.167000
     19 H5         -1.8190   -0.1730    1.5820 h1        1 JKK      0.064200
     20 H6         -1.9440   -1.6300    0.4920 h1        1 JKK      0.064200
     21 H7         -2.2180    1.3120   -0.4380 h1        1 JKK      0.062700
     22 H8         -2.4150   -0.1560   -1.4540 h1        1 JKK      0.062700
     23 H9          0.3420    0.8730    1.7310 h1        1 JKK      0.044200
     24 H10        -0.1230    1.6240    0.1440 h1        1 JKK      0.044200
     25 H11        -0.0300   -0.7400   -0.6850 hn        1 JKK      0.345800
     26 CAK         0.4180    0.7460    0.6110 c3        1 JKK      0.194100
@<TRIPOS>BOND
     1    1    2 ar  
     2    1    3 ar  
     3    1   15 1   
     4    2    7 ar  
     5    2   16 1   
     6    3    8 ar  
     7    3   17 1   
     8    4    7 ar  
     9    4    8 ar  
    10    4   18 1   
    11    5    6 1   
    12    5    9 1   
    13    5   19 1   
    14    5   20 1   
    15    6   13 1   
    16    6   21 1   
    17    6   22 1   
    18    7   14 1   
    19    8   26 1   
    20    9   25 1   
    21    9   26 1   
    22   10   13 1   
    23   11   13 1   
    24   12   13 1   
    25   23   26 1   
    26   24   26 1   
@<TRIPOS>SUBSTRUCTURE
     1 JKK         1 TEMP              0 ****  ****    0 ROOT
