@<TRIPOS>MOLECULE
JKK
   27    25     1     0     0
SMALL
bcc


@<TRIPOS>ATOM
      1 CAE         1.2060    1.0100    1.0350 c2        1 JKK     -0.148000
      2 CAF         1.0280   -0.5990   -0.6250 c1        1 JKK      0.307000
      3 CAG         0.1290    0.3110    1.4350 c2        1 JKK     -0.185000
      4 CAH         0.3640   -2.1250    1.1820 c1        1 JKK     -0.056000
      5 CAI        -3.5460   -0.6420    7.5780 c2        1 JKK     -0.068000
      6 CAJ        -2.2290   -0.7910    7.5070 c2        1 JKK     -0.881000
      7 CAM         0.8330   -1.8400   -0.1180 c2        1 JKK     -0.417000
      8 CAN         0.2350   -1.0020    2.1310 c3        1 JKK     -0.173000
      9 NAL        -0.9950   -2.6400    3.5570 n4        1 JKK     -0.079000
     10 OAA        -2.3060   -2.7810    5.9300 o         1 JKK     -1.083667
     11 OAB        -0.3890   -1.5480    5.9510 o         1 JKK     -1.083667
     12 OAC        -0.8890   -2.8970    7.8570 o         1 JKK     -1.083667
     13 SAO        -1.3990   -2.1010    6.8250 s6        1 JKK      2.881000
     14 CL          1.1210   -3.1670   -1.1550 cl        1 JKK      0.050000
     15 H1         -0.8940    0.6740    1.2360 ha        1 JKK      0.150000
     16 H2          1.1090    1.9530    0.4760 ha        1 JKK      0.141500
     17 H3          2.2370    0.7180    1.2820 ha        1 JKK      0.141500
     18 H4          1.1720   -1.0290    2.7760 hc        1 JKK      0.174000
     19 H5         -1.9040   -2.8300    4.0300 hn        1 JKK      0.276667
     20 H6         -4.2400   -1.3900    7.1610 ha        1 JKK      0.108000
     21 H7         -4.0300    0.2250    8.0500 ha        1 JKK      0.108000
     22 H8         -1.5780   -0.0130    7.9430 h4        1 JKK      0.154000
     23 H9         -1.9290   -1.0650    2.4780 hx        1 JKK      0.150000
     24 H10        -0.9220   -0.5630    3.9430 hx        1 JKK      0.150000
     25 H11        -0.2710   -2.7180    4.2970 hn        1 JKK      0.276667
     26 CAK        -0.9750   -1.2510    3.0440 c3        1 JKK     -0.090000
     27 HAL2       -0.8070   -3.3030    2.8000 hn        1 JKK      0.276667
@<TRIPOS>BOND
     1    1    3 1   
     2    1   16 1   
     3    1   17 1   
     4    2    7 1   
     5    3    8 1   
     6    3   15 1   
     7    4    7 1   
     8    4    8 1   
     9    5    6 1   
    10    5   20 1   
    11    5   21 1   
    12    6   13 1   
    13    6   22 1   
    14    7   14 1   
    15    8   18 1   
    16    8   26 1   
    17    9   19 1   
    18    9   25 1   
    19    9   26 1   
    20    9   27 1   
    21   10   13 1   
    22   11   13 1   
    23   12   13 1   
    24   23   26 1   
    25   24   26 1   
@<TRIPOS>SUBSTRUCTURE
     1 JKK         1 TEMP              0 ****  ****    0 ROOT
