@<TRIPOS>MOLECULE
JKM
   31    33     1     0     0
SMALL
bcc


@<TRIPOS>ATOM
      1 P          -0.4030    0.4230    0.2500 p5        1 JKM      1.561500
      2 N1          4.2160    0.2360    1.8050 n         1 JKM     -0.381000
      3 C2          5.3300   -0.0290    0.9510 c         1 JKM      0.819500
      4 O2          5.2720   -0.9210    0.0790 o         1 JKM     -0.631500
      5 N3          6.4810    0.7510    1.1080 n         1 JKM     -0.583500
      6 C4          6.6120    1.7420    2.1010 c         1 JKM      0.714700
      7 O4          7.6700    2.3870    2.1680 o         1 JKM     -0.596500
      8 C5          5.4580    1.9170    2.9930 cc        1 JKM     -0.304200
      9 C6          4.3400    1.1690    2.8280 cd        1 JKM      0.051600
     10 C1'         3.0430   -0.6000    1.6910 c3        1 JKM      0.323500
     11 C2'         1.7320    0.1530    1.3820 c3        1 JKM      0.062100
     12 O2'         1.2420    0.3970    0.0940 os        1 JKM     -0.480200
     13 O20        -0.5270   -0.1990    1.7740 os        1 JKM     -0.484200
     14 O2P        -0.8330   -0.8060   -0.6540 oh        1 JKM     -0.749400
     15 C3'         0.6930   -0.8600    1.9800 c3        1 JKM      0.070100
     16 O3P        -1.1110    1.6500   -0.0460 o         1 JKM     -0.752300
     17 C4'         1.3400   -1.1280    3.3300 c3        1 JKM      0.114100
     18 O4'         2.7560   -1.2140    2.9910 os        1 JKM     -0.447600
     19 C5'         0.9440   -2.4640    3.9530 c3        1 JKM      0.136400
     20 O5'         1.5740   -2.6430    5.2000 oh        1 JKM     -0.585800
     21 H5          5.5570    2.6700    3.7850 ha        1 JKM      0.183000
     22 H6          3.4620    1.2540    3.4970 h4        1 JKM      0.166000
     23 H1'         3.2460   -1.4350    0.9570 h2        1 JKM      0.138700
     24 H2'         1.7100    1.1330    1.9420 h1        1 JKM      0.077700
     25 HO2P       -1.4600   -0.6300   -1.3550 ho        1 JKM      0.495000
     26 H3'         0.6610   -1.8180    1.3820 h1        1 JKM      0.092700
     27 H4'         1.2070   -0.2880    4.0590 h1        1 JKM      0.087700
     28 H5'        -0.1580   -2.4580    4.1740 h1        1 JKM      0.065700
     29 H5'A        1.1970   -3.3060    3.2560 h1        1 JKM      0.065700
     30 HO5'        2.5260   -2.6780    5.0370 ho        1 JKM      0.415000
     31 HN3         7.2370    0.5720    0.4820 hn        1 JKM      0.356500
@<TRIPOS>BOND
     1    1   12 1   
     2    1   13 1   
     3    1   14 1   
     4    1   16 2   
     5    2    3 1   
     6    2    9 1   
     7    2   10 1   
     8    3    4 2   
     9    3    5 1   
    10    5    6 1   
    11    5   31 1   
    12    6    7 2   
    13    6    8 1   
    14    8    9 2   
    15    8   21 1   
    16    9   22 1   
    17   10   11 1   
    18   10   18 1   
    19   10   23 1   
    20   11   12 1   
    21   11   15 1   
    22   11   24 1   
    23   13   15 1   
    24   14   25 1   
    25   15   17 1   
    26   15   26 1   
    27   17   18 1   
    28   17   19 1   
    29   17   27 1   
    30   19   20 1   
    31   19   28 1   
    32   19   29 1   
    33   20   30 1   
@<TRIPOS>SUBSTRUCTURE
     1 JKM         1 TEMP              0 ****  ****    0 ROOT
