@<TRIPOS>MOLECULE
JKM
   31    33     1     0     0
SMALL
bcc


@<TRIPOS>ATOM
      1 P          -0.4060    0.3580    0.2320 p5        1 JKM      1.561500
      2 N1          4.2090    0.2620    1.8080 n         1 JKM     -0.381000
      3 C2          5.3310    0.0090    0.9620 c         1 JKM      0.819500
      4 O2          5.2920   -0.8900    0.0960 o         1 JKM     -0.631500
      5 N3          6.4680    0.8100    1.1180 n         1 JKM     -0.583500
      6 C4          6.5780    1.8100    2.1040 c         1 JKM      0.714700
      7 O4          7.6240    2.4740    2.1700 o         1 JKM     -0.596500
      8 C5          5.4170    1.9730    2.9890 cc        1 JKM     -0.304200
      9 C6          4.3120    1.2050    2.8240 cd        1 JKM      0.051600
     10 C1'         3.0510   -0.5950    1.6960 c3        1 JKM      0.323500
     11 C2'         1.7290    0.1330    1.3750 c3        1 JKM      0.062100
     12 O2'         1.2400    0.3590    0.0840 os        1 JKM     -0.480200
     13 O20        -0.5260   -0.2550    1.7600 os        1 JKM     -0.484200
     14 O2P        -0.8100   -0.8850   -0.6640 oh        1 JKM     -0.749400
     15 C3'         0.7050   -0.8930    1.9770 c3        1 JKM      0.070100
     16 O3P        -1.1330    1.5700   -0.0760 o         1 JKM     -0.752300
     17 C4'         1.3500   -1.1400    3.3310 c3        1 JKM      0.114100
     18 O4'         2.7690   -1.2050    2.9990 os        1 JKM     -0.447600
     19 C5'         0.9740   -2.4780    3.9630 c3        1 JKM      0.136400
     20 O5'         1.6010   -2.6360    5.2140 oh        1 JKM     -0.585800
     21 H5          5.4990    2.7340    3.7750 ha        1 JKM      0.183000
     22 H6          3.4290    1.2800    3.4890 h4        1 JKM      0.166000
     23 H1'         3.2710   -1.4320    0.9690 h2        1 JKM      0.138700
     24 H2'         1.6870    1.1160    1.9270 h1        1 JKM      0.077700
     25 HO2P       -1.4370   -0.7250   -1.3690 ho        1 JKM      0.495000
     26 H3'         0.6920   -1.8560    1.3860 h1        1 JKM      0.092700
     27 H4'         1.2000   -0.2970    4.0530 h1        1 JKM      0.087700
     28 H5'         1.2440   -3.3210    3.2730 h1        1 JKM      0.065700
     29 H5'A       -0.1280   -2.4900    4.1790 h1        1 JKM      0.065700
     30 HO5'        2.5550   -2.6560    5.0550 ho        1 JKM      0.415000
     31 HN3         7.2300    0.6380    0.4960 hn        1 JKM      0.356500
@<TRIPOS>BOND
     1    1   12 1   
     2    1   13 1   
     3    1   14 1   
     4    1   16 2   
     5    2    3 1   
     6    2    9 1   
     7    2   10 1   
     8    3    4 2   
     9    3    5 1   
    10    5    6 1   
    11    5   31 1   
    12    6    7 2   
    13    6    8 1   
    14    8    9 2   
    15    8   21 1   
    16    9   22 1   
    17   10   11 1   
    18   10   18 1   
    19   10   23 1   
    20   11   12 1   
    21   11   15 1   
    22   11   24 1   
    23   13   15 1   
    24   14   25 1   
    25   15   17 1   
    26   15   26 1   
    27   17   18 1   
    28   17   19 1   
    29   17   27 1   
    30   19   20 1   
    31   19   28 1   
    32   19   29 1   
    33   20   30 1   
@<TRIPOS>SUBSTRUCTURE
     1 JKM         1 TEMP              0 ****  ****    0 ROOT
