@<TRIPOS>MOLECULE
JKM
   31    33     1     0     0
SMALL
bcc


@<TRIPOS>ATOM
      1 P          -2.8390   -1.4720   -0.7700 p5        1 JKM      1.561500
      2 N1          1.6310    0.1630    0.2980 n         1 JKM     -0.381000
      3 C2          2.5000   -0.4640    1.2420 c         1 JKM      0.819500
      4 O2          2.0660   -0.8810    2.3350 o         1 JKM     -0.631500
      5 N3          3.8490   -0.6120    0.8970 n         1 JKM     -0.583500
      6 C4          4.3970   -0.1240   -0.3050 c         1 JKM      0.714700
      7 O4          5.6040   -0.3010   -0.5290 o         1 JKM     -0.596500
      8 C5          3.4650    0.5740   -1.2020 cc        1 JKM     -0.304200
      9 C6          2.1570    0.7030   -0.8710 cd        1 JKM      0.051600
     10 C1'         0.2490    0.3740    0.6650 c3        1 JKM      0.323500
     11 C2'        -0.7830   -0.2640   -0.2870 c3        1 JKM      0.062100
     12 O2'        -1.3140   -1.5500   -0.1360 os        1 JKM     -0.480200
     13 O20        -2.9800    0.1690   -0.9000 os        1 JKM     -0.484200
     14 O2P        -3.7330   -1.7880    0.5000 oh        1 JKM     -0.749400
     15 C3'        -2.0140    0.6720   -0.0150 c3        1 JKM      0.070100
     16 O3P        -3.1530   -2.2770   -1.9290 o         1 JKM     -0.752300
     17 C4'        -1.3360    2.0290   -0.1180 c3        1 JKM      0.114100
     18 O4'        -0.0680    1.8030    0.5640 os        1 JKM     -0.447600
     19 C5'        -2.0600    3.1420    0.6330 c3        1 JKM      0.136400
     20 O5'        -1.3820    4.3690    0.4890 oh        1 JKM     -0.585800
     21 H5          3.8850    0.9780   -2.1310 ha        1 JKM      0.183000
     22 H6          1.4320    1.2460   -1.5070 h4        1 JKM      0.166000
     23 H1'         0.0940    0.0660    1.7410 h2        1 JKM      0.138700
     24 H2'        -0.4330   -0.1680   -1.3560 h1        1 JKM      0.077700
     25 HO2P       -4.3480   -2.5180    0.4260 ho        1 JKM      0.495000
     26 H3'        -2.4140    0.5310    1.0320 h1        1 JKM      0.092700
     27 H4'        -1.1140    2.3330   -1.1740 h1        1 JKM      0.087700
     28 H5'        -3.0710    3.3060    0.1720 h1        1 JKM      0.065700
     29 H5'A       -2.1660    2.8720    1.7170 h1        1 JKM      0.065700
     30 HO5'       -0.5140    4.2660    0.9030 ho        1 JKM      0.415000
     31 HN3         4.4340   -1.0810    1.5560 hn        1 JKM      0.356500
@<TRIPOS>BOND
     1    1   12 1   
     2    1   13 1   
     3    1   14 1   
     4    1   16 2   
     5    2    3 1   
     6    2    9 1   
     7    2   10 1   
     8    3    4 2   
     9    3    5 1   
    10    5    6 1   
    11    5   31 1   
    12    6    7 2   
    13    6    8 1   
    14    8    9 2   
    15    8   21 1   
    16    9   22 1   
    17   10   11 1   
    18   10   18 1   
    19   10   23 1   
    20   11   12 1   
    21   11   15 1   
    22   11   24 1   
    23   13   15 1   
    24   14   25 1   
    25   15   17 1   
    26   15   26 1   
    27   17   18 1   
    28   17   19 1   
    29   17   27 1   
    30   19   20 1   
    31   19   28 1   
    32   19   29 1   
    33   20   30 1   
@<TRIPOS>SUBSTRUCTURE
     1 JKM         1 TEMP              0 ****  ****    0 ROOT
