@<TRIPOS>MOLECULE
JKM
   31    33     1     0     0
SMALL
bcc


@<TRIPOS>ATOM
      1 P          -0.4080    0.3560    0.2360 p5        1 JKM      1.561500
      2 N1          4.2090    0.2590    1.8030 n         1 JKM     -0.381000
      3 C2          5.3290    0.0010    0.9560 c         1 JKM      0.819500
      4 O2          5.2880   -0.9010    0.0940 o         1 JKM     -0.631500
      5 N3          6.4680    0.8020    1.1070 ns        1 JKM     -0.583500
      6 C4          6.5800    1.8050    2.0890 c         1 JKM      0.714700
      7 O4          7.6270    2.4680    2.1510 o         1 JKM     -0.596500
      8 C5          5.4210    1.9730    2.9750 cc        1 JKM     -0.304200
      9 C6          4.3150    1.2060    2.8160 cd        1 JKM      0.051600
     10 C1'         3.0500   -0.5970    1.6960 c3        1 JKM      0.323500
     11 C2'         1.7280    0.1320    1.3760 c3        1 JKM      0.062100
     12 O2'         1.2370    0.3540    0.0840 os        1 JKM     -0.480200
     13 O20        -0.5270   -0.2520    1.7670 os        1 JKM     -0.484200
     14 O2P        -0.8170   -0.8900   -0.6550 oh        1 JKM     -0.749400
     15 C3'         0.7040   -0.8910    1.9830 c3        1 JKM      0.070100
     16 O3P        -1.1350    1.5670   -0.0750 o         1 JKM     -0.752300
     17 C4'         1.3520   -1.1340    3.3370 c3        1 JKM      0.114100
     18 O4'         2.7700   -1.2010    3.0020 os        1 JKM     -0.447600
     19 C5'         0.9750   -2.4690    3.9730 c3        1 JKM      0.136400
     20 O5'         1.6050   -2.6240    5.2240 oh        1 JKM     -0.585800
     21 H5          5.5060    2.7370    3.7590 ha        1 JKM      0.183000
     22 H6          3.4340    1.2840    3.4820 h4        1 JKM      0.166000
     23 H1'         3.2680   -1.4370    0.9720 h2        1 JKM      0.138700
     24 H2'         1.6880    1.1170    1.9250 h1        1 JKM      0.077700
     25 HO2P       -1.4440   -0.7320   -1.3590 ho        1 JKM      0.495000
     26 H3'         0.6890   -1.8550    1.3950 h1        1 JKM      0.092700
     27 H4'         1.2040   -0.2880    4.0560 h1        1 JKM      0.087700
     28 H5'        -0.1270   -2.4780    4.1930 h1        1 JKM      0.065700
     29 H5'A        1.2420   -3.3140    3.2860 h1        1 JKM      0.065700
     30 HO5'        2.5580   -2.6460    5.0630 ho        1 JKM      0.415000
     31 HN3         7.2290    0.6270    0.4850 hn        1 JKM      0.356500
@<TRIPOS>BOND
     1    1   12 1   
     2    1   13 1   
     3    1   14 1   
     4    1   16 2   
     5    2    3 1   
     6    2    9 1   
     7    2   10 1   
     8    3    4 2   
     9    3    5 1   
    10    5    6 1   
    11    5   31 1   
    12    6    7 2   
    13    6    8 1   
    14    8    9 2   
    15    8   21 1   
    16    9   22 1   
    17   10   11 1   
    18   10   18 1   
    19   10   23 1   
    20   11   12 1   
    21   11   15 1   
    22   11   24 1   
    23   13   15 1   
    24   14   25 1   
    25   15   17 1   
    26   15   26 1   
    27   17   18 1   
    28   17   19 1   
    29   17   27 1   
    30   19   20 1   
    31   19   28 1   
    32   19   29 1   
    33   20   30 1   
@<TRIPOS>SUBSTRUCTURE
     1 JKM         1 TEMP              0 ****  ****    0 ROOT
