@<TRIPOS>MOLECULE
JKT
   83    86     1     0     0
SMALL
bcc


@<TRIPOS>ATOM
      1 C14        -0.6970   -0.1500   -0.5610 c3        1 JKT     -0.140400
      2 C15         0.7910    0.0110   -0.3280 c3        1 JKT     -0.073400
      3 C16         1.1340   -0.2410    1.1280 c3        1 JKT     -0.031100
      4 C17         2.5870   -0.0460    1.3830 ca        1 JKT     -0.096300
      5 C18         3.1110    1.2460    1.5100 ca        1 JKT     -0.126000
      6 C22         3.4390   -1.1480    1.5130 ca        1 JKT     -0.126000
      7 C19         4.4690    1.4320    1.7630 ca        1 JKT     -0.123000
      8 C21         4.7970   -0.9600    1.7660 ca        1 JKT     -0.123000
      9 C20         5.3140    0.3300    1.8910 ca        1 JKT     -0.119000
     10 C12        -1.0420    0.0510   -2.0180 c         1 JKT      0.686100
     11 O13        -0.1930    0.2080   -2.9160 o         1 JKT     -0.612100
     12 N11        -2.3860    0.0440   -2.3830 n         1 JKT     -0.499800
     13 C23        -3.4780   -0.0170   -1.4400 c3        1 JKT      0.087000
     14 C10        -2.8490    0.1430   -3.7560 c3        1 JKT      0.064700
     15 C8         -2.1880    1.3080   -4.5210 c         1 JKT      0.677100
     16 O9         -2.4560    2.4930   -4.2270 o         1 JKT     -0.640100
     17 C25        -4.3800    0.3540   -3.7050 c3        1 JKT     -0.105400
     18 C24        -4.7930   -0.0950   -2.2840 c3        1 JKT      0.043000
     19 N26        -5.8930    0.6660   -1.7110 na        1 JKT      0.063400
     20 N27        -7.0890    0.1180   -1.3570 nc        1 JKT     -0.101800
     21 N28        -7.8510    1.0100   -0.8860 nd        1 JKT     -0.358000
     22 C30        -5.8980    2.0360   -1.4250 cc        1 JKT     -0.139600
     23 C29        -7.1810    2.2630   -0.8870 cd        1 JKT      0.141600
     24 C31        -7.8070    3.5250   -0.4490 c3        1 JKT      0.130500
     25 N32        -8.7850    3.2960    0.6650 n4        1 JKT     -0.646800
     26 O34        -8.4770    5.5320    1.4220 o         1 JKT     -0.439000
     27 C33        -9.2520    4.5980    1.2690 c         1 JKT      0.634100
     28 O35       -10.5460    4.5070    1.5660 os        1 JKT     -0.419900
     29 C36       -11.2360    5.6640    2.2340 c3        1 JKT      0.205800
     30 C39       -11.1880    6.8590    1.3100 c3        1 JKT     -0.131433
     31 C37       -12.6420    5.1080    2.3850 c3        1 JKT     -0.131433
     32 C38       -10.5750    5.9230    3.5690 c3        1 JKT     -0.131433
     33 N7         -1.3640    1.0450   -5.6100 n         1 JKT     -0.433800
     34 C3         -0.5030    2.1040   -6.1250 c3        1 JKT      0.055700
     35 C1         -1.2300    2.9230   -7.2410 c3        1 JKT      0.338300
     36 N2         -0.3530    4.1030   -7.6890 n4        1 JKT     -0.894600
     37 C4          0.7700    1.4390   -6.6930 c3        1 JKT     -0.096400
     38 C5          0.5530   -0.0670   -6.6010 c3        1 JKT     -0.089400
     39 C6         -0.7750   -0.2690   -5.8590 c3        1 JKT      0.070000
     40 OXT        -2.4500    3.4780   -6.8800 oh        1 JKT     -0.565800
     41 H141       -1.0230   -1.1810   -0.2550 hc        1 JKT      0.073200
     42 H142       -1.2640    0.5900    0.0650 hc        1 JKT      0.073200
     43 H151        1.1100    1.0460   -0.6210 hc        1 JKT      0.064700
     44 H152        1.3550   -0.7040   -0.9840 hc        1 JKT      0.064700
     45 H161        0.5440    0.4600    1.7790 hc        1 JKT      0.047700
     46 H162        0.8330   -1.2870    1.4080 hc        1 JKT      0.047700
     47 H18         2.4450    2.1160    1.4160 ha        1 JKT      0.127500
     48 H22         3.0360   -2.1680    1.4220 ha        1 JKT      0.127500
     49 H19         4.8730    2.4500    1.8670 ha        1 JKT      0.139500
     50 H21         5.4610   -1.8310    1.8710 ha        1 JKT      0.139500
     51 H20         6.3850    0.4770    2.0950 ha        1 JKT      0.142000
     52 H231       -3.3840   -0.9360   -0.7960 h1        1 JKT      0.067700
     53 H232       -3.4650    0.8870   -0.7690 h1        1 JKT      0.067700
     54 H10        -2.6270   -0.8350   -4.2790 h1        1 JKT      0.086700
     55 H24        -5.1210   -1.1780   -2.3270 h1        1 JKT      0.123700
     56 H251       -4.6330    1.4280   -3.8940 hc        1 JKT      0.088700
     57 H252       -4.8870   -0.2730   -4.4780 hc        1 JKT      0.088700
     58 H30        -5.0520    2.6970   -1.6210 h4        1 JKT      0.217000
     59 H311       -7.0210    4.2520   -0.0840 hx        1 JKT      0.121200
     60 H312       -8.3780    4.0020   -1.3010 hx        1 JKT      0.121200
     61 H32        -9.5990    2.7670    0.3180 hn        1 JKT      0.479800
     62 H391      -10.1430    7.2370    1.1970 hc        1 JKT      0.074811
     63 H392      -11.8150    7.6780    1.7450 hc        1 JKT      0.074811
     64 H393      -11.5970    6.5980    0.3040 hc        1 JKT      0.074811
     65 H371      -13.0800    4.8620    1.3880 hc        1 JKT      0.074811
     66 H372      -13.2750    5.8860    2.8800 hc        1 JKT      0.074811
     67 H373      -12.6370    4.1870    3.0160 hc        1 JKT      0.074811
     68 H381      -11.1670    6.6940    4.1220 hc        1 JKT      0.074811
     69 H382      -10.5460    4.9910    4.1830 hc        1 JKT      0.074811
     70 H383       -9.5340    6.3080    3.4330 hc        1 JKT      0.074811
     71 H3         -0.2460    2.8170   -5.2840 h1        1 JKT      0.087700
     72 H61C       -0.5870   -0.8090   -4.8870 h1        1 JKT      0.081200
     73 H62C       -1.4970   -0.8660   -6.4810 h1        1 JKT      0.081200
     74 H41C        0.9630    1.7320   -7.7530 hc        1 JKT      0.063700
     75 H42C        1.6550    1.7460   -6.0780 hc        1 JKT      0.063700
     76 H21N        0.4500    3.7600   -8.2200 hn        1 JKT      0.459467
     77 H22N       -0.0210    4.6330   -6.8810 hn        1 JKT      0.459467
     78 H51C        0.5070   -0.5300   -7.6180 hc        1 JKT      0.083700
     79 H52C        1.3880   -0.5560   -6.0390 hc        1 JKT      0.083700
     80 HOXT       -2.4980    3.6140   -5.9150 ho        1 JKT      0.473000
     81 H1C        -1.4210    2.3010   -8.1700 hx        1 JKT      0.142700
     82 H322       -8.3400    2.7400    1.4070 hn        1 JKT      0.479800
     83 H23        -0.9180    4.7250   -8.2770 hn        1 JKT      0.459467
@<TRIPOS>BOND
     1    1    2 1   
     2    1   10 1   
     3    1   41 1   
     4    1   42 1   
     5    2    3 1   
     6    2   43 1   
     7    2   44 1   
     8    3    4 1   
     9    3   45 1   
    10    3   46 1   
    11    4    5 ar  
    12    4    6 ar  
    13    5    7 ar  
    14    5   47 1   
    15    6    8 ar  
    16    6   48 1   
    17    7    9 ar  
    18    7   49 1   
    19    8    9 ar  
    20    8   50 1   
    21    9   51 1   
    22   10   11 2   
    23   10   12 1   
    24   12   13 1   
    25   12   14 1   
    26   13   18 1   
    27   13   52 1   
    28   13   53 1   
    29   14   15 1   
    30   14   17 1   
    31   14   54 1   
    32   15   16 2   
    33   15   33 1   
    34   17   18 1   
    35   17   56 1   
    36   17   57 1   
    37   18   19 1   
    38   18   55 1   
    39   19   20 1   
    40   19   22 1   
    41   20   21 2   
    42   21   23 1   
    43   22   23 2   
    44   22   58 1   
    45   23   24 1   
    46   24   25 1   
    47   24   59 1   
    48   24   60 1   
    49   25   27 1   
    50   25   61 1   
    51   25   82 1   
    52   26   27 2   
    53   27   28 1   
    54   28   29 1   
    55   29   30 1   
    56   29   31 1   
    57   29   32 1   
    58   30   62 1   
    59   30   63 1   
    60   30   64 1   
    61   31   65 1   
    62   31   66 1   
    63   31   67 1   
    64   32   68 1   
    65   32   69 1   
    66   32   70 1   
    67   33   34 1   
    68   33   39 1   
    69   34   35 1   
    70   34   37 1   
    71   34   71 1   
    72   35   36 1   
    73   35   40 1   
    74   35   81 1   
    75   36   76 1   
    76   36   77 1   
    77   36   83 1   
    78   37   38 1   
    79   37   74 1   
    80   37   75 1   
    81   38   39 1   
    82   38   78 1   
    83   38   79 1   
    84   39   72 1   
    85   39   73 1   
    86   40   80 1   
@<TRIPOS>SUBSTRUCTURE
     1 JKT         1 TEMP              0 ****  ****    0 ROOT
