@<TRIPOS>MOLECULE
JKT
   83    86     1     0     0
SMALL
bcc


@<TRIPOS>ATOM
      1 C14        -0.6940   -0.1540   -0.5730 c3        1 JKT     -0.140400
      2 C15         0.7940    0.0050   -0.3400 c3        1 JKT     -0.073400
      3 C16         1.1360   -0.2570    1.1150 c3        1 JKT     -0.031100
      4 C17         2.5900   -0.0640    1.3710 ca        1 JKT     -0.096300
      5 C18         3.1150    1.2270    1.5040 ca        1 JKT     -0.126000
      6 C22         3.4410   -1.1680    1.4950 ca        1 JKT     -0.126000
      7 C19         4.4720    1.4110    1.7580 ca        1 JKT     -0.123000
      8 C21         4.7990   -0.9810    1.7490 ca        1 JKT     -0.123000
      9 C20         5.3170    0.3070    1.8810 ca        1 JKT     -0.119000
     10 C12        -1.0400    0.0560   -2.0300 c         1 JKT      0.686100
     11 O13        -0.1900    0.2200   -2.9260 o         1 JKT     -0.611100
     12 N11        -2.3840    0.0520   -2.3940 n         1 JKT     -0.499800
     13 C23        -3.4750   -0.0170   -1.4520 c3        1 JKT      0.087000
     14 C10        -2.8460    0.1590   -3.7660 c3        1 JKT      0.064700
     15 C8         -2.1860    1.3300   -4.5240 c         1 JKT      0.677100
     16 O9         -2.4560    2.5130   -4.2220 o         1 JKT     -0.640100
     17 C25        -4.3780    0.3680   -3.7140 c3        1 JKT     -0.105400
     18 C24        -4.7900   -0.0900   -2.2960 c3        1 JKT      0.043000
     19 N26        -5.8910    0.6660   -1.7180 na        1 JKT      0.063400
     20 N27        -7.0860    0.1130   -1.3670 nc        1 JKT     -0.101800
     21 N28        -7.8490    1.0010   -0.8910 nd        1 JKT     -0.358000
     22 C30        -5.8970    2.0340   -1.4230 cc        1 JKT     -0.139600
     23 C29        -7.1800    2.2560   -0.8830 cd        1 JKT      0.141600
     24 C31        -7.8080    3.5140   -0.4370 c3        1 JKT      0.130500
     25 N32        -8.7850    3.2770    0.6760 ny        1 JKT     -0.646800
     26 O34        -8.4800    5.5080    1.4460 o         1 JKT     -0.439000
     27 C33        -9.2530    4.5740    1.2880 c         1 JKT      0.634100
     28 O35       -10.5470    4.4790    1.5870 os        1 JKT     -0.419900
     29 C36       -11.2380    5.6310    2.2630 c3        1 JKT      0.205800
     30 C39       -11.1940    6.8320    1.3460 c3        1 JKT     -0.131433
     31 C37       -12.6430    5.0710    2.4120 c3        1 JKT     -0.131433
     32 C38       -10.5750    5.8820    3.5980 c3        1 JKT     -0.131433
     33 N7         -1.3620    1.0750   -5.6140 n         1 JKT     -0.433800
     34 C3         -0.5030    2.1380   -6.1220 c3        1 JKT      0.055700
     35 C1         -1.2300    2.9640   -7.2320 c3        1 JKT      0.338300
     36 N2         -0.3540    4.1480   -7.6730 nz        1 JKT     -0.894600
     37 C4          0.7720    1.4780   -6.6950 c3        1 JKT     -0.096400
     38 C5          0.5560   -0.0290   -6.6130 c3        1 JKT     -0.089400
     39 C6         -0.7720   -0.2370   -5.8720 c3        1 JKT      0.070000
     40 OXT        -2.4510    3.5160   -6.8680 oh        1 JKT     -0.565800
     41 H141       -1.0200   -1.1880   -0.2740 hc        1 JKT      0.073200
     42 H142       -1.2610    0.5810    0.0580 hc        1 JKT      0.073200
     43 H151        1.1130    1.0410   -0.6260 hc        1 JKT      0.064700
     44 H152        1.3570   -0.7060   -1.0010 hc        1 JKT      0.064700
     45 H161        0.5470    0.4400    1.7700 hc        1 JKT      0.047700
     46 H162        0.8350   -1.3040    1.3870 hc        1 JKT      0.047700
     47 H18         2.4500    2.0980    1.4150 ha        1 JKT      0.127500
     48 H22         3.0370   -2.1870    1.3990 ha        1 JKT      0.127500
     49 H19         4.8780    2.4280    1.8690 ha        1 JKT      0.139500
     50 H21         5.4620   -1.8540    1.8500 ha        1 JKT      0.139500
     51 H20         6.3880    0.4530    2.0860 ha        1 JKT      0.142000
     52 H231       -3.4640    0.8830   -0.7750 h1        1 JKT      0.067700
     53 H232       -3.3810   -0.9400   -0.8140 h1        1 JKT      0.067700
     54 H10        -2.6240   -0.8160   -4.2960 h1        1 JKT      0.086700
     55 H24        -5.1170   -1.1740   -2.3470 h1        1 JKT      0.123700
     56 H251       -4.8840   -0.2540   -4.4920 hc        1 JKT      0.088700
     57 H252       -4.6310    1.4440   -3.8960 hc        1 JKT      0.088700
     58 H30        -5.0530    2.6970   -1.6150 h4        1 JKT      0.217000
     59 H311       -8.3800    3.9950   -1.2860 hx        1 JKT      0.121200
     60 H312       -7.0230    4.2390   -0.0680 hx        1 JKT      0.121200
     61 H32        -8.3400    2.7160    1.4140 hn        1 JKT      0.479800
     62 H391      -10.1490    7.2120    1.2340 hc        1 JKT      0.074811
     63 H392      -11.6030    6.5760    0.3390 hc        1 JKT      0.074811
     64 H393      -11.8200    7.6470    1.7870 hc        1 JKT      0.074811
     65 H371      -13.2760    5.8450    2.9130 hc        1 JKT      0.074811
     66 H372      -13.0820    4.8310    1.4140 hc        1 JKT      0.074811
     67 H373      -12.6360    4.1460    3.0380 hc        1 JKT      0.074811
     68 H381      -11.1680    6.6490    4.1570 hc        1 JKT      0.074811
     69 H382      -10.5450    4.9460    4.2060 hc        1 JKT      0.074811
     70 H383       -9.5360    6.2700    3.4630 hc        1 JKT      0.074811
     71 H3         -0.2460    2.8460   -5.2760 h1        1 JKT      0.087700
     72 H61C       -1.4940   -0.8300   -6.4980 h1        1 JKT      0.081200
     73 H62C       -0.5830   -0.7840   -4.9050 h1        1 JKT      0.081200
     74 H41C        0.9640    1.7790   -7.7530 hc        1 JKT      0.063700
     75 H42C        1.6550    1.7820   -6.0780 hc        1 JKT      0.063700
     76 H21N       -0.9200    4.7730   -8.2570 hn        1 JKT      0.459467
     77 H22N       -0.0230    4.6730   -6.8610 hn        1 JKT      0.459467
     78 H51C        1.3910   -0.5210   -6.0550 hc        1 JKT      0.083700
     79 H52C        0.5100   -0.4850   -7.6330 hc        1 JKT      0.083700
     80 HOXT       -2.4980    3.6440   -5.9020 ho        1 JKT      0.473000
     81 H1C        -1.4200    2.3480   -8.1660 hx        1 JKT      0.142700
     82 H322       -9.5980    2.7490    0.3260 hn        1 JKT      0.479800
     83 H23         0.4490    3.8090   -8.2050 hn        1 JKT      0.459467
@<TRIPOS>BOND
     1    1    2 1   
     2    1   10 1   
     3    1   41 1   
     4    1   42 1   
     5    2    3 1   
     6    2   43 1   
     7    2   44 1   
     8    3    4 1   
     9    3   45 1   
    10    3   46 1   
    11    4    5 ar  
    12    4    6 ar  
    13    5    7 ar  
    14    5   47 1   
    15    6    8 ar  
    16    6   48 1   
    17    7    9 ar  
    18    7   49 1   
    19    8    9 ar  
    20    8   50 1   
    21    9   51 1   
    22   10   11 2   
    23   10   12 1   
    24   12   13 1   
    25   12   14 1   
    26   13   18 1   
    27   13   52 1   
    28   13   53 1   
    29   14   15 1   
    30   14   17 1   
    31   14   54 1   
    32   15   16 2   
    33   15   33 1   
    34   17   18 1   
    35   17   56 1   
    36   17   57 1   
    37   18   19 1   
    38   18   55 1   
    39   19   20 1   
    40   19   22 1   
    41   20   21 2   
    42   21   23 1   
    43   22   23 2   
    44   22   58 1   
    45   23   24 1   
    46   24   25 1   
    47   24   59 1   
    48   24   60 1   
    49   25   27 1   
    50   25   61 1   
    51   25   82 1   
    52   26   27 2   
    53   27   28 1   
    54   28   29 1   
    55   29   30 1   
    56   29   31 1   
    57   29   32 1   
    58   30   62 1   
    59   30   63 1   
    60   30   64 1   
    61   31   65 1   
    62   31   66 1   
    63   31   67 1   
    64   32   68 1   
    65   32   69 1   
    66   32   70 1   
    67   33   34 1   
    68   33   39 1   
    69   34   35 1   
    70   34   37 1   
    71   34   71 1   
    72   35   36 1   
    73   35   40 1   
    74   35   81 1   
    75   36   76 1   
    76   36   77 1   
    77   36   83 1   
    78   37   38 1   
    79   37   74 1   
    80   37   75 1   
    81   38   39 1   
    82   38   78 1   
    83   38   79 1   
    84   39   72 1   
    85   39   73 1   
    86   40   80 1   
@<TRIPOS>SUBSTRUCTURE
     1 JKT         1 TEMP              0 ****  ****    0 ROOT
