@<TRIPOS>MOLECULE
JKT
   81    84     1     0     0
SMALL
bcc


@<TRIPOS>ATOM
      1 C14        -2.6190   -1.3440    1.0960 c3        1 JKT     -0.143400
      2 C15        -3.9550   -1.7200    0.4920 c3        1 JKT     -0.072400
      3 C16        -4.1060   -3.2280    0.4290 c3        1 JKT     -0.036100
      4 C17        -5.3960   -3.6230   -0.2000 ca        1 JKT     -0.080300
      5 C18        -5.5790   -3.4730   -1.5800 ca        1 JKT     -0.126000
      6 C22        -6.4320   -4.1570    0.5740 ca        1 JKT     -0.126000
      7 C19        -6.7810   -3.8520   -2.1750 ca        1 JKT     -0.127500
      8 C21        -7.6330   -4.5350   -0.0230 ca        1 JKT     -0.127500
      9 C20        -7.8100   -4.3830   -1.3980 ca        1 JKT     -0.130000
     10 C12        -2.4770    0.1610    1.2000 c         1 JKT      0.673100
     11 O13        -3.4420    0.9370    1.0560 o         1 JKT     -0.611100
     12 N11        -1.2140    0.6780    1.4490 n         1 JKT     -0.476800
     13 C23        -0.0830   -0.1270    1.8490 c3        1 JKT      0.079000
     14 C10        -0.9670    2.0960    1.6380 c3        1 JKT      0.044700
     15 C8         -0.6940    2.8220    0.2950 c         1 JKT      0.657100
     16 O9          0.2400    2.4440   -0.4380 o         1 JKT     -0.603100
     17 C25         0.3010    2.2270    2.5120 c3        1 JKT     -0.101400
     18 C24         0.8890    0.8030    2.6510 c3        1 JKT      0.060000
     19 N26         2.2660    0.6890    2.2090 na        1 JKT      0.035400
     20 N27         3.2840    0.2000    2.9700 nc        1 JKT     -0.168800
     21 N28         4.3600    0.2090    2.3030 nd        1 JKT     -0.355000
     22 C30         2.7480    1.0280    0.9350 cc        1 JKT     -0.180600
     23 C29         4.1180    0.7170    1.0000 cd        1 JKT      0.195600
     24 C31         5.1600    0.8920   -0.0460 c3        1 JKT      0.068700
     25 N32         6.1260   -0.1730   -0.1490 n         1 JKT     -0.502900
     26 O34         5.1320   -1.2040   -2.0260 o         1 JKT     -0.590000
     27 C33         5.8660   -1.2260   -1.0240 c         1 JKT      0.730100
     28 O35         6.5970   -2.3450   -0.7060 os        1 JKT     -0.448900
     29 C36         6.6640   -3.4460   -1.6490 c3        1 JKT      0.185800
     30 C39         7.2280   -2.9860   -2.9820 c3        1 JKT     -0.113433
     31 C37         7.6310   -4.4140   -0.9670 c3        1 JKT     -0.113433
     32 C38         5.2980   -4.0920   -1.8120 c3        1 JKT     -0.113433
     33 N7         -1.4320    3.9620    0.0070 n         1 JKT     -0.442800
     34 C3         -1.1600    4.7110   -1.2210 c3        1 JKT      0.094700
     35 C1         -0.2810    5.9780   -0.9460 c3        1 JKT      0.353300
     36 N2          0.0130    6.7050   -2.1680 n3        1 JKT     -0.931800
     37 C4         -2.5250    5.1380   -1.8050 c3        1 JKT     -0.091400
     38 C5         -3.5720    4.8080   -0.7480 c3        1 JKT     -0.094400
     39 C6         -2.8290    4.0950    0.3940 c3        1 JKT      0.064000
     40 OXT         0.9210    5.5190   -0.3110 oh        1 JKT     -0.623800
     41 H141       -2.5290   -1.7780    2.1280 hc        1 JKT      0.067700
     42 H142       -1.7850   -1.7650    0.4720 hc        1 JKT      0.067700
     43 H151       -4.7830   -1.2720    1.1020 hc        1 JKT      0.064700
     44 H152       -4.0380   -1.2850   -0.5390 hc        1 JKT      0.064700
     45 H161       -3.2570   -3.6640   -0.1640 hc        1 JKT      0.046700
     46 H162       -4.0390   -3.6520    1.4670 hc        1 JKT      0.046700
     47 H18        -4.7680   -3.0540   -2.1950 ha        1 JKT      0.131000
     48 H22        -6.2980   -4.2790    1.6590 ha        1 JKT      0.131000
     49 H19        -6.9170   -3.7310   -3.2600 ha        1 JKT      0.131500
     50 H21        -8.4430   -4.9540    0.5930 ha        1 JKT      0.131500
     51 H20        -8.7580   -4.6820   -1.8680 ha        1 JKT      0.131000
     52 H231       -0.4120   -0.9780    2.5070 h1        1 JKT      0.064700
     53 H232        0.4150   -0.5570    0.9340 h1        1 JKT      0.064700
     54 H10        -1.8560    2.5560    2.1600 h1        1 JKT      0.089700
     55 H24         0.8540    0.4980    3.7380 h1        1 JKT      0.094700
     56 H251        1.0240    2.9430    2.0470 hc        1 JKT      0.081200
     57 H252        0.0270    2.6160    3.5230 hc        1 JKT      0.081200
     58 H30         2.1140    1.4440    0.1450 h4        1 JKT      0.235000
     59 H311        4.6480    1.0220   -1.0450 h1        1 JKT      0.081200
     60 H312        5.7450    1.8310    0.1860 h1        1 JKT      0.081200
     61 H32         6.5820   -0.4300    0.7030 hn        1 JKT      0.319500
     62 H391        8.1810   -2.4280   -2.8220 hc        1 JKT      0.051144
     63 H392        7.4300   -3.8740   -3.6260 hc        1 JKT      0.051144
     64 H393        6.5020   -2.3170   -3.5040 hc        1 JKT      0.051144
     65 H371        7.2340   -4.7150    0.0310 hc        1 JKT      0.051144
     66 H372        7.7500   -5.3190   -1.6070 hc        1 JKT      0.051144
     67 H373        8.6250   -3.9280   -0.8250 hc        1 JKT      0.051144
     68 H381        4.6030   -3.4040   -2.3510 hc        1 JKT      0.051144
     69 H382        5.4030   -5.0360   -2.3980 hc        1 JKT      0.051144
     70 H383        4.8660   -4.3300   -0.8110 hc        1 JKT      0.051144
     71 H3         -0.5970    4.0510   -1.9440 h1        1 JKT      0.088700
     72 H61C       -3.2960    3.0910    0.5980 h1        1 JKT      0.064700
     73 H62C       -2.8800    4.7080    1.3360 h1        1 JKT      0.064700
     74 H41C       -2.5430    6.2260   -2.0570 hc        1 JKT      0.064700
     75 H42C       -2.7190    4.5660   -2.7470 hc        1 JKT      0.064700
     76 H21N        0.6830    7.4260   -1.9910 hn        1 JKT      0.358300
     77 H22N        0.3700    6.0950   -2.8760 hn        1 JKT      0.358300
     78 H51C       -4.0640    5.7360   -0.3670 hc        1 JKT      0.054200
     79 H52C       -4.3680    4.1440   -1.1650 hc        1 JKT      0.054200
     80 HOXT        1.2210    6.2190    0.2780 ho        1 JKT      0.396000
     81 H1C        -0.8380    6.6770   -0.2560 h2        1 JKT      0.053700
@<TRIPOS>BOND
     1    1    2 1   
     2    1   10 1   
     3    1   41 1   
     4    1   42 1   
     5    2    3 1   
     6    2   43 1   
     7    2   44 1   
     8    3    4 1   
     9    3   45 1   
    10    3   46 1   
    11    4    5 ar  
    12    4    6 ar  
    13    5    7 ar  
    14    5   47 1   
    15    6    8 ar  
    16    6   48 1   
    17    7    9 ar  
    18    7   49 1   
    19    8    9 ar  
    20    8   50 1   
    21    9   51 1   
    22   10   11 2   
    23   10   12 1   
    24   12   13 1   
    25   12   14 1   
    26   13   18 1   
    27   13   52 1   
    28   13   53 1   
    29   14   15 1   
    30   14   17 1   
    31   14   54 1   
    32   15   16 2   
    33   15   33 1   
    34   17   18 1   
    35   17   56 1   
    36   17   57 1   
    37   18   19 1   
    38   18   55 1   
    39   19   20 1   
    40   19   22 1   
    41   20   21 2   
    42   21   23 1   
    43   22   23 2   
    44   22   58 1   
    45   23   24 1   
    46   24   25 1   
    47   24   59 1   
    48   24   60 1   
    49   25   27 1   
    50   25   61 1   
    51   26   27 2   
    52   27   28 1   
    53   28   29 1   
    54   29   30 1   
    55   29   31 1   
    56   29   32 1   
    57   30   62 1   
    58   30   63 1   
    59   30   64 1   
    60   31   65 1   
    61   31   66 1   
    62   31   67 1   
    63   32   68 1   
    64   32   69 1   
    65   32   70 1   
    66   33   34 1   
    67   33   39 1   
    68   34   35 1   
    69   34   37 1   
    70   34   71 1   
    71   35   36 1   
    72   35   40 1   
    73   35   81 1   
    74   36   76 1   
    75   36   77 1   
    76   37   38 1   
    77   37   74 1   
    78   37   75 1   
    79   38   39 1   
    80   38   78 1   
    81   38   79 1   
    82   39   72 1   
    83   39   73 1   
    84   40   80 1   
@<TRIPOS>SUBSTRUCTURE
     1 JKT         1 TEMP              0 ****  ****    0 ROOT
