@<TRIPOS>MOLECULE
JKT
   81    80     1     0     0
SMALL
bcc


@<TRIPOS>ATOM
      1 C14         2.9250    0.4450   -0.4550 c3        1 JKT     -0.178000
      2 C15         4.4860    0.4250   -0.3930 c3        1 JKT     -0.144000
      3 C16         4.9640    1.0250    0.9780 c3        1 JKT     -0.128000
      4 C17         6.4950    1.2680    0.9310 c2        1 JKT     -0.069000
      5 C18         6.9920    2.5660    0.8450 c2        1 JKT     -0.130000
      6 C22         7.3660    0.2010    1.0520 c1        1 JKT     -0.125000
      7 C19         8.3720    2.7890    0.8820 c1        1 JKT     -0.131000
      8 C21         8.7370    0.4250    1.0880 c1        1 JKT     -0.132000
      9 C20         9.2370    1.7270    1.0020 c1        1 JKT     -0.132000
     10 C12         2.4030   -0.9370   -0.2570 c2        1 JKT      0.326000
     11 O13         2.8230   -1.6150    0.6570 o         1 JKT     -0.358000
     12 N11         1.5090   -1.5520   -1.2880 n         1 JKT     -0.339000
     13 C23         1.0080   -3.1060   -1.3300 c3        1 JKT     -0.028000
     14 C10         0.9700   -0.9320   -2.3500 c3        1 JKT      0.033000
     15 C8          0.7220    0.5010   -2.0290 c2        1 JKT      0.294000
     16 O9          0.7960    0.8830   -0.8950 o         1 JKT     -0.367000
     17 C25        -0.4020   -1.8260   -2.6000 c3        1 JKT     -0.176000
     18 C24        -0.2580   -3.0930   -1.7320 c3        1 JKT      0.038000
     19 N26        -1.1850   -3.0210   -0.5440 n3        1 JKT     -0.170000
     20 N27        -0.8990   -2.4530    0.6560 n2        1 JKT      0.025000
     21 N28        -1.9250   -2.7340    1.5140 n2        1 JKT     -0.088000
     22 C30        -2.3720   -3.6460   -0.4340 c1        1 JKT     -0.108000
     23 C29        -2.8300   -3.4650    0.8520 c1        1 JKT     -0.213000
     24 C31        -4.2110   -3.9020    1.3910 c2        1 JKT      0.047000
     25 N32        -4.2830   -3.6380    2.7910 n         1 JKT     -0.314000
     26 O34        -6.3190   -2.5340    2.6930 o         1 JKT     -0.406000
     27 C33        -5.2690   -2.7060    3.3010 c2        1 JKT      0.385000
     28 O35        -5.0710   -2.0820    4.5930 os        1 JKT     -0.284000
     29 C36        -5.9400   -0.9860    4.8440 c3        1 JKT      0.114000
     30 C39        -7.3980   -1.5320    5.1990 c3        1 JKT     -0.231667
     31 C37        -5.4160   -0.1870    5.9980 c3        1 JKT     -0.231667
     32 C38        -6.0130   -0.0840    3.5820 c3        1 JKT     -0.231667
     33 N7          0.4560    1.4760   -3.1290 n         1 JKT     -0.329000
     34 C3          0.2450    3.0610   -2.9810 c3        1 JKT      0.004000
     35 C1         -1.2370    3.3960   -2.9800 c3        1 JKT      0.083000
     36 N2         -1.4180    4.7530   -3.4050 n3        1 JKT     -0.370000
     37 C4          0.8300    3.6090   -4.0250 c3        1 JKT     -0.162000
     38 C5          0.7810    2.5320   -5.1150 c3        1 JKT     -0.171000
     39 C6          0.3530    1.2110   -4.3790 c3        1 JKT     -0.023000
     40 OXT        -1.7440    3.2390   -1.7050 oh        1 JKT     -0.358000
     41 H141        2.5730    1.0350    0.2590 hc        1 JKT      0.109000
     42 H142        2.6360    0.7820   -1.3310 hc        1 JKT      0.109000
     43 H151        4.8130   -0.5210   -0.4780 hc        1 JKT      0.094000
     44 H152        4.8420    0.9530   -1.1150 hc        1 JKT      0.094000
     45 H161        4.7550    0.4000    1.6980 hc        1 JKT      0.099000
     46 H162        4.5100    1.8660    1.1390 hc        1 JKT      0.099000
     47 H18         6.3790    3.3190    0.7600 ha        1 JKT      0.128000
     48 H22         7.0160   -0.7160    1.1120 ha        1 JKT      0.141000
     49 H19         8.7270    3.7120    0.8210 ha        1 JKT      0.128000
     50 H21         9.3350   -0.3070    1.1710 ha        1 JKT      0.129500
     51 H20        10.2230    1.8860    1.0280 ha        1 JKT      0.129500
     52 H231        1.0710   -3.5070   -0.4220 h1        1 JKT      0.119500
     53 H232        1.5620   -3.6230   -1.9680 h1        1 JKT      0.119500
     54 H10         1.5030   -0.8590   -3.1640 h1        1 JKT      0.101000
     55 H24        -0.4530   -3.8970   -2.2700 h1        1 JKT      0.112000
     56 H251       -0.4770   -2.0730   -3.5470 hc        1 JKT      0.122500
     57 H252       -1.1850   -1.3190   -2.3230 hc        1 JKT      0.122500
     58 H30        -2.8350   -4.1480   -1.1520 DU        1 JKT      0.196000
     59 H311       -4.9170   -3.3990    0.9240 h4        1 JKT      0.120500
     60 H312       -4.3350   -4.8670    1.2340 h4        1 JKT      0.120500
     61 H32        -3.8010   -4.1390    3.3660 hn        1 JKT      0.236000
     62 H391       -7.8710   -0.8690    5.7490 hc        1 JKT      0.091000
     63 H392       -7.8920   -1.6860    4.3830 hc        1 JKT      0.091000
     64 H393       -7.3180   -2.4020    5.7150 hc        1 JKT      0.091000
     65 H371       -4.5040    0.1090    5.8030 hc        1 JKT      0.091000
     66 H372       -5.4140   -0.7440    6.8080 hc        1 JKT      0.091000
     67 H373       -6.0020    0.6110    6.1430 hc        1 JKT      0.091000
     68 H381       -6.1400    0.8530    3.8550 hc        1 JKT      0.091000
     69 H382       -6.7520   -0.3600    3.0330 hc        1 JKT      0.091000
     70 H383       -5.1620   -0.1680    3.0640 hc        1 JKT      0.091000
     71 H3          0.6570    3.3750   -2.1640 h1        1 JKT      0.110000
     72 H61C        0.9360    0.4970   -4.6150 h1        1 JKT      0.080500
     73 H62C       -0.5590    0.9860   -4.5970 h1        1 JKT      0.080500
     74 H41C        0.3350    4.4120   -4.3150 hc        1 JKT      0.107000
     75 H42C        1.7710    3.8420   -3.8080 hc        1 JKT      0.107000
     76 H21N       -1.9270    5.2010   -2.7890 hn        1 JKT      0.155000
     77 H22N       -1.8420    4.7640   -4.2220 hn        1 JKT      0.155000
     78 H51C        1.6580    2.4220   -5.5200 hc        1 JKT      0.096000
     79 H52C        0.1060    2.7760   -5.8100 hc        1 JKT      0.096000
     80 HOXT       -2.5880    3.5070   -1.6880 ho        1 JKT      0.222000
     81 H1C        -1.7120    2.7930   -3.5980 h2        1 JKT      0.126000
@<TRIPOS>BOND
     1    1    2 1   
     2    1   10 1   
     3    1   41 1   
     4    1   42 1   
     5    2    3 1   
     6    2   43 1   
     7    2   44 1   
     8    3    4 1   
     9    3   45 1   
    10    3   46 1   
    11    4    5 1   
    12    4    6 1   
    13    5    7 1   
    14    5   47 1   
    15    6   48 1   
    16    7   49 1   
    17    8    9 1   
    18    8   50 1   
    19    9   51 1   
    20   10   11 1   
    21   10   12 1   
    22   12   13 1   
    23   12   14 1   
    24   13   18 1   
    25   13   52 1   
    26   13   53 1   
    27   14   15 1   
    28   14   17 1   
    29   14   54 1   
    30   15   16 1   
    31   15   33 1   
    32   17   18 1   
    33   17   56 1   
    34   17   57 1   
    35   18   19 1   
    36   18   55 1   
    37   19   20 1   
    38   19   22 1   
    39   20   21 1   
    40   21   23 1   
    41   22   23 1   
    42   24   25 1   
    43   24   59 1   
    44   24   60 1   
    45   25   27 1   
    46   25   61 1   
    47   26   27 1   
    48   27   28 1   
    49   28   29 1   
    50   29   30 1   
    51   29   31 1   
    52   29   32 1   
    53   30   62 1   
    54   30   63 1   
    55   30   64 1   
    56   31   65 1   
    57   31   66 1   
    58   31   67 1   
    59   32   68 1   
    60   32   69 1   
    61   32   70 1   
    62   33   34 1   
    63   33   39 1   
    64   34   35 1   
    65   34   37 1   
    66   34   71 1   
    67   35   36 1   
    68   35   40 1   
    69   35   81 1   
    70   36   76 1   
    71   36   77 1   
    72   37   38 1   
    73   37   74 1   
    74   37   75 1   
    75   38   39 1   
    76   38   78 1   
    77   38   79 1   
    78   39   72 1   
    79   39   73 1   
    80   40   80 1   
@<TRIPOS>SUBSTRUCTURE
     1 JKT         1 TEMP              0 ****  ****    0 ROOT
