@<TRIPOS>MOLECULE
JKT
   83    86     1     0     0
SMALL
bcc


@<TRIPOS>ATOM
      1 C14        -0.6880   -0.1420   -0.5620 c3        1 JKT     -0.140400
      2 C15         0.8000    0.0240   -0.3370 c3        1 JKT     -0.073400
      3 C16         1.1500   -0.2230    1.1190 c3        1 JKT     -0.031100
      4 C17         2.6040   -0.0220    1.3660 ca        1 JKT     -0.096300
      5 C18         3.1230    1.2720    1.4920 ca        1 JKT     -0.126000
      6 C22         3.4610   -1.1210    1.4890 ca        1 JKT     -0.126000
      7 C19         4.4820    1.4630    1.7380 ca        1 JKT     -0.123000
      8 C21         4.8200   -0.9280    1.7350 ca        1 JKT     -0.123000
      9 C20         5.3320    0.3640    1.8590 ca        1 JKT     -0.119000
     10 C12        -1.0400    0.0520   -2.0190 c         1 JKT      0.686100
     11 O13        -0.1960    0.2070   -2.9210 o         1 JKT     -0.612100
     12 N11        -2.3860    0.0410   -2.3770 n         1 JKT     -0.499800
     13 C23        -3.4740   -0.0180   -1.4300 c3        1 JKT      0.087000
     14 C10        -2.8550    0.1340   -3.7490 c3        1 JKT      0.064700
     15 C8         -2.1990    1.2960   -4.5220 c         1 JKT      0.677100
     16 O9         -2.4680    2.4830   -4.2320 o         1 JKT     -0.640100
     17 C25        -4.3860    0.3420   -3.6920 c3        1 JKT     -0.105400
     18 C24        -4.7920   -0.1010   -2.2680 c3        1 JKT      0.043000
     19 N26        -5.8910    0.6600   -1.6930 na        1 JKT      0.063400
     20 N27        -7.0840    0.1120   -1.3310 nc        1 JKT     -0.101800
     21 N28        -7.8460    1.0040   -0.8620 nd        1 JKT     -0.358000
     22 C30        -5.8960    2.0310   -1.4110 cc        1 JKT     -0.139600
     23 C29        -7.1770    2.2590   -0.8690 cd        1 JKT      0.141600
     24 C31        -7.8030    3.5220   -0.4330 c3        1 JKT      0.130500
     25 N32        -8.7780    3.2960    0.6840 n4        1 JKT     -0.646800
     26 O34        -8.4680    5.5320    1.4380 o         1 JKT     -0.439000
     27 C33        -9.2440    4.5990    1.2840 c         1 JKT      0.634100
     28 O35       -10.5390    4.5110    1.5790 os        1 JKT     -0.419900
     29 C36       -11.2280    5.6700    2.2440 c3        1 JKT      0.205800
     30 C39       -11.1770    6.8640    1.3190 c3        1 JKT     -0.131433
     31 C37       -12.6360    5.1160    2.3930 c3        1 JKT     -0.131433
     32 C38       -10.5690    5.9290    3.5800 c3        1 JKT     -0.131433
     33 N7         -1.3790    1.0300   -5.6130 n         1 JKT     -0.433800
     34 C3         -0.5230    2.0890   -6.1360 c3        1 JKT      0.055700
     35 C1         -1.2550    2.9020   -7.2520 c3        1 JKT      0.338300
     36 N2         -0.3830    4.0820   -7.7080 n4        1 JKT     -0.894600
     37 C4          0.7490    1.4240   -6.7070 c3        1 JKT     -0.096400
     38 C5          0.5350   -0.0820   -6.6070 c3        1 JKT     -0.089400
     39 C6         -0.7890   -0.2840   -5.8590 c3        1 JKT      0.070000
     40 OXT        -2.4760    3.4570   -6.8890 oh        1 JKT     -0.565800
     41 H141       -1.0090   -1.1740   -0.2520 hc        1 JKT      0.073200
     42 H142       -1.2550    0.5980    0.0640 hc        1 JKT      0.073200
     43 H151        1.3630   -0.6910   -0.9940 hc        1 JKT      0.064700
     44 H152        1.1150    1.0590   -0.6340 hc        1 JKT      0.064700
     45 H161        0.5610    0.4770    1.7700 hc        1 JKT      0.047700
     46 H162        0.8540   -1.2690    1.4020 hc        1 JKT      0.047700
     47 H18         2.4540    2.1400    1.4040 ha        1 JKT      0.127500
     48 H22         3.0620   -2.1430    1.3990 ha        1 JKT      0.127500
     49 H19         4.8830    2.4820    1.8420 ha        1 JKT      0.139500
     50 H21         5.4880   -1.7970    1.8350 ha        1 JKT      0.139500
     51 H20         6.4040    0.5150    2.0580 ha        1 JKT      0.142000
     52 H231       -3.3760   -0.9340   -0.7830 h1        1 JKT      0.067700
     53 H232       -3.4590    0.8890   -0.7620 h1        1 JKT      0.067700
     54 H10        -2.6340   -0.8470   -4.2690 h1        1 JKT      0.086700
     55 H24        -5.1180   -1.1850   -2.3050 h1        1 JKT      0.123700
     56 H251       -4.8960   -0.2880   -4.4610 hc        1 JKT      0.088700
     57 H252       -4.6410    1.4150   -3.8850 hc        1 JKT      0.088700
     58 H30        -5.0520    2.6930   -1.6140 h4        1 JKT      0.217000
     59 H311       -8.3770    3.9950   -1.2850 hx        1 JKT      0.121200
     60 H312       -7.0170    4.2500   -0.0730 hx        1 JKT      0.121200
     61 H32        -8.3310    2.7420    1.4260 hn        1 JKT      0.479800
     62 H391      -10.1300    7.2400    1.2080 hc        1 JKT      0.074811
     63 H392      -11.5830    6.6020    0.3120 hc        1 JKT      0.074811
     64 H393      -11.8030    7.6840    1.7520 hc        1 JKT      0.074811
     65 H371      -13.2680    5.8960    2.8860 hc        1 JKT      0.074811
     66 H372      -12.6340    4.1960    3.0250 hc        1 JKT      0.074811
     67 H373      -13.0720    4.8710    1.3950 hc        1 JKT      0.074811
     68 H381      -11.1610    6.7020    4.1310 hc        1 JKT      0.074811
     69 H382      -10.5440    4.9970    4.1960 hc        1 JKT      0.074811
     70 H383       -9.5280    6.3110    3.4460 hc        1 JKT      0.074811
     71 H3         -0.2640    2.8050   -5.2990 h1        1 JKT      0.087700
     72 H61C       -0.5960   -0.8200   -4.8860 h1        1 JKT      0.081200
     73 H62C       -1.5130   -0.8850   -6.4760 h1        1 JKT      0.081200
     74 H41C        0.9370    1.7120   -7.7690 hc        1 JKT      0.063700
     75 H42C        1.6360    1.7350   -6.0970 hc        1 JKT      0.063700
     76 H21N       -0.9520    4.7000   -8.2970 hn        1 JKT      0.459467
     77 H22N       -0.0490    4.6160   -6.9040 hn        1 JKT      0.459467
     78 H51C        1.3740   -0.5670   -6.0470 hc        1 JKT      0.083700
     79 H52C        0.4860   -0.5500   -7.6220 hc        1 JKT      0.083700
     80 HOXT       -2.5190    3.5960   -5.9230 ho        1 JKT      0.473000
     81 H1C        -1.4490    2.2760   -8.1780 hx        1 JKT      0.142700
     82 H322       -9.5920    2.7640    0.3410 hn        1 JKT      0.479800
     83 H23         0.4190    3.7380   -8.2410 hn        1 JKT      0.459467
@<TRIPOS>BOND
     1    1    2 1   
     2    1   10 1   
     3    1   41 1   
     4    1   42 1   
     5    2    3 1   
     6    2   43 1   
     7    2   44 1   
     8    3    4 1   
     9    3   45 1   
    10    3   46 1   
    11    4    5 ar  
    12    4    6 ar  
    13    5    7 ar  
    14    5   47 1   
    15    6    8 ar  
    16    6   48 1   
    17    7    9 ar  
    18    7   49 1   
    19    8    9 ar  
    20    8   50 1   
    21    9   51 1   
    22   10   11 2   
    23   10   12 1   
    24   12   13 1   
    25   12   14 1   
    26   13   18 1   
    27   13   52 1   
    28   13   53 1   
    29   14   15 1   
    30   14   17 1   
    31   14   54 1   
    32   15   16 2   
    33   15   33 1   
    34   17   18 1   
    35   17   56 1   
    36   17   57 1   
    37   18   19 1   
    38   18   55 1   
    39   19   20 1   
    40   19   22 1   
    41   20   21 2   
    42   21   23 1   
    43   22   23 2   
    44   22   58 1   
    45   23   24 1   
    46   24   25 1   
    47   24   59 1   
    48   24   60 1   
    49   25   27 1   
    50   25   61 1   
    51   25   82 1   
    52   26   27 2   
    53   27   28 1   
    54   28   29 1   
    55   29   30 1   
    56   29   31 1   
    57   29   32 1   
    58   30   62 1   
    59   30   63 1   
    60   30   64 1   
    61   31   65 1   
    62   31   66 1   
    63   31   67 1   
    64   32   68 1   
    65   32   69 1   
    66   32   70 1   
    67   33   34 1   
    68   33   39 1   
    69   34   35 1   
    70   34   37 1   
    71   34   71 1   
    72   35   36 1   
    73   35   40 1   
    74   35   81 1   
    75   36   76 1   
    76   36   77 1   
    77   36   83 1   
    78   37   38 1   
    79   37   74 1   
    80   37   75 1   
    81   38   39 1   
    82   38   78 1   
    83   38   79 1   
    84   39   72 1   
    85   39   73 1   
    86   40   80 1   
@<TRIPOS>SUBSTRUCTURE
     1 JKT         1 TEMP              0 ****  ****    0 ROOT
