@<TRIPOS>MOLECULE
JKZ
   22    23     1     0     0
SMALL
bcc


@<TRIPOS>ATOM
      1 F1          0.0270   -0.1060    0.1570 f         1 JKZ     -0.231633
      2 C2          1.3910   -0.0250    0.0230 c3        1 JKZ      0.683100
      3 F3          1.8630   -0.1610    1.3070 f         1 JKZ     -0.231633
      4 F4          1.7380   -1.2040   -0.5920 f         1 JKZ     -0.231633
      5 C5          1.8900    1.2270   -0.6970 cc        1 JKZ     -0.039200
      6 C6          3.2840    1.4110   -0.8900 cc        1 JKZ     -0.191200
      7 C7          3.7330    2.5530   -1.5460 cd        1 JKZ      0.060400
      8 N8          2.8830    3.5130   -2.0180 n         1 JKZ     -0.415100
      9 C9          1.4870    3.3710   -1.8490 c         1 JKZ      0.684700
     10 C10         1.0160    2.1670   -1.1560 cd        1 JKZ     -0.210200
     11 O12         0.7480    4.2690   -2.2930 o         1 JKZ     -0.623500
     12 C14         5.2340    2.5700   -1.6540 c3        1 JKZ     -0.051200
     13 C17         5.6820    1.2700   -0.9690 c3        1 JKZ     -0.076400
     14 C20         4.4210    0.5380   -0.4850 c3        1 JKZ     -0.024200
     15 HN8         3.2360    4.3200   -2.4840 hn        1 JKZ      0.339500
     16 H10        -0.0750    2.0810   -1.0380 ha        1 JKZ      0.183000
     17 H14         5.6590    3.4680   -1.1390 hc        1 JKZ      0.067700
     18 H14A        5.5560    2.5970   -2.7250 hc        1 JKZ      0.067700
     19 H17         6.3540    1.5000   -0.1070 hc        1 JKZ      0.054700
     20 H17A        6.2510    0.6310   -1.6880 hc        1 JKZ      0.054700
     21 H20         4.3310   -0.4740   -0.9560 hc        1 JKZ      0.065700
     22 H20A        4.4350    0.3950    0.6260 hc        1 JKZ      0.065700
@<TRIPOS>BOND
     1    1    2 1   
     2    2    3 1   
     3    2    4 1   
     4    2    5 1   
     5    5    6 1   
     6    5   10 2   
     7    6    7 2   
     8    6   14 1   
     9    7    8 1   
    10    7   12 1   
    11    8    9 1   
    12    8   15 1   
    13    9   10 1   
    14    9   11 2   
    15   10   16 1   
    16   12   13 1   
    17   12   17 1   
    18   12   18 1   
    19   13   14 1   
    20   13   19 1   
    21   13   20 1   
    22   14   21 1   
    23   14   22 1   
@<TRIPOS>SUBSTRUCTURE
     1 JKZ         1 TEMP              0 ****  ****    0 ROOT
