@<TRIPOS>MOLECULE
JKZ
   22    23     1     0     0
SMALL
bcc


@<TRIPOS>ATOM
      1 F1         -2.8690   -0.9800   -0.0300 f         1 JKZ     -0.231633
      2 C2         -1.9880    0.0720   -0.0050 c3        1 JKZ      0.683100
      3 F3         -2.3680    0.8530   -1.0700 f         1 JKZ     -0.231633
      4 F4         -2.3630    0.7980    1.0990 f         1 JKZ     -0.231633
      5 C5         -0.5120   -0.3270   -0.0180 cc        1 JKZ     -0.039200
      6 C6          0.4830    0.6840    0.0050 cc        1 JKZ     -0.191200
      7 C7          1.8250    0.3140   -0.0060 cd        1 JKZ      0.060400
      8 N8          2.2290   -0.9910   -0.0410 n         1 JKZ     -0.415100
      9 C9          1.2720   -2.0300   -0.0650 c         1 JKZ      0.684700
     10 C10        -0.1420   -1.6380   -0.0520 cd        1 JKZ     -0.210200
     11 O12         1.6830   -3.2050   -0.0960 o         1 JKZ     -0.623500
     12 C14         2.7270    1.5190    0.0220 c3        1 JKZ     -0.051200
     13 C17         1.7650    2.7160    0.0550 c3        1 JKZ     -0.076400
     14 C20         0.3310    2.1650    0.0430 c3        1 JKZ     -0.024200
     15 HN8         3.1980   -1.2230   -0.0480 hn        1 JKZ      0.339500
     16 H10        -0.8660   -2.4670   -0.0720 ha        1 JKZ      0.183000
     17 H14         3.3850    1.5010    0.9270 hc        1 JKZ      0.067700
     18 H14A        3.3810    1.5470   -0.8850 hc        1 JKZ      0.067700
     19 H17         1.9400    3.3270    0.9740 hc        1 JKZ      0.054700
     20 H17A        1.9370    3.3730   -0.8320 hc        1 JKZ      0.054700
     21 H20        -0.2380    2.5280   -0.8510 hc        1 JKZ      0.065700
     22 H20A       -0.2340    2.4820    0.9570 hc        1 JKZ      0.065700
@<TRIPOS>BOND
     1    1    2 1   
     2    2    3 1   
     3    2    4 1   
     4    2    5 1   
     5    5    6 1   
     6    5   10 2   
     7    6    7 2   
     8    6   14 1   
     9    7    8 1   
    10    7   12 1   
    11    8    9 1   
    12    8   15 1   
    13    9   10 1   
    14    9   11 2   
    15   10   16 1   
    16   12   13 1   
    17   12   17 1   
    18   12   18 1   
    19   13   14 1   
    20   13   19 1   
    21   13   20 1   
    22   14   21 1   
    23   14   22 1   
@<TRIPOS>SUBSTRUCTURE
     1 JKZ         1 TEMP              0 ****  ****    0 ROOT
