@<TRIPOS>MOLECULE
JKZ
   22    23     1     0     0
SMALL
bcc


@<TRIPOS>ATOM
      1 F1          0.0270   -0.1110    0.1590 f         1 JKZ     -0.231633
      2 C2          1.3910   -0.0260    0.0260 c3        1 JKZ      0.683100
      3 F3          1.8610   -0.1550    1.3100 f         1 JKZ     -0.231633
      4 F4          1.7420   -1.2060   -0.5840 f         1 JKZ     -0.231633
      5 C5          1.8870    1.2250   -0.6990 cc        1 JKZ     -0.039200
      6 C6          3.2810    1.4110   -0.8910 cc        1 JKZ     -0.191200
      7 C7          3.7280    2.5520   -1.5520 cd        1 JKZ      0.060400
      8 N8          2.8750    3.5080   -2.0270 n         1 JKZ     -0.415100
      9 C9          1.4800    3.3640   -1.8580 c         1 JKZ      0.684700
     10 C10         1.0120    2.1610   -1.1610 cd        1 JKZ     -0.210200
     11 O12         0.7390    4.2580   -2.3060 o         1 JKZ     -0.623500
     12 C14         5.2290    2.5720   -1.6590 c3        1 JKZ     -0.051200
     13 C17         5.6790    1.2760   -0.9700 c3        1 JKZ     -0.076400
     14 C20         4.4200    0.5420   -0.4830 c3        1 JKZ     -0.024200
     15 HN8         3.2270    4.3140   -2.4960 hn        1 JKZ      0.339500
     16 H10        -0.0800    2.0730   -1.0430 ha        1 JKZ      0.183000
     17 H14         5.6520    3.4730   -1.1470 hc        1 JKZ      0.067700
     18 H14A        5.5500    2.5960   -2.7300 hc        1 JKZ      0.067700
     19 H17         6.2500    0.6360   -1.6860 hc        1 JKZ      0.054700
     20 H17A        6.3510    1.5100   -0.1080 hc        1 JKZ      0.054700
     21 H20         4.3320   -0.4710   -0.9510 hc        1 JKZ      0.065700
     22 H20A        4.4330    0.4040    0.6290 hc        1 JKZ      0.065700
@<TRIPOS>BOND
     1    1    2 1   
     2    2    3 1   
     3    2    4 1   
     4    2    5 1   
     5    5    6 1   
     6    5   10 2   
     7    6    7 2   
     8    6   14 1   
     9    7    8 1   
    10    7   12 1   
    11    8    9 1   
    12    8   15 1   
    13    9   10 1   
    14    9   11 2   
    15   10   16 1   
    16   12   13 1   
    17   12   17 1   
    18   12   18 1   
    19   13   14 1   
    20   13   19 1   
    21   13   20 1   
    22   14   21 1   
    23   14   22 1   
@<TRIPOS>SUBSTRUCTURE
     1 JKZ         1 TEMP              0 ****  ****    0 ROOT
