@<TRIPOS>MOLECULE
JL9
   47    50     1     0     0
SMALL
bcc


@<TRIPOS>ATOM
      1 CAA        -0.1980   -0.2980    0.7990 ca        1 JL9     -0.236800
      2 CAB         1.0140    0.3290    1.1400 ca        1 JL9      0.389700
      3 NAC         1.1400    1.2080    2.1530 nb        1 JL9     -0.663000
      4 CAD         0.0310    1.4870    2.8650 ca        1 JL9      0.389700
      5 CAE        -1.2250    0.9110    2.6070 ca        1 JL9     -0.236800
      6 CAF        -1.3400    0.0000    1.5500 ca        1 JL9     -0.051300
      7 CAG        -2.6780   -0.5870    1.2090 c3        1 JL9      0.208100
      8 NAH        -2.6510   -2.0260    0.9710 n3        1 JL9     -0.727600
      9 CAI        -3.9000   -2.4930    0.3810 c3        1 JL9      0.133300
     10 CAJ        -3.9220   -4.0200    0.1700 c3        1 JL9      0.175800
     11 CAM        -2.2760   -2.7810    2.1580 c3        1 JL9      0.133300
     12 CAL        -2.2810   -4.3040    1.9140 c3        1 JL9      0.175800
     13 NAK        -3.5010   -4.8230    1.3080 nh        1 JL9     -0.685600
     14 CAN        -4.5350   -5.1490    2.2720 cc        1 JL9      0.643800
     15 NAT        -5.6260   -4.3860    2.4310 nd        1 JL9     -0.676300
     16 CAS        -6.6120   -4.8210    3.3060 cd        1 JL9      0.192400
     17 CAU        -7.8150   -3.9300    3.4520 c3        1 JL9     -0.031200
     18 CAV        -8.9880   -4.6530    4.0810 c3        1 JL9     -0.080400
     19 CAW        -8.5660   -5.4220    5.3130 c3        1 JL9     -0.078400
     20 CAX        -7.5450   -6.4860    4.9640 c3        1 JL9     -0.018200
     21 CAR        -6.5030   -5.9840    4.0380 cc        1 JL9     -0.244400
     22 CAP        -5.3020   -6.8100    3.8920 c         1 JL9      0.696700
     23 OAQ        -5.0650   -7.8730    4.4970 o         1 JL9     -0.633500
     24 NAO        -4.3290   -6.3410    2.9840 n         1 JL9     -0.473400
     25 HAA        -0.2430   -1.0080   -0.0380 ha        1 JL9      0.150000
     26 HAB         1.9370    0.1170    0.5710 h4        1 JL9      0.022600
     27 HAD         0.1600    2.2110    3.6900 h4        1 JL9      0.022600
     28 HAE        -2.0930    1.1770    3.2250 ha        1 JL9      0.150000
     29 HAG1       -3.0310   -0.0940    0.2560 h1        1 JL9      0.047200
     30 HAG2       -3.4160   -0.3180    2.0230 h1        1 JL9      0.047200
     31 HAI1       -4.0010   -2.0080   -0.6310 h1        1 JL9      0.049450
     32 HAI2       -4.7950   -2.1930    1.0000 h1        1 JL9      0.049450
     33 HAM1       -1.2300   -2.4750    2.4390 h1        1 JL9      0.049450
     34 HAM2       -2.9530   -2.5520    3.0330 h1        1 JL9      0.049450
     35 HAJ1       -3.2020   -4.2860   -0.6570 h1        1 JL9      0.069950
     36 HAJ2       -4.9570   -4.3160   -0.1540 h1        1 JL9      0.069950
     37 HAL1       -2.0780   -4.8140    2.8950 h1        1 JL9      0.069950
     38 HAL2       -1.4490   -4.5660    1.2000 h1        1 JL9      0.069950
     39 HAO        -3.5150   -6.8940    2.8260 hn        1 JL9      0.341500
     40 HAU1       -8.1210   -3.5230    2.4510 hc        1 JL9      0.065200
     41 HAU2       -7.5190   -3.0550    4.0930 hc        1 JL9      0.065200
     42 HAV1       -9.4390   -5.3600    3.3360 hc        1 JL9      0.046700
     43 HAV2       -9.7750   -3.9020    4.3520 hc        1 JL9      0.046700
     44 HAW1       -8.1320   -4.7140    6.0670 hc        1 JL9      0.045200
     45 HAW2       -9.4600   -5.9070    5.7830 hc        1 JL9      0.045200
     46 HAX1       -7.0560   -6.8720    5.9000 hc        1 JL9      0.062700
     47 HAX2       -8.0580   -7.3620    4.4810 hc        1 JL9      0.062700
@<TRIPOS>BOND
     1    1    2 ar  
     2    1    6 ar  
     3    1   25 1   
     4    2    3 ar  
     5    2   26 1   
     6    3    4 ar  
     7    4    5 ar  
     8    4   27 1   
     9    5    6 ar  
    10    5   28 1   
    11    6    7 1   
    12    7    8 1   
    13    7   29 1   
    14    7   30 1   
    15    8    9 1   
    16    8   11 1   
    17    9   10 1   
    18    9   31 1   
    19    9   32 1   
    20   10   13 1   
    21   10   35 1   
    22   10   36 1   
    23   11   12 1   
    24   11   33 1   
    25   11   34 1   
    26   12   13 1   
    27   12   37 1   
    28   12   38 1   
    29   13   14 1   
    30   14   15 2   
    31   14   24 1   
    32   15   16 1   
    33   16   17 1   
    34   16   21 2   
    35   17   18 1   
    36   17   40 1   
    37   17   41 1   
    38   18   19 1   
    39   18   42 1   
    40   18   43 1   
    41   19   20 1   
    42   19   44 1   
    43   19   45 1   
    44   20   21 1   
    45   20   46 1   
    46   20   47 1   
    47   21   22 1   
    48   22   23 2   
    49   22   24 1   
    50   24   39 1   
@<TRIPOS>SUBSTRUCTURE
     1 JL9         1 TEMP              0 ****  ****    0 ROOT
