@<TRIPOS>MOLECULE
JL9
   47    50     1     0     0
SMALL
bcc


@<TRIPOS>ATOM
      1 CAA        -0.1630   -0.3450    0.7990 ca        1 JL9     -0.236800
      2 CAB         1.0440    0.2870    1.1470 ca        1 JL9      0.389700
      3 NAC         1.1550    1.1890    2.1420 nb        1 JL9     -0.663000
      4 CAD         0.0350    1.4850    2.8290 ca        1 JL9      0.389700
      5 CAE        -1.2180    0.9060    2.5630 ca        1 JL9     -0.236800
      6 CAF        -1.3170   -0.0280    1.5240 ca        1 JL9     -0.051300
      7 CAG        -2.6500   -0.6210    1.1740 c3        1 JL9      0.208100
      8 NAH        -2.6220   -2.0640    0.9690 n3        1 JL9     -0.727600
      9 CAI        -3.8620   -2.5430    0.3680 c3        1 JL9      0.133300
     10 CAJ        -3.8830   -4.0740    0.1910 c3        1 JL9      0.175800
     11 CAM        -2.2700   -2.7940    2.1790 c3        1 JL9      0.133300
     12 CAL        -2.2730   -4.3210    1.9690 c3        1 JL9      0.175800
     13 NAK        -3.4830   -4.8520    1.3540 nh        1 JL9     -0.685600
     14 CAN        -4.5340   -5.1550    2.3070 cc        1 JL9      0.643800
     15 NAT        -5.6270   -4.3880    2.4300 nd        1 JL9     -0.676300
     16 CAS        -6.6290   -4.8020    3.2970 cd        1 JL9      0.192400
     17 CAU        -7.8320   -3.9070    3.4020 c3        1 JL9     -0.031200
     18 CAV        -9.0170   -4.6140    4.0270 c3        1 JL9     -0.080400
     19 CAW        -8.6170   -5.3560    5.2830 c3        1 JL9     -0.078400
     20 CAX        -7.5920   -6.4280    4.9760 c3        1 JL9     -0.018200
     21 CAR        -6.5330   -5.9480    4.0570 cc        1 JL9     -0.244400
     22 CAP        -5.3310   -6.7790    3.9500 c         1 JL9      0.696700
     23 OAQ        -5.1070   -7.8270    4.5830 o         1 JL9     -0.633500
     24 NAO        -4.3430   -6.3310    3.0490 ns        1 JL9     -0.473400
     25 HAA        -0.1960   -1.0730   -0.0230 ha        1 JL9      0.150000
     26 HAB         1.9760    0.0620    0.5980 h4        1 JL9      0.022600
     27 HAD         0.1510    2.2280    3.6390 h4        1 JL9      0.022600
     28 HAE        -2.0960    1.1870    3.1600 ha        1 JL9      0.150000
     29 HAG1       -2.9870   -0.1480    0.2040 h1        1 JL9      0.047200
     30 HAG2       -3.4020   -0.3320    1.9690 h1        1 JL9      0.047200
     31 HAI1       -4.7670   -2.2280    0.9650 h1        1 JL9      0.049450
     32 HAI2       -3.9450   -2.0810   -0.6550 h1        1 JL9      0.049450
     33 HAM1       -2.9610   -2.5440    3.0360 h1        1 JL9      0.049450
     34 HAM2       -1.2280   -2.4830    2.4710 h1        1 JL9      0.049450
     35 HAJ1       -4.9130   -4.3760   -0.1440 h1        1 JL9      0.069950
     36 HAJ2       -3.1500   -4.3600   -0.6180 h1        1 JL9      0.069950
     37 HAL1       -2.0870   -4.8100    2.9640 h1        1 JL9      0.069950
     38 HAL2       -1.4290   -4.6010    1.2750 h1        1 JL9      0.069950
     39 HAO        -3.5260   -6.8880    2.9170 hn        1 JL9      0.341500
     40 HAU1       -7.5460   -3.0180    4.0280 hc        1 JL9      0.065200
     41 HAU2       -8.1200   -3.5220    2.3870 hc        1 JL9      0.065200
     42 HAV1       -9.8080   -3.8560    4.2670 hc        1 JL9      0.046700
     43 HAV2       -9.4560   -5.3370    3.2900 hc        1 JL9      0.046700
     44 HAW1       -8.1960   -4.6310    6.0280 hc        1 JL9      0.045200
     45 HAW2       -9.5210   -5.8300    5.7480 hc        1 JL9      0.045200
     46 HAX1       -7.1200   -6.7930    5.9280 hc        1 JL9      0.062700
     47 HAX2       -8.0980   -7.3150    4.5040 hc        1 JL9      0.062700
@<TRIPOS>BOND
     1    1    2 ar  
     2    1    6 ar  
     3    1   25 1   
     4    2    3 ar  
     5    2   26 1   
     6    3    4 ar  
     7    4    5 ar  
     8    4   27 1   
     9    5    6 ar  
    10    5   28 1   
    11    6    7 1   
    12    7    8 1   
    13    7   29 1   
    14    7   30 1   
    15    8    9 1   
    16    8   11 1   
    17    9   10 1   
    18    9   31 1   
    19    9   32 1   
    20   10   13 1   
    21   10   35 1   
    22   10   36 1   
    23   11   12 1   
    24   11   33 1   
    25   11   34 1   
    26   12   13 1   
    27   12   37 1   
    28   12   38 1   
    29   13   14 1   
    30   14   15 2   
    31   14   24 1   
    32   15   16 1   
    33   16   17 1   
    34   16   21 2   
    35   17   18 1   
    36   17   40 1   
    37   17   41 1   
    38   18   19 1   
    39   18   42 1   
    40   18   43 1   
    41   19   20 1   
    42   19   44 1   
    43   19   45 1   
    44   20   21 1   
    45   20   46 1   
    46   20   47 1   
    47   21   22 1   
    48   22   23 2   
    49   22   24 1   
    50   24   39 1   
@<TRIPOS>SUBSTRUCTURE
     1 JL9         1 TEMP              0 ****  ****    0 ROOT
