@<TRIPOS>MOLECULE
JLJ
   41    42     1     0     0
SMALL
bcc


@<TRIPOS>ATOM
      1 C11        -0.0910   -0.2440    0.1080 ca        1 JLJ      0.899900
      2 N12         1.2470    0.0510   -0.1390 nb        1 JLJ     -0.812000
      3 C13         2.0170    0.2390    0.9580 ca        1 JLJ      0.688600
      4 C14         1.5210    0.1670    2.2890 ca        1 JLJ     -0.418600
      5 C15         0.1570   -0.1170    2.4100 ca        1 JLJ      0.475200
      6 N16        -0.6670   -0.3220    1.3650 nb        1 JLJ     -0.757000
      7 O17         3.3570    0.5280    0.8540 os        1 JLJ     -0.439100
      8 C18         3.9260    0.6040   -0.4550 c3        1 JLJ      0.122700
      9 N19        -0.8670   -0.5200   -1.0380 nh        1 JLJ     -0.716300
     10 C20        -5.0990   -0.6850   -1.1450 ca        1 JLJ     -0.057000
     11 C21        -4.3830    0.1500   -2.0240 ca        1 JLJ      0.156100
     12 C22        -2.9890    0.2310   -1.9600 ca        1 JLJ     -0.193000
     13 C23        -2.2770   -0.5420   -1.0180 ca        1 JLJ      0.177600
     14 C24        -2.9960   -1.3850   -0.1420 ca        1 JLJ     -0.128000
     15 C25        -4.3820   -1.4440   -0.2080 ca        1 JLJ     -0.070000
     16 N27        -7.6720   -0.8910   -1.2300 n1        1 JLJ     -0.363800
     17 C28        -6.5130   -0.7890   -1.1960 cg        1 JLJ      0.242800
     18 C41        -5.7150    2.0170   -2.6000 c3        1 JLJ      0.168600
     19 C42        -6.3490    2.6150   -3.8010 c2        1 JLJ     -0.186200
     20 C43        -7.0930    3.7300   -3.7440 c2        1 JLJ     -0.107400
     21 C44        -7.7210    4.3090   -4.9560 c3        1 JLJ     -0.062400
     22 C45        -7.3410    4.4520   -2.4730 c3        1 JLJ     -0.062400
     23 H1          2.1780    0.3290    3.1470 ha        1 JLJ      0.171000
     24 H2         -0.3230   -0.1850    3.4050 h4        1 JLJ      0.032100
     25 H3          5.0010    0.8350   -0.2450 h1        1 JLJ      0.053700
     26 H4          3.4490    1.4250   -1.0430 h1        1 JLJ      0.053700
     27 H5          3.8230   -0.3720   -0.9860 h1        1 JLJ      0.053700
     28 H6         -0.4670   -0.2120   -1.9020 hn        1 JLJ      0.446800
     29 H7         -2.4700    0.8940   -2.6700 ha        1 JLJ      0.154000
     30 H8         -2.4690   -2.0080    0.5980 ha        1 JLJ      0.165000
     31 H9         -4.9290   -2.1060    0.4820 ha        1 JLJ      0.149000
     32 H10        -6.4820    1.7210   -1.8350 h1        1 JLJ      0.047700
     33 H11        -4.9770    2.7240   -2.1310 h1        1 JLJ      0.047700
     34 H12        -6.1740    2.0790   -4.7480 ha        1 JLJ      0.148000
     35 H13        -7.4950    3.7040   -5.8680 hc        1 JLJ      0.044200
     36 H14        -7.3480    5.3510   -5.1200 hc        1 JLJ      0.044200
     37 H15        -8.8320    4.3520   -4.8260 hc        1 JLJ      0.044200
     38 H16        -7.9320    5.3840   -2.6430 hc        1 JLJ      0.044200
     39 H17        -7.9090    3.7990   -1.7620 hc        1 JLJ      0.044200
     40 H18        -6.3730    4.7310   -1.9850 hc        1 JLJ      0.044200
     41 O26        -5.0100    0.8400   -3.0500 os        1 JLJ     -0.343900
@<TRIPOS>BOND
     1    1    2 ar  
     2    1    6 ar  
     3    1    9 1   
     4    2    3 ar  
     5    3    4 ar  
     6    3    7 1   
     7    4    5 ar  
     8    4   23 1   
     9    5    6 ar  
    10    5   24 1   
    11    7    8 1   
    12    8   25 1   
    13    8   26 1   
    14    8   27 1   
    15    9   13 1   
    16    9   28 1   
    17   10   11 ar  
    18   10   15 ar  
    19   10   17 1   
    20   11   12 ar  
    21   11   41 1   
    22   12   13 ar  
    23   12   29 1   
    24   13   14 ar  
    25   14   15 ar  
    26   14   30 1   
    27   15   31 1   
    28   16   17 3   
    29   18   19 1   
    30   18   32 1   
    31   18   33 1   
    32   18   41 1   
    33   19   20 2   
    34   19   34 1   
    35   20   21 1   
    36   20   22 1   
    37   21   35 1   
    38   21   36 1   
    39   21   37 1   
    40   22   38 1   
    41   22   39 1   
    42   22   40 1   
@<TRIPOS>SUBSTRUCTURE
     1 JLJ         1 TEMP              0 ****  ****    0 ROOT
