@<TRIPOS>MOLECULE
JLJ
   41    42     1     0     0
SMALL
bcc


@<TRIPOS>ATOM
      1 C11        -2.8330    0.0570   -0.1820 ca        1 JLJ      0.900900
      2 N12        -3.6810   -1.0290   -0.3860 nb        1 JLJ     -0.814000
      3 C13        -4.8780   -0.9640    0.2430 ca        1 JLJ      0.688600
      4 C14        -5.2670    0.1160    1.0820 ca        1 JLJ     -0.418600
      5 C15        -4.3240    1.1390    1.2270 ca        1 JLJ      0.476200
      6 N16        -3.1200    1.1450    0.6250 nb        1 JLJ     -0.753000
      7 O17        -5.8100   -1.9660    0.1170 os        1 JLJ     -0.439100
      8 C18        -5.4910   -3.0770   -0.7230 c3        1 JLJ      0.123700
      9 N19        -1.6230    0.0170   -0.9050 nh        1 JLJ     -0.717300
     10 C20         1.7440    2.4840   -0.1990 ca        1 JLJ     -0.065000
     11 C21         1.8710    1.0750   -0.2420 ca        1 JLJ      0.190100
     12 C22         0.7500    0.2660   -0.4440 ca        1 JLJ     -0.261000
     13 C23        -0.5250    0.8530   -0.6150 ca        1 JLJ      0.202600
     14 C24        -0.6470    2.2580   -0.5840 ca        1 JLJ     -0.156000
     15 C25         0.4760    3.0490   -0.3720 ca        1 JLJ     -0.048000
     16 N27         3.8040    3.9900    0.1870 n1        1 JLJ     -0.370800
     17 C28         2.8750    3.3110    0.0130 cg        1 JLJ      0.253800
     18 C41         3.3040   -0.8330   -0.0710 c3        1 JLJ      0.165600
     19 C42         4.7490   -1.0930    0.1530 c2        1 JLJ     -0.188200
     20 C43         5.2560   -2.3340    0.2130 c2        1 JLJ     -0.105400
     21 C44         4.4120   -3.5430    0.0600 c3        1 JLJ     -0.062900
     22 C45         6.7020   -2.5710    0.4380 c3        1 JLJ     -0.062900
     23 H1         -6.2430    0.1260    1.5750 ha        1 JLJ      0.171000
     24 H2         -4.5320    2.0180    1.8670 h4        1 JLJ      0.033100
     25 H3         -5.3200   -2.7400   -1.7720 h1        1 JLJ      0.053033
     26 H4         -4.5970   -3.6190   -0.3320 h1        1 JLJ      0.053033
     27 H5         -6.4090   -3.7140   -0.6510 h1        1 JLJ      0.053033
     28 H6         -1.3790   -0.8840   -1.2660 hn        1 JLJ      0.443800
     29 H7          0.8580   -0.8280   -0.4710 ha        1 JLJ      0.142000
     30 H8         -1.6240    2.7440   -0.7290 ha        1 JLJ      0.165000
     31 H9          0.3670    4.1450   -0.3440 ha        1 JLJ      0.150000
     32 H10         2.6790   -1.2750    0.7520 h1        1 JLJ      0.047700
     33 H11         2.9670   -1.2430   -1.0620 h1        1 JLJ      0.047700
     34 H12         5.3810   -0.1980    0.2680 ha        1 JLJ      0.154000
     35 H13         3.9020   -3.5390   -0.9360 hc        1 JLJ      0.044367
     36 H14         5.0210   -4.4770    0.1400 hc        1 JLJ      0.044367
     37 H15         3.6220   -3.5690    0.8530 hc        1 JLJ      0.044367
     38 H16         7.2670   -1.6130    0.5430 hc        1 JLJ      0.044367
     39 H17         6.8500   -3.1740    1.3690 hc        1 JLJ      0.044367
     40 H18         7.1330   -3.1440   -0.4210 hc        1 JLJ      0.044367
     41 O26         3.1490    0.5970   -0.0720 os        1 JLJ     -0.315900
@<TRIPOS>BOND
     1    1    2 ar  
     2    1    6 ar  
     3    1    9 1   
     4    2    3 ar  
     5    3    4 ar  
     6    3    7 1   
     7    4    5 ar  
     8    4   23 1   
     9    5    6 ar  
    10    5   24 1   
    11    7    8 1   
    12    8   25 1   
    13    8   26 1   
    14    8   27 1   
    15    9   13 1   
    16    9   28 1   
    17   10   11 ar  
    18   10   15 ar  
    19   10   17 1   
    20   11   12 ar  
    21   11   41 1   
    22   12   13 ar  
    23   12   29 1   
    24   13   14 ar  
    25   14   15 ar  
    26   14   30 1   
    27   15   31 1   
    28   16   17 3   
    29   18   19 1   
    30   18   32 1   
    31   18   33 1   
    32   18   41 1   
    33   19   20 2   
    34   19   34 1   
    35   20   21 1   
    36   20   22 1   
    37   21   35 1   
    38   21   36 1   
    39   21   37 1   
    40   22   38 1   
    41   22   39 1   
    42   22   40 1   
@<TRIPOS>SUBSTRUCTURE
     1 JLJ         1 TEMP              0 ****  ****    0 ROOT
