@<TRIPOS>MOLECULE
JLJ
   41    35     1     0     0
SMALL
bcc


@<TRIPOS>ATOM
      1 C11         2.7410   -1.1590    1.4530 c1        1 JLJ      0.181000
      2 N12         3.7900   -1.9000    1.8740 n2        1 JLJ     -0.286000
      3 C13         4.5440   -1.4740    2.8840 c1        1 JLJ      0.190000
      4 C14         4.2660   -0.3100    3.4860 c1        1 JLJ     -0.139000
      5 C15         3.2150    0.4340    3.0660 c1        1 JLJ     -0.139000
      6 N16         2.4580    0.0060    2.0520 n1        1 JLJ     -0.231000
      7 O17         5.5660   -2.2560    3.3470 os        1 JLJ     -0.197000
      8 C18         6.8530   -1.9370    2.7910 c3        1 JLJ     -0.067000
      9 N19         2.0010   -1.5720    0.2780 n2        1 JLJ     -0.237000
     10 C20        -2.1700   -1.7120    0.1450 c1        1 JLJ     -0.053000
     11 C21        -1.4820   -0.9780   -0.7890 c2        1 JLJ      0.111000
     12 C22        -0.0930   -0.8940   -0.7260 c1        1 JLJ     -0.193000
     13 C23         0.6060   -1.5590    0.2910 c1        1 JLJ      0.096000
     14 C24        -0.0780   -2.2930    1.2240 c1        1 JLJ     -0.128000
     15 C25        -1.4770   -2.3770    1.1610 c1        1 JLJ     -0.070000
     16 O26        -2.1680   -0.3850   -1.8530 os        1 JLJ     -0.227000
     17 N27        -4.8110   -2.0330   -0.0910 n1        1 JLJ     -0.038000
     18 C28        -3.6630   -1.8920    0.0110 c1        1 JLJ     -0.087000
     19 C41        -2.7230    0.9290   -1.5450 c3        1 JLJ      0.014000
     20 C42        -2.6820    1.8150   -2.8290 c2        1 JLJ     -0.182000
     21 C43        -3.6160    2.7780   -3.0270 c1        1 JLJ     -0.099000
     22 C44        -3.5610    3.6420   -4.2960 c3        1 JLJ     -0.180000
     23 C45        -4.7150    3.0060   -1.9960 c2        1 JLJ     -0.189000
     24 H1          4.7890   -0.0150    4.1880 ha        1 JLJ      0.170000
     25 H2          3.0120    1.2760    3.5000 ha        1 JLJ      0.170000
     26 H3          6.8640   -2.1650    1.8460 h1        1 JLJ      0.093000
     27 H4          7.0370   -0.9390    2.9010 h1        1 JLJ      0.093000
     28 H5          7.5540   -2.4590    3.2660 h1        1 JLJ      0.093000
     29 H6          2.4580   -1.9750   -0.4430 hn        1 JLJ      0.242000
     30 H7          0.4080   -0.3560   -1.4110 ha        1 JLJ      0.154000
     31 H8          0.4220   -2.7690    1.9520 ha        1 JLJ      0.165000
     32 H9         -2.0050   -2.9410    1.8770 ha        1 JLJ      0.149000
     33 H10        -3.6680    0.8280   -1.2360 h1        1 JLJ      0.087000
     34 H11        -2.1890    1.3530   -0.8370 h1        1 JLJ      0.087000
     35 H12        -2.0230    1.6700   -3.4670 ha        1 JLJ      0.148000
     36 H13        -4.3720    3.4680   -4.8530 hc        1 JLJ      0.083667
     37 H14        -3.5310    4.6210   -4.0390 hc        1 JLJ      0.083667
     38 H15        -2.7330    3.4070   -4.8250 hc        1 JLJ      0.083667
     39 H16        -4.5230    2.4900   -1.1950 ha        1 JLJ      0.083333
     40 H17        -4.7530    3.8950   -1.7830 ha        1 JLJ      0.083333
     41 H18        -5.5480    2.7320   -2.3550 ha        1 JLJ      0.083333
@<TRIPOS>BOND
     1    1    2 1   
     2    1    6 1   
     3    2    3 1   
     4    3    7 1   
     5    4    5 1   
     6    4   24 1   
     7    5   25 1   
     8    7    8 1   
     9    8   26 1   
    10    8   27 1   
    11    8   28 1   
    12    9   13 1   
    13    9   29 1   
    14   10   11 1   
    15   10   15 1   
    16   11   12 1   
    17   11   16 1   
    18   12   30 1   
    19   13   14 1   
    20   14   31 1   
    21   15   32 1   
    22   16   19 1   
    23   17   18 1   
    24   19   20 1   
    25   19   33 1   
    26   19   34 1   
    27   20   21 1   
    28   20   35 1   
    29   21   22 1   
    30   22   36 1   
    31   22   37 1   
    32   22   38 1   
    33   23   39 1   
    34   23   40 1   
    35   23   41 1   
@<TRIPOS>SUBSTRUCTURE
     1 JLJ         1 TEMP              0 ****  ****    0 ROOT
