@<TRIPOS>MOLECULE
JLJ
   41    42     1     0     0
SMALL
bcc


@<TRIPOS>ATOM
      1 C11        -0.2610   -0.1370   -0.1610 ca        1 JLJ      0.900900
      2 N12         1.0730    0.2020   -0.3750 nb        1 JLJ     -0.815000
      3 C13         1.9100   -0.0310    0.6630 ca        1 JLJ      0.687600
      4 C14         1.4860   -0.5650    1.9100 ca        1 JLJ     -0.419600
      5 C15         0.1200   -0.8470    2.0130 ca        1 JLJ      0.476200
      6 N16        -0.7680   -0.6490    1.0210 nb        1 JLJ     -0.753000
      7 O17         3.2530    0.2510    0.5790 os        1 JLJ     -0.440100
      8 C18         3.7510    0.7780   -0.6520 c3        1 JLJ      0.123700
      9 N19        -1.1090    0.0330   -1.2750 nu        1 JLJ     -0.717300
     10 C20        -5.3410    0.0100   -1.1630 ca        1 JLJ     -0.068000
     11 C21        -4.6350    1.0920   -1.7420 ca        1 JLJ      0.189100
     12 C22        -3.2380    1.1060   -1.7480 ca        1 JLJ     -0.253000
     13 C23        -2.5160    0.0340   -1.1750 ca        1 JLJ      0.198600
     14 C24        -3.2230   -1.0470   -0.6080 ca        1 JLJ     -0.155000
     15 C25        -4.6120   -1.0450   -0.6040 ca        1 JLJ     -0.051000
     16 N27        -7.9210   -0.0290   -1.1400 n1        1 JLJ     -0.374800
     17 C28        -6.7580   -0.0120   -1.1500 cg        1 JLJ      0.255800
     18 C41        -4.7770    3.3010   -2.6860 c3        1 JLJ      0.168600
     19 C42        -4.0540    3.2010   -3.9790 c2        1 JLJ     -0.246200
     20 C43        -4.5950    2.8230   -5.1480 c2        1 JLJ     -0.058400
     21 C44        -3.7910    2.7990   -6.3960 c3        1 JLJ     -0.072900
     22 C45        -6.0050    2.3960   -5.3100 c3        1 JLJ     -0.072900
     23 H1          2.1960   -0.7340    2.7240 ha        1 JLJ      0.171000
     24 H2         -0.3070   -1.2570    2.9480 h4        1 JLJ      0.032100
     25 H3          3.5780    0.0580   -1.4870 h1        1 JLJ      0.053033
     26 H4          3.2780    1.7640   -0.8770 h1        1 JLJ      0.053033
     27 H5          4.8460    0.8970   -0.4460 h1        1 JLJ      0.053033
     28 H6         -0.7420    0.6190   -1.9980 hn        1 JLJ      0.444800
     29 H7         -2.7060    1.9480   -2.2160 ha        1 JLJ      0.147000
     30 H8         -2.6870   -1.9020   -0.1660 ha        1 JLJ      0.163000
     31 H9         -5.1530   -1.8950   -0.1560 ha        1 JLJ      0.149000
     32 H10        -5.6540    4.0050   -2.7720 h1        1 JLJ      0.064200
     33 H11        -4.0930    3.6580   -1.8700 h1        1 JLJ      0.064200
     34 H12        -2.9960    3.5090   -3.9380 ha        1 JLJ      0.122000
     35 H13        -2.7350    3.1200   -6.2180 hc        1 JLJ      0.049533
     36 H14        -4.2450    3.4850   -7.1550 hc        1 JLJ      0.049533
     37 H15        -3.7790    1.7650   -6.8220 hc        1 JLJ      0.049533
     38 H16        -6.0430    1.3220   -5.6200 hc        1 JLJ      0.049533
     39 H17        -6.5840    2.5040   -4.3590 hc        1 JLJ      0.049533
     40 H18        -6.5020    3.0070   -6.1050 hc        1 JLJ      0.049533
     41 O26        -5.4190    2.0850   -2.2810 os        1 JLJ     -0.318900
@<TRIPOS>BOND
     1    1    2 ar  
     2    1    6 ar  
     3    1    9 1   
     4    2    3 ar  
     5    3    4 ar  
     6    3    7 1   
     7    4    5 ar  
     8    4   23 1   
     9    5    6 ar  
    10    5   24 1   
    11    7    8 1   
    12    8   25 1   
    13    8   26 1   
    14    8   27 1   
    15    9   13 1   
    16    9   28 1   
    17   10   11 ar  
    18   10   15 ar  
    19   10   17 1   
    20   11   12 ar  
    21   11   41 1   
    22   12   13 ar  
    23   12   29 1   
    24   13   14 ar  
    25   14   15 ar  
    26   14   30 1   
    27   15   31 1   
    28   16   17 3   
    29   18   19 1   
    30   18   32 1   
    31   18   33 1   
    32   18   41 1   
    33   19   20 2   
    34   19   34 1   
    35   20   21 1   
    36   20   22 1   
    37   21   35 1   
    38   21   36 1   
    39   21   37 1   
    40   22   38 1   
    41   22   39 1   
    42   22   40 1   
@<TRIPOS>SUBSTRUCTURE
     1 JLJ         1 TEMP              0 ****  ****    0 ROOT
