@<TRIPOS>MOLECULE
JLJ
   42    43     1     0     0
SMALL
bcc


@<TRIPOS>ATOM
      1 C11        -0.0420   -0.9420   -0.1980 ca        1 JLJ      0.746900
      2 N12         0.8140    0.1280   -0.1060 nb        1 JLJ     -0.757000
      3 C13         1.4530    0.2350    1.0950 ca        1 JLJ      0.696600
      4 C14         1.2420   -0.6920    2.1630 ca        1 JLJ     -0.319600
      5 C15         0.3430   -1.7330    1.9240 ca        1 JLJ      0.470200
      6 N16        -0.3190   -1.8850    0.7480 nb        1 JLJ     -0.690000
      7 O17         2.3400    1.2340    1.3560 os        1 JLJ     -0.406100
      8 C18         2.6130    2.2030    0.3340 c3        1 JLJ      0.115700
      9 N19        -0.7690   -1.0790   -1.5050 n4        1 JLJ     -0.613100
     10 C20        -4.6710    0.6220   -1.3460 ca        1 JLJ      0.016000
     11 C21        -3.5940    1.3630   -1.9070 ca        1 JLJ      0.203100
     12 C22        -2.3070    0.8080   -1.9500 ca        1 JLJ     -0.197000
     13 C23        -2.1110   -0.4820   -1.4320 ca        1 JLJ      0.003600
     14 C24        -3.1600   -1.2180   -0.8660 ca        1 JLJ     -0.137000
     15 C25        -4.4360   -0.6540   -0.8340 ca        1 JLJ     -0.049000
     16 N27        -7.0430    1.6410   -1.2760 n1        1 JLJ     -0.283800
     17 C28        -5.9760    1.1790   -1.3060 cg        1 JLJ      0.210800
     18 C41        -2.8650    3.4450   -2.8880 c3        1 JLJ      0.169600
     19 C42        -2.3400    3.0060   -4.2020 c2        1 JLJ     -0.287200
     20 C43        -3.0510    2.9590   -5.3420 c2        1 JLJ     -0.020400
     21 C44        -2.4170    2.5710   -6.6270 c3        1 JLJ     -0.084900
     22 C45        -4.4920    3.2910   -5.4340 c3        1 JLJ     -0.084900
     23 H1          1.7740   -0.5700    3.1170 ha        1 JLJ      0.206000
     24 H2          0.1190   -2.5010    2.6920 h4        1 JLJ      0.073100
     25 H3          1.6840    2.7620    0.0720 h1        1 JLJ      0.070700
     26 H4          3.0550    1.7080   -0.5630 h1        1 JLJ      0.070700
     27 H5          3.3600    2.8730    0.8360 h1        1 JLJ      0.070700
     28 H6         -0.2250   -0.6130   -2.2450 hn        1 JLJ      0.478300
     29 H7         -1.4800    1.3840   -2.3950 ha        1 JLJ      0.171000
     30 H8         -3.0010   -2.2240   -0.4420 ha        1 JLJ      0.173000
     31 H9         -5.2700   -1.2300   -0.3950 ha        1 JLJ      0.181000
     32 H10        -3.4030    4.4340   -2.9670 h1        1 JLJ      0.076200
     33 H11        -2.0470    3.5250   -2.1240 h1        1 JLJ      0.076200
     34 H12        -1.2630    2.7700   -4.2160 ha        1 JLJ      0.119000
     35 H13        -2.9130    1.6560   -7.0380 hc        1 JLJ      0.058700
     36 H14        -1.3250    2.3620   -6.5100 hc        1 JLJ      0.058700
     37 H15        -2.5400    3.3970   -7.3740 hc        1 JLJ      0.058700
     38 H16        -4.6270    4.2150   -6.0510 hc        1 JLJ      0.058700
     39 H17        -5.0480    2.4570   -5.9340 hc        1 JLJ      0.058700
     40 H18        -4.9490    3.4640   -4.4280 hc        1 JLJ      0.058700
     41 H192       -0.8600   -2.0820   -1.7250 hn        1 JLJ      0.478300
     42 O26        -3.9150    2.6040   -2.3710 os        1 JLJ     -0.297900
@<TRIPOS>BOND
     1    1    2 ar  
     2    1    6 ar  
     3    1    9 1   
     4    2    3 ar  
     5    3    4 ar  
     6    3    7 1   
     7    4    5 ar  
     8    4   23 1   
     9    5    6 ar  
    10    5   24 1   
    11    7    8 1   
    12    8   25 1   
    13    8   26 1   
    14    8   27 1   
    15    9   13 1   
    16    9   28 1   
    17    9   41 1   
    18   10   11 ar  
    19   10   15 ar  
    20   10   17 1   
    21   11   12 ar  
    22   11   42 1   
    23   12   13 ar  
    24   12   29 1   
    25   13   14 ar  
    26   14   15 ar  
    27   14   30 1   
    28   15   31 1   
    29   16   17 3   
    30   18   19 1   
    31   18   32 1   
    32   18   33 1   
    33   18   42 1   
    34   19   20 2   
    35   19   34 1   
    36   20   21 1   
    37   20   22 1   
    38   21   35 1   
    39   21   36 1   
    40   21   37 1   
    41   22   38 1   
    42   22   39 1   
    43   22   40 1   
@<TRIPOS>SUBSTRUCTURE
     1 JLJ         1 TEMP              0 ****  ****    0 ROOT
