@<TRIPOS>MOLECULE
JLN
   36    33     1     0     0
SMALL
bcc


@<TRIPOS>ATOM
      1 P           2.0690   -4.6680    0.0740 p3        1 JLN      2.543000
      2 O3P         2.4860   -4.8920   -1.3630 o         1 JLN     -1.012500
      3 O1P         3.2000   -5.0690    0.9950 os        1 JLN     -0.787000
      4 O5'         1.7260   -3.1320    0.2920 os        1 JLN     -0.750000
      5 O2P         0.8480   -5.5060    0.3810 o         1 JLN     -1.012500
      6 C5'         0.6370   -2.5740   -0.4230 c3        1 JLN      0.031000
      7 C4'        -0.3140   -1.8980    0.5500 c3        1 JLN      0.085000
      8 O4'         0.2000   -0.8180    0.9880 os        1 JLN     -0.324000
      9 C1'        -1.0040    0.2130    1.2360 c3        1 JLN      0.074000
     10 N1         -0.2850    0.8770    0.1580 n3        1 JLN     -0.134000
     11 C5          0.0850    2.1680    0.1350 c2        1 JLN      0.073000
     12 N5         -0.1580    3.1340    1.1680 n         1 JLN     -0.298000
     13 C7          0.9350    3.6720    1.9160 c2        1 JLN      0.278000
     14 O7          2.0740    3.3100    1.6760 o         1 JLN     -0.372000
     15 C6          1.1300    3.6610   -1.5330 c1        1 JLN      0.411000
     16 O6B         2.3570    3.8370   -1.7950 o         1 JLN     -0.305000
     17 C4          0.6840    2.4160   -1.0770 c1        1 JLN     -0.188000
     18 N3          0.6760    1.2750   -1.7830 n2        1 JLN     -0.130000
     19 C2          0.0770    0.3150   -1.0260 c2        1 JLN     -0.072000
     20 C2'        -1.8770    0.0200    0.2260 c3        1 JLN      0.112000
     21 O2'        -3.2420    0.2400    0.6930 oh        1 JLN     -0.401000
     22 C3'        -1.6950   -1.4630   -0.2180 c3        1 JLN     -0.562000
     23 O6A         0.3000    4.5890   -1.7440 os        1 JLN     -0.787000
     24 O3'        -2.7980   -2.2790    0.1410 oh        1 JLN     -0.323000
     25 H5'1        0.1600   -3.2880   -0.9040 h1        1 JLN      0.062000
     26 H5'2        0.9710   -1.9140   -1.0650 h1        1 JLN      0.062000
     27 H4'        -0.5200   -2.5030    1.3000 h1        1 JLN      0.089000
     28 H3'        -1.6610   -1.5830   -1.1940 h1        1 JLN      0.260000
     29 H1'        -1.0590    0.8160    2.0110 h2        1 JLN      0.085000
     30 H2'        -1.6720    0.6240   -0.5190 h1        1 JLN      0.082000
     31 H2         -0.0670   -0.6150   -1.2880 h5        1 JLN      0.223000
     32 H5         -1.0120    3.4350    1.3220 hn        1 JLN      0.270000
     33 H7          0.7700    4.3470    2.6090 h5        1 JLN      0.107000
     34 H6B         2.6420    4.6320   -2.0860 DU        1 JLN      0.214000
     35 HA         -3.4030    1.1160    0.7390 ho        1 JLN      0.223000
     36 H3O        -3.2590   -2.4950   -0.5920 ho        1 JLN      0.175000
@<TRIPOS>BOND
     1    1    2 1   
     2    1    4 1   
     3    1    5 1   
     4    4    6 1   
     5    6    7 1   
     6    6   25 1   
     7    6   26 1   
     8    7    8 1   
     9    7   22 1   
    10    7   27 1   
    11    8    9 1   
    12    9   10 1   
    13    9   20 1   
    14    9   29 1   
    15   10   11 1   
    16   10   19 1   
    17   11   12 1   
    18   11   17 1   
    19   12   13 1   
    20   12   32 1   
    21   13   14 1   
    22   13   33 1   
    23   15   16 1   
    24   17   18 1   
    25   18   19 1   
    26   19   31 1   
    27   20   21 1   
    28   20   22 1   
    29   20   30 1   
    30   21   35 1   
    31   22   24 1   
    32   22   28 1   
    33   24   36 1   
@<TRIPOS>SUBSTRUCTURE
     1 JLN         1 TEMP              0 ****  ****    0 ROOT
