@<TRIPOS>MOLECULE
JLN
   36    37     1     0     0
SMALL
bcc


@<TRIPOS>ATOM
      1 P           4.4660   -0.1920    1.2340 p5        1 JLN      1.335900
      2 O3P         3.9910   -1.4130    1.9660 o         1 JLN     -0.929500
      3 O1P         5.9160   -0.0820    0.8840 o         1 JLN     -0.929500
      4 O5'         3.6810   -0.3900   -0.3150 os        1 JLN     -0.553200
      5 O2P         3.7630    1.0880    1.6500 o         1 JLN     -0.929500
      6 C5'         2.3240   -0.5170   -0.2320 c3        1 JLN      0.231400
      7 C4'         1.6340    0.8240   -0.5900 c3        1 JLN      0.052100
      8 O4'         0.4250    0.5750   -1.3560 os        1 JLN     -0.427600
      9 C1'        -0.7160    1.1030   -0.7120 c3        1 JLN      0.201800
     10 N1         -1.5840    0.0000   -0.2910 na        1 JLN     -0.182900
     11 C5         -2.9420    0.0590    0.0210 cc        1 JLN     -0.010000
     12 N5         -3.7680    1.1830    0.0630 n         1 JLN     -0.454100
     13 C7         -3.9640    2.0810   -0.9680 c         1 JLN      0.668900
     14 O7         -3.3910    2.0490   -2.0660 o         1 JLN     -0.584100
     15 O6B        -4.9210   -2.9570    1.0120 oh        1 JLN     -0.575100
     16 C4         -3.3240   -1.2830    0.3810 cd        1 JLN      0.180800
     17 N3         -2.2140   -2.1310    0.2810 nd        1 JLN     -0.629000
     18 C2         -1.1970   -1.3450   -0.1190 cc        1 JLN      0.434400
     19 C2'        -0.2420    2.0040    0.4790 c3        1 JLN      0.101100
     20 O2'        -0.5370    3.3460    0.1600 oh        1 JLN     -0.620800
     21 C3'         1.2590    1.6740    0.6370 c3        1 JLN      0.133100
     22 O6A        -5.6040   -0.8610    1.0410 o         1 JLN     -0.647000
     23 O3'         1.9870    2.8790    0.6580 oh        1 JLN     -0.685800
     24 H5'1        1.9640   -1.2780   -0.9890 h1        1 JLN     -0.002800
     25 H5'2        2.0060   -0.8480    0.7970 h1        1 JLN     -0.002800
     26 H4'         2.3000    1.4070   -1.2820 h1        1 JLN      0.082700
     27 H3'         1.4430    1.1050    1.5920 h1        1 JLN      0.120700
     28 H1'        -1.2860    1.7040   -1.4830 h2        1 JLN      0.102700
     29 H2'        -0.8080    1.7900    1.4240 h1        1 JLN      0.065700
     30 H2         -0.1490   -1.6510   -0.2930 h5        1 JLN      0.114100
     31 H5         -4.4770    1.1140    0.7680 hn        1 JLN      0.345500
     32 H7         -4.6960    2.8790   -0.6930 h5        1 JLN      0.021200
     33 H6B        -5.8380   -3.0380    1.3190 ho        1 JLN      0.422000
     34 HA          0.2740    3.7570   -0.1700 ho        1 JLN      0.434000
     35 H3O         2.8810    2.6340    1.0050 ho        1 JLN      0.517000
     36 C6         -4.6500   -1.6330    0.8170 c         1 JLN      0.597600
@<TRIPOS>BOND
     1    1    2 1   
     2    1    3 1   
     3    1    4 1   
     4    1    5 1   
     5    4    6 1   
     6    6    7 1   
     7    6   24 1   
     8    6   25 1   
     9    7    8 1   
    10    7   21 1   
    11    7   26 1   
    12    8    9 1   
    13    9   10 1   
    14    9   19 1   
    15    9   28 1   
    16   10   11 1   
    17   10   18 1   
    18   11   12 1   
    19   11   16 2   
    20   12   13 1   
    21   12   31 1   
    22   13   14 2   
    23   13   32 1   
    24   15   33 1   
    25   15   36 1   
    26   16   17 1   
    27   16   36 1   
    28   17   18 2   
    29   18   30 1   
    30   19   20 1   
    31   19   21 1   
    32   19   29 1   
    33   20   34 1   
    34   21   23 1   
    35   21   27 1   
    36   22   36 2   
    37   23   35 1   
@<TRIPOS>SUBSTRUCTURE
     1 JLN         1 TEMP              0 ****  ****    0 ROOT
