@<TRIPOS>MOLECULE
JLZ
   21    21     1     0     0
SMALL
bcc


@<TRIPOS>ATOM
      1 F1          0.0760   -0.8420    0.0080 f         1 JLZ     -0.106900
      2 C2          1.3750   -0.4730    0.0090 ca        1 JLZ      0.141900
      3 C3          1.9980   -0.0500    1.2110 ca        1 JLZ     -0.035300
      4 C4          3.3440    0.3240    1.1700 ca        1 JLZ     -0.102000
      5 C6          4.0690    0.2860   -0.0200 ca        1 JLZ     -0.092000
      6 C8          3.4420   -0.1310   -1.1980 ca        1 JLZ     -0.250900
      7 C9          2.0970   -0.5130   -1.1960 ca        1 JLZ     -0.149000
      8 C11         4.2240   -0.2090   -2.4480 ce        1 JLZ      0.593800
      9 N12         5.2120   -0.9400   -2.7920 n2        1 JLZ     -0.708100
     10 N14         3.7300    0.7820   -3.4730 nz        1 JLZ     -0.825600
     11 C17         1.2360   -0.0230    2.4770 c3        1 JLZ     -0.078800
     12 H4          3.8420    0.6520    2.0990 ha        1 JLZ      0.172000
     13 H6          5.1310    0.5810   -0.0220 ha        1 JLZ      0.155000
     14 H9          1.5970   -0.8760   -2.1060 ha        1 JLZ      0.153000
     15 HN12        5.5600   -1.6150   -2.1410 hn        1 JLZ      0.492400
     16 HN14        4.1950    0.6630   -4.3830 hn        1 JLZ      0.471467
     17 HN1A        3.9110    1.7270   -3.1190 hn        1 JLZ      0.471467
     18 H17         1.1220   -1.0670    2.8720 hc        1 JLZ      0.076367
     19 H17A        0.2090    0.3920    2.3080 hc        1 JLZ      0.076367
     20 H17B        1.7520    0.5950    3.2520 hc        1 JLZ      0.076367
     21 H143        2.7190    0.6500   -3.5820 hn        1 JLZ      0.471467
@<TRIPOS>BOND
     1    1    2 1   
     2    2    3 ar  
     3    2    7 ar  
     4    3    4 ar  
     5    3   11 1   
     6    4    5 ar  
     7    4   12 1   
     8    5    6 ar  
     9    5   13 1   
    10    6    7 ar  
    11    6    8 1   
    12    7   14 1   
    13    8    9 2   
    14    8   10 1   
    15    9   15 1   
    16   10   16 1   
    17   10   17 1   
    18   10   21 1   
    19   11   18 1   
    20   11   19 1   
    21   11   20 1   
@<TRIPOS>SUBSTRUCTURE
     1 JLZ         1 TEMP              0 ****  ****    0 ROOT
