@<TRIPOS>MOLECULE
JLZ
   20    20     1     0     0
SMALL
bcc


@<TRIPOS>ATOM
      1 F1          2.1490   -1.7420   -0.6050 f         1 JLZ     -0.140900
      2 C2          1.3130   -0.7090   -0.3360 ca        1 JLZ      0.112900
      3 C3          1.8380    0.5590    0.0010 ca        1 JLZ     -0.095300
      4 C4          0.9440    1.5990    0.2690 ca        1 JLZ     -0.118000
      5 C6         -0.4340    1.3990    0.2110 ca        1 JLZ     -0.100000
      6 C8         -0.9420    0.1380   -0.1150 ca        1 JLZ     -0.122900
      7 C9         -0.0760   -0.9200   -0.3940 ca        1 JLZ     -0.143000
      8 C11        -2.4250   -0.0730   -0.1750 ce        1 JLZ      0.651800
      9 N12        -3.1380    0.7630   -0.8670 n2        1 JLZ     -0.824100
     10 N14        -2.8730   -1.2340    0.4930 nh        1 JLZ     -0.959800
     11 C17         3.3000    0.7800    0.0500 c3        1 JLZ     -0.055800
     12 H4          1.3380    2.5950    0.5260 ha        1 JLZ      0.141000
     13 H6         -1.1200    2.2370    0.4090 ha        1 JLZ      0.153000
     14 H9         -0.4600   -1.9130   -0.6750 ha        1 JLZ      0.159000
     15 HN12       -4.1220    0.5980   -0.8890 hn        1 JLZ      0.384400
     16 HN14       -2.2530   -1.6030    1.1750 hn        1 JLZ      0.400800
     17 HN1A       -3.8320   -1.2620    0.7500 hn        1 JLZ      0.400800
     18 H17         3.6990    0.9150   -0.9870 hc        1 JLZ      0.052367
     19 H17A        3.5510    1.6900    0.6480 hc        1 JLZ      0.052367
     20 H17B        3.8140   -0.1030    0.5060 hc        1 JLZ      0.052367
@<TRIPOS>BOND
     1    1    2 1   
     2    2    3 ar  
     3    2    7 ar  
     4    3    4 ar  
     5    3   11 1   
     6    4    5 ar  
     7    4   12 1   
     8    5    6 ar  
     9    5   13 1   
    10    6    7 ar  
    11    6    8 1   
    12    7   14 1   
    13    8    9 2   
    14    8   10 1   
    15    9   15 1   
    16   10   16 1   
    17   10   17 1   
    18   11   18 1   
    19   11   19 1   
    20   11   20 1   
@<TRIPOS>SUBSTRUCTURE
     1 JLZ         1 TEMP              0 ****  ****    0 ROOT
