@<TRIPOS>MOLECULE
JLZ
   21    21     1     0     0
SMALL
bcc


@<TRIPOS>ATOM
      1 F1          0.0920   -0.8620    0.0580 f         1 JLZ     -0.106900
      2 C2          1.3850   -0.4740    0.0360 ca        1 JLZ      0.141900
      3 C3          2.0070    0.0110    1.2160 ca        1 JLZ     -0.035300
      4 C4          3.3460    0.4040    1.1520 ca        1 JLZ     -0.102000
      5 C6          4.0670    0.3260   -0.0390 ca        1 JLZ     -0.092000
      6 C8          3.4410   -0.1510   -1.1940 ca        1 JLZ     -0.250900
      7 C9          2.1020   -0.5540   -1.1690 ca        1 JLZ     -0.149000
      8 C11         4.2180   -0.2710   -2.4440 ce        1 JLZ      0.593800
      9 N12         5.2160   -1.0000   -2.7610 n2        1 JLZ     -0.708100
     10 N14         3.7050    0.6670   -3.5090 n4        1 JLZ     -0.825600
     11 C17         1.2500    0.0800    2.4840 c3        1 JLZ     -0.078800
     12 H4          3.8430    0.7790    2.0630 ha        1 JLZ      0.172000
     13 H6          5.1230    0.6370   -0.0590 ha        1 JLZ      0.155000
     14 H9          1.6030   -0.9640   -2.0600 ha        1 JLZ      0.153000
     15 HN12        5.5770   -1.6410   -2.0840 hn        1 JLZ      0.492400
     16 HN14        4.1670    0.5170   -4.4150 hn        1 JLZ      0.471467
     17 HN1A        3.8720    1.6300   -3.1960 hn        1 JLZ      0.471467
     18 H17         1.1600   -0.9460    2.9270 hc        1 JLZ      0.076367
     19 H17A        0.2140    0.4660    2.3020 hc        1 JLZ      0.076367
     20 H17B        1.7570    0.7430    3.2270 hc        1 JLZ      0.076367
     21 H143        2.6950    0.5160   -3.6060 hn        1 JLZ      0.471467
@<TRIPOS>BOND
     1    1    2 1   
     2    2    3 ar  
     3    2    7 ar  
     4    3    4 ar  
     5    3   11 1   
     6    4    5 ar  
     7    4   12 1   
     8    5    6 ar  
     9    5   13 1   
    10    6    7 ar  
    11    6    8 1   
    12    7   14 1   
    13    8    9 2   
    14    8   10 1   
    15    9   15 1   
    16   10   16 1   
    17   10   17 1   
    18   10   21 1   
    19   11   18 1   
    20   11   19 1   
    21   11   20 1   
@<TRIPOS>SUBSTRUCTURE
     1 JLZ         1 TEMP              0 ****  ****    0 ROOT
