@<TRIPOS>MOLECULE
JLZ
   21    21     1     0     0
SMALL
bcc


@<TRIPOS>ATOM
      1 F1          0.1030   -0.9160    0.0280 f         1 JLZ     -0.106900
      2 C2          1.3900   -0.5040    0.0190 ca        1 JLZ      0.141900
      3 C3          1.9930   -0.0210    1.2090 ca        1 JLZ     -0.035300
      4 C4          3.3270    0.3910    1.1620 ca        1 JLZ     -0.102000
      5 C6          4.0590    0.3360   -0.0230 ca        1 JLZ     -0.092000
      6 C8          3.4520   -0.1400   -1.1880 ca        1 JLZ     -0.250900
      7 C9          2.1200   -0.5640   -1.1800 ca        1 JLZ     -0.149000
      8 C11         4.2440   -0.2370   -2.4320 ce        1 JLZ      0.593800
      9 N12         5.2570   -0.9470   -2.7440 n2        1 JLZ     -0.708100
     10 N14         3.7250    0.7000   -3.4940 n4        1 JLZ     -0.825600
     11 C17         1.2140    0.0370    2.4640 c3        1 JLZ     -0.078800
     12 H4          3.8110    0.7640    2.0820 ha        1 JLZ      0.172000
     13 H6          5.1110    0.6630   -0.0300 ha        1 JLZ      0.155000
     14 H9          1.6370   -0.9740   -2.0790 ha        1 JLZ      0.153000
     15 HN12        5.6230   -1.5860   -2.0670 hn        1 JLZ      0.492400
     16 HN14        2.7190    0.5320   -3.6020 hn        1 JLZ      0.471467
     17 HN1A        3.8720    1.6630   -3.1730 hn        1 JLZ      0.471467
     18 H17         1.8600    0.3000    3.3370 hc        1 JLZ      0.076367
     19 H17A        0.4030    0.8060    2.3740 hc        1 JLZ      0.076367
     20 H17B        0.7250   -0.9520    2.6610 hc        1 JLZ      0.076367
     21 H143        4.1980    0.5640   -4.3960 hn        1 JLZ      0.471467
@<TRIPOS>BOND
     1    1    2 1   
     2    2    3 ar  
     3    2    7 ar  
     4    3    4 ar  
     5    3   11 1   
     6    4    5 ar  
     7    4   12 1   
     8    5    6 ar  
     9    5   13 1   
    10    6    7 ar  
    11    6    8 1   
    12    7   14 1   
    13    8    9 2   
    14    8   10 1   
    15    9   15 1   
    16   10   16 1   
    17   10   17 1   
    18   10   21 1   
    19   11   18 1   
    20   11   19 1   
    21   11   20 1   
@<TRIPOS>SUBSTRUCTURE
     1 JLZ         1 TEMP              0 ****  ****    0 ROOT
