@<TRIPOS>MOLECULE
JM2
   32    31     1     0     0
SMALL
bcc


@<TRIPOS>ATOM
      1 C           3.8320   -0.6850    0.5060 c         1 JM2      0.895600
      2 N           1.4430   -0.6110   -0.1910 nz        1 JM2     -0.824600
      3 C1          5.9980    0.1930    3.9830 c2        1 JM2      0.521200
      4 C2          7.1780   -0.6870    3.6300 c3        1 JM2     -0.152600
      5 S3          8.1280   -1.0940    5.0470 ss        1 JM2     -0.206200
      6 C4          7.6260   -2.7240    5.4440 c3        1 JM2     -0.064000
      7 CA          2.6480    0.2410    0.0480 c3        1 JM2     -0.041500
      8 CB          2.4260    1.2600    1.1710 c3        1 JM2     -0.094400
      9 CD          4.3480    1.6980    2.8110 c3        1 JM2      0.121800
     10 NE          5.0770    0.3960    2.8220 ny        1 JM2     -0.761000
     11 CG          3.6990    2.0330    1.4700 c3        1 JM2     -0.108400
     12 NH          5.7100    0.7490    5.1010 n2        1 JM2     -0.723100
     13 OA1         4.9800   -0.3840    0.1110 o         1 JM2     -0.780800
     14 OA2         3.5300   -1.5710    1.3540 o         1 JM2     -0.780800
     15 HN          0.5820   -0.0680   -0.1280 hn        1 JM2      0.460133
     16 HNA         1.4450   -1.3570    0.5280 hn        1 JM2      0.460133
     17 H2          7.8600   -0.1170    2.9410 h1        1 JM2      0.121200
     18 H2A         6.8380   -1.6070    3.0870 h1        1 JM2      0.121200
     19 H4          8.2990   -3.0410    6.2790 h1        1 JM2      0.083700
     20 H4A         6.5710   -2.7770    5.7930 h1        1 JM2      0.083700
     21 H4B         7.7600   -3.4280    4.5920 h1        1 JM2      0.083700
     22 HA          2.9140    0.7620   -0.9140 hx        1 JM2      0.120700
     23 HB          2.0720    0.7290    2.0960 hc        1 JM2      0.065200
     24 HBA         1.6230    1.9840    0.8670 hc        1 JM2      0.065200
     25 HD          3.5710    1.6710    3.6280 hx        1 JM2      0.107700
     26 HG          3.4510    3.1300    1.5180 hc        1 JM2      0.099200
     27 HGA         4.4420    1.9010    0.6320 hc        1 JM2      0.099200
     28 HNH         6.3440    0.5740    5.8610 hn        1 JM2      0.479400
     29 H16         5.0920    2.5100    3.0580 hx        1 JM2      0.107700
     30 H17         5.6360    0.3050    1.9480 hn        1 JM2      0.491800
     31 HN3         1.5140   -1.0470   -1.1130 hn        1 JM2      0.460133
     32 HE3         4.3980   -0.3900    2.8190 hn        1 JM2      0.491800
@<TRIPOS>BOND
     1    1    7 1   
     2    1   13 1   
     3    1   14 1   
     4    2    7 1   
     5    2   15 1   
     6    2   16 1   
     7    2   31 1   
     8    3    4 1   
     9    3   10 1   
    10    3   12 2   
    11    4    5 1   
    12    4   17 1   
    13    4   18 1   
    14    5    6 1   
    15    6   19 1   
    16    6   20 1   
    17    6   21 1   
    18    7    8 1   
    19    7   22 1   
    20    8   11 1   
    21    8   23 1   
    22    8   24 1   
    23    9   10 1   
    24    9   11 1   
    25    9   25 1   
    26    9   29 1   
    27   10   30 1   
    28   10   32 1   
    29   11   26 1   
    30   11   27 1   
    31   12   28 1   
@<TRIPOS>SUBSTRUCTURE
     1 JM2         1 TEMP              0 ****  ****    0 ROOT
