@<TRIPOS>MOLECULE
JM2
   32    31     1     0     0
SMALL
bcc


@<TRIPOS>ATOM
      1 C           3.7640   -0.7510    0.5590 c         1 JM2      0.895600
      2 N           1.3640   -0.6220   -0.0910 n4        1 JM2     -0.824600
      3 C1          6.0400    0.2190    3.9400 c2        1 JM2      0.521200
      4 C2          7.1810   -0.7180    3.6060 c3        1 JM2     -0.152600
      5 S3          8.1490   -1.0890    5.0210 ss        1 JM2     -0.206200
      6 C4          7.6020   -2.6780    5.5090 c3        1 JM2     -0.064000
      7 CA          2.6050    0.1950    0.0790 c3        1 JM2     -0.041500
      8 CB          2.4460    1.2770    1.1530 c3        1 JM2     -0.094400
      9 CD          4.4190    1.7230    2.7280 c3        1 JM2      0.121800
     10 NE          5.1010    0.3980    2.7900 n4        1 JM2     -0.761000
     11 CG          3.7530    2.0150    1.3850 c3        1 JM2     -0.108400
     12 NH          5.7970    0.8380    5.0350 n2        1 JM2     -0.723100
     13 OA1         4.9130   -0.5130    0.1240 o         1 JM2     -0.780800
     14 OA2         3.4490   -1.5820    1.4560 o         1 JM2     -0.780800
     15 HN          1.3550   -1.3300    0.6640 hn        1 JM2      0.460133
     16 HNA         1.3980   -1.1060   -0.9910 hn        1 JM2      0.460133
     17 H2          6.7980   -1.6520    3.1170 h1        1 JM2      0.121200
     18 H2A         7.8670   -0.2070    2.8750 h1        1 JM2      0.121200
     19 H4          6.5540   -2.6780    5.8820 h1        1 JM2      0.083700
     20 H4A         7.6930   -3.4270    4.6900 h1        1 JM2      0.083700
     21 H4B         8.2830   -2.9770    6.3440 h1        1 JM2      0.083700
     22 HA          2.8680    0.6570   -0.9140 hx        1 JM2      0.120700
     23 HB          1.6630    2.0150    0.8290 hc        1 JM2      0.065200
     24 HBA         2.0930    0.8070    2.1100 hc        1 JM2      0.065200
     25 HD          5.1980    2.5180    2.9170 hx        1 JM2      0.107700
     26 HG          4.4710    1.8140    0.5400 hc        1 JM2      0.099200
     27 HGA         3.5460    3.1220    1.3830 hc        1 JM2      0.099200
     28 HNH         6.4420    0.6780    5.7890 hn        1 JM2      0.479400
     29 H16         3.6610    1.7660    3.5610 hx        1 JM2      0.107700
     30 H17         4.3940   -0.3620    2.8410 hn        1 JM2      0.491800
     31 HN3         0.5260   -0.0450   -0.0380 hn        1 JM2      0.460133
     32 HE3         5.6350    0.2420    1.9100 hn        1 JM2      0.491800
@<TRIPOS>BOND
     1    1    7 1   
     2    1   13 1   
     3    1   14 1   
     4    2    7 1   
     5    2   15 1   
     6    2   16 1   
     7    2   31 1   
     8    3    4 1   
     9    3   10 1   
    10    3   12 2   
    11    4    5 1   
    12    4   17 1   
    13    4   18 1   
    14    5    6 1   
    15    6   19 1   
    16    6   20 1   
    17    6   21 1   
    18    7    8 1   
    19    7   22 1   
    20    8   11 1   
    21    8   23 1   
    22    8   24 1   
    23    9   10 1   
    24    9   11 1   
    25    9   25 1   
    26    9   29 1   
    27   10   30 1   
    28   10   32 1   
    29   11   26 1   
    30   11   27 1   
    31   12   28 1   
@<TRIPOS>SUBSTRUCTURE
     1 JM2         1 TEMP              0 ****  ****    0 ROOT
