@<TRIPOS>MOLECULE
JM2
   30    26     1     0     0
SMALL
bcc


@<TRIPOS>ATOM
      1 C          -3.1810    2.5380   -2.8230 c1        1 JM2      0.305000
      2 N          -1.3930    1.8730   -4.2910 n3        1 JM2     -0.320000
      3 C1          1.4730   -0.7260    1.6300 c1        1 JM2      0.071000
      4 C2          1.2800   -1.6280    2.8750 c3        1 JM2     -0.310000
      5 S3          2.5230   -2.9180    2.8850 ss        1 JM2      0.070000
      6 C4          2.5530   -3.6890    4.4840 c3        1 JM2     -0.343000
      7 CA         -2.0200    1.6030   -3.0210 c2        1 JM2     -0.127000
      8 CB         -1.0110    1.8050   -1.9080 c3        1 JM2     -0.126000
      9 CD          0.3640    0.6020   -0.1620 c3        1 JM2     -0.060000
     10 NE          0.4070   -0.5650    0.6890 n2        1 JM2     -0.267000
     11 CG         -0.8800    0.5130   -1.1020 c3        1 JM2     -0.209000
     12 NH          2.6400   -0.0920    1.4350 n1        1 JM2     -0.298000
     13 OA1        -3.0030    3.7910   -2.8850 o         1 JM2     -0.581000
     14 OA2        -4.3420    2.0740   -2.6640 o         1 JM2     -0.581000
     15 HN         -1.1300    1.0690   -4.6850 hn        1 JM2      0.125000
     16 HNA        -1.9980    2.3110   -4.8520 hn        1 JM2      0.125000
     17 H2          0.3630   -2.0460    2.8490 h1        1 JM2      0.130500
     18 H2A         1.3690   -1.0840    3.6900 h1        1 JM2      0.130500
     19 H4          1.6780   -4.0880    4.6700 h1        1 JM2      0.103667
     20 H4A         3.2490   -4.3950    4.4990 h1        1 JM2      0.103667
     21 H4B         2.7550   -3.0170    5.1630 h1        1 JM2      0.103667
     22 HA         -2.3410    0.6800   -3.0060 h4        1 JM2      0.083000
     23 HB         -0.1470    2.0380   -2.2910 hc        1 JM2      0.065500
     24 HBA        -1.3150    2.5330   -1.3160 hc        1 JM2      0.065500
     25 HD          0.2990    1.4060    0.3910 h1        1 JM2      0.095500
     26 HG         -0.7710   -0.2500   -1.7200 hc        1 JM2      0.109000
     27 HGA        -1.6940    0.3840   -0.5580 hc        1 JM2      0.109000
     28 HNH         3.3530   -0.1980    2.0650 DU        1 JM2      0.147000
     29 H16         1.1850    0.6430   -0.7040 h1        1 JM2      0.095500
     30 H17        -0.2640   -1.1650    0.6630 hn        1 JM2      0.187000
@<TRIPOS>BOND
     1    1   13 1   
     2    1   14 1   
     3    2    7 1   
     4    2   15 1   
     5    2   16 1   
     6    3    4 1   
     7    3   12 1   
     8    4    5 1   
     9    4   17 1   
    10    4   18 1   
    11    5    6 1   
    12    6   19 1   
    13    6   20 1   
    14    6   21 1   
    15    7    8 1   
    16    7   22 1   
    17    8   11 1   
    18    8   23 1   
    19    8   24 1   
    20    9   10 1   
    21    9   11 1   
    22    9   25 1   
    23    9   29 1   
    24   10   30 1   
    25   11   26 1   
    26   11   27 1   
@<TRIPOS>SUBSTRUCTURE
     1 JM2         1 TEMP              0 ****  ****    0 ROOT
