@<TRIPOS>MOLECULE
JM2
   30    29     1     0     0
SMALL
bcc


@<TRIPOS>ATOM
      1 C           4.6870   -0.6070    0.4480 c         1 JM2      0.888600
      2 N           3.8310    1.6550   -0.3350 n3        1 JM2     -0.893800
      3 C1         -2.6590    0.2260   -0.5340 c2        1 JM2      0.586200
      4 C2         -3.7610    1.2810   -0.4220 c3        1 JM2     -0.121600
      5 S3         -5.4010    0.6350   -0.4400 ss        1 JM2     -0.293200
      6 C4         -5.5570   -0.1320    1.1300 c3        1 JM2     -0.043000
      7 CA          3.5340    0.4520    0.4350 c3        1 JM2      0.016500
      8 CB          2.2470   -0.2460   -0.0070 c3        1 JM2     -0.061400
      9 CD         -0.2410   -0.1410   -0.1760 c3        1 JM2      0.180800
     10 NE         -1.4470    0.6280    0.0650 nh        1 JM2     -0.798200
     11 CG          1.0220    0.5960    0.2730 c3        1 JM2     -0.087400
     12 NH         -2.8290   -0.9450   -1.0720 n2        1 JM2     -0.830100
     13 OA1         5.7530   -0.3310   -0.1740 o         1 JM2     -0.842800
     14 OA2         4.4940   -1.6700    1.0990 o         1 JM2     -0.842800
     15 HN          4.7800    1.9160   -0.1200 hn        1 JM2      0.330800
     16 HNA         3.8250    1.4140   -1.3110 hn        1 JM2      0.330800
     17 H2         -3.6200    1.9090    0.4920 h1        1 JM2      0.086200
     18 H2A        -3.7030    1.9470   -1.3200 h1        1 JM2      0.086200
     19 H4         -5.4440    0.6000    1.9600 h1        1 JM2      0.067367
     20 H4A        -6.5820   -0.5680    1.1610 h1        1 JM2      0.067367
     21 H4B        -4.8090   -0.9450    1.2680 h1        1 JM2      0.067367
     22 HA          3.4020    0.7860    1.5070 h1        1 JM2      0.040700
     23 HB          2.2980   -0.4930   -1.0990 hc        1 JM2      0.050700
     24 HBA         2.1870   -1.2160    0.5560 hc        1 JM2      0.050700
     25 HD         -0.3380   -1.1070    0.3960 h1        1 JM2      0.050200
     26 HG          0.9660    0.8200    1.3700 hc        1 JM2      0.040200
     27 HGA         1.1050    1.5770   -0.2660 hc        1 JM2      0.040200
     28 HNH        -3.7710   -1.1200   -1.3590 hn        1 JM2      0.393400
     29 H16        -0.1360   -0.4070   -1.2680 h1        1 JM2      0.050200
     30 H17        -1.3020    1.6150    0.0030 hn        1 JM2      0.389800
@<TRIPOS>BOND
     1    1    7 1   
     2    1   13 1   
     3    1   14 1   
     4    2    7 1   
     5    2   15 1   
     6    2   16 1   
     7    3    4 1   
     8    3   10 1   
     9    3   12 2   
    10    4    5 1   
    11    4   17 1   
    12    4   18 1   
    13    5    6 1   
    14    6   19 1   
    15    6   20 1   
    16    6   21 1   
    17    7    8 1   
    18    7   22 1   
    19    8   11 1   
    20    8   23 1   
    21    8   24 1   
    22    9   10 1   
    23    9   11 1   
    24    9   25 1   
    25    9   29 1   
    26   10   30 1   
    27   11   26 1   
    28   11   27 1   
    29   12   28 1   
@<TRIPOS>SUBSTRUCTURE
     1 JM2         1 TEMP              0 ****  ****    0 ROOT
