@<TRIPOS>MOLECULE
JM2
   32    31     1     0     0
SMALL
bcc


@<TRIPOS>ATOM
      1 C           3.7700   -0.7670    0.5630 c         1 JM2      0.895600
      2 N           1.3590   -0.7280   -0.0540 n4        1 JM2     -0.824600
      3 C1          6.0510    0.2650    3.9220 c2        1 JM2      0.521200
      4 C2          7.2200   -0.6300    3.5680 c3        1 JM2     -0.152600
      5 S3          8.2180   -0.9750    4.9680 ss        1 JM2     -0.206200
      6 C4          7.7310   -2.5850    5.4540 c3        1 JM2     -0.064000
      7 CA          2.5690    0.1350    0.1060 c3        1 JM2     -0.041500
      8 CB          2.3820    1.2020    1.1910 c3        1 JM2     -0.094400
      9 CD          4.3570    1.7140    2.7430 c3        1 JM2      0.121800
     10 NE          5.0910    0.4160    2.7860 n4        1 JM2     -0.761000
     11 CG          3.6620    1.9900    1.4110 c3        1 JM2     -0.108400
     12 NH          5.8010    0.8700    5.0230 n2        1 JM2     -0.724100
     13 OA1         4.9030   -0.4810    0.1160 o         1 JM2     -0.780800
     14 OA2         3.5010   -1.6170    1.4580 o         1 JM2     -0.780800
     15 HN          0.4990   -0.1850    0.0140 hn        1 JM2      0.460133
     16 HNA         1.3880   -1.4420    0.6950 hn        1 JM2      0.460133
     17 H2          6.8630   -1.5740    3.0780 h1        1 JM2      0.121200
     18 H2A         7.8770   -0.0920    2.8320 h1        1 JM2      0.121200
     19 H4          6.6890   -2.6220    5.8410 h1        1 JM2      0.083700
     20 H4A         7.8370   -3.3260    4.6300 h1        1 JM2      0.083700
     21 H4B         8.4330   -2.8650    6.2780 h1        1 JM2      0.083700
     22 HA          2.8000    0.6150   -0.8860 hx        1 JM2      0.120700
     23 HB          1.5670    1.9110    0.8830 hc        1 JM2      0.065200
     24 HBA         2.0610    0.7110    2.1490 hc        1 JM2      0.065200
     25 HD          5.1070    2.5380    2.9280 hx        1 JM2      0.107700
     26 HG          3.4120    3.0870    1.4210 hc        1 JM2      0.099200
     27 HGA         4.3760    1.8230    0.5560 hc        1 JM2      0.099200
     28 HNH         6.4620    0.7290    5.7680 hn        1 JM2      0.479400
     29 H16         3.6090    1.7220    3.5870 hx        1 JM2      0.107700
     30 H17         4.4140   -0.3710    2.8400 hn        1 JM2      0.491800
     31 HN3         1.4000   -1.2030   -0.9590 hn        1 JM2      0.460133
     32 HE3         5.6190    0.2880    1.8980 hn        1 JM2      0.491800
@<TRIPOS>BOND
     1    1    7 1   
     2    1   13 1   
     3    1   14 1   
     4    2    7 1   
     5    2   15 1   
     6    2   16 1   
     7    2   31 1   
     8    3    4 1   
     9    3   10 1   
    10    3   12 2   
    11    4    5 1   
    12    4   17 1   
    13    4   18 1   
    14    5    6 1   
    15    6   19 1   
    16    6   20 1   
    17    6   21 1   
    18    7    8 1   
    19    7   22 1   
    20    8   11 1   
    21    8   23 1   
    22    8   24 1   
    23    9   10 1   
    24    9   11 1   
    25    9   25 1   
    26    9   29 1   
    27   10   30 1   
    28   10   32 1   
    29   11   26 1   
    30   11   27 1   
    31   12   28 1   
@<TRIPOS>SUBSTRUCTURE
     1 JM2         1 TEMP              0 ****  ****    0 ROOT
