@<TRIPOS>MOLECULE
JM4
   41    40     1     0     0
SMALL
bcc


@<TRIPOS>ATOM
      1 C           4.0500   -0.6620    0.6830 c         1 JM4      0.895600
      2 N           1.8020   -0.8940   -0.3620 n4        1 JM4     -0.824600
      3 C1          5.5420    0.4110    4.4580 c2        1 JM4      0.535200
      4 C2          6.8680   -0.3020    4.2800 c3        1 JM4     -0.163700
      5 C3          7.5710   -0.5270    5.5950 c3        1 JM4     -0.036300
      6 S4          9.0570   -1.3970    5.2010 ss        1 JM4     -0.288200
      7 C5          9.9620   -1.4010    6.7450 c3        1 JM4      0.026400
      8 C6          9.3050   -2.2500    7.7990 c3        1 JM4     -0.095100
      9 C7         11.3280   -1.9210    6.3750 c3        1 JM4     -0.095100
     10 CA          2.8320    0.1070    0.0530 c3        1 JM4     -0.043500
     11 CB          2.3130    1.0640    1.1330 c3        1 JM4     -0.093400
     12 CD          3.8940    1.7010    3.0480 c3        1 JM4      0.122800
     13 NE          4.7870    0.5120    3.1680 n4        1 JM4     -0.766000
     14 CG          3.4170    1.9830    1.6250 c3        1 JM4     -0.108400
     15 NH          4.9980    0.8950    5.5130 n2        1 JM4     -0.741100
     16 OA1         3.7470   -1.5990    1.4740 o         1 JM4     -0.778800
     17 OA2         5.1910   -0.1980    0.4660 o         1 JM4     -0.778800
     18 HN          2.0650   -1.2960   -1.2640 hn        1 JM4      0.459467
     19 HNA         0.8750   -0.4740   -0.4240 hn        1 JM4      0.459467
     20 H2          7.5270    0.3120    3.6030 hc        1 JM4      0.108700
     21 H2A         6.6950   -1.2960    3.7760 hc        1 JM4      0.108700
     22 H3          6.9400   -1.1330    6.2920 h1        1 JM4      0.069200
     23 H3A         7.8120    0.4400    6.1010 h1        1 JM4      0.069200
     24 H5         10.0420   -0.3440    7.1110 h1        1 JM4      0.067700
     25 H6          9.9240   -2.2480    8.7310 hc        1 JM4      0.052867
     26 H6A         8.2910   -1.8560    8.0510 hc        1 JM4      0.052867
     27 H6B         9.2000   -3.3070    7.4500 hc        1 JM4      0.052867
     28 H7         11.8020   -1.2720    5.5980 hc        1 JM4      0.052867
     29 H7A        11.2630   -2.9650    5.9800 hc        1 JM4      0.052867
     30 H7B        11.9860   -1.9290    7.2790 hc        1 JM4      0.052867
     31 HA          3.1630    0.6780   -0.8580 hx        1 JM4      0.120700
     32 HB          1.4800    1.6870    0.7120 hc        1 JM4      0.064200
     33 HBA         1.8940    0.4710    1.9900 hc        1 JM4      0.064200
     34 HD          3.0130    1.5480    3.7340 hx        1 JM4      0.106200
     35 HDA         4.4730    2.6000    3.4110 hx        1 JM4      0.106200
     36 HNE         5.4770    0.5150    2.3880 hn        1 JM4      0.493800
     37 HG          3.0260    3.0380    1.6400 hc        1 JM4      0.099200
     38 HGA         4.2880    1.9670    0.9090 hc        1 JM4      0.099200
     39 HNH         5.5040    0.8030    6.3690 hn        1 JM4      0.464400
     40 HN3         1.8020   -1.6490    0.3480 hn        1 JM4      0.459467
     41 HE3         4.2310   -0.3610    3.0610 hn        1 JM4      0.493800
@<TRIPOS>BOND
     1    1   10 1   
     2    1   16 1   
     3    1   17 1   
     4    2   10 1   
     5    2   18 1   
     6    2   19 1   
     7    2   40 1   
     8    3    4 1   
     9    3   13 1   
    10    3   15 2   
    11    4    5 1   
    12    4   20 1   
    13    4   21 1   
    14    5    6 1   
    15    5   22 1   
    16    5   23 1   
    17    6    7 1   
    18    7    8 1   
    19    7    9 1   
    20    7   24 1   
    21    8   25 1   
    22    8   26 1   
    23    8   27 1   
    24    9   28 1   
    25    9   29 1   
    26    9   30 1   
    27   10   11 1   
    28   10   31 1   
    29   11   14 1   
    30   11   32 1   
    31   11   33 1   
    32   12   13 1   
    33   12   14 1   
    34   12   34 1   
    35   12   35 1   
    36   13   36 1   
    37   13   41 1   
    38   14   37 1   
    39   14   38 1   
    40   15   39 1   
@<TRIPOS>SUBSTRUCTURE
     1 JM4         1 TEMP              0 ****  ****    0 ROOT
