@<TRIPOS>MOLECULE
JM4
   39    38     1     0     0
SMALL
bcc


@<TRIPOS>ATOM
      1 C          -6.2390   -0.3720   -0.5500 c         1 JM4      0.888600
      2 N          -5.3140    1.9110    0.0790 n3        1 JM4     -0.893800
      3 C1          1.0800   -0.2960    0.6170 c2        1 JM4      0.602200
      4 C2          2.3270    0.3730    0.0230 c3        1 JM4     -0.169700
      5 C3          3.6110   -0.3370    0.3610 c3        1 JM4     -0.007300
      6 S4          4.9170    0.5680   -0.4260 ss        1 JM4     -0.324200
      7 C5          6.3740   -0.3290    0.0870 c3        1 JM4      0.016400
      8 C6          6.5260   -1.6330   -0.6500 c3        1 JM4     -0.087100
      9 C7          7.5360    0.5950   -0.1740 c3        1 JM4     -0.087100
     10 CA         -5.0190    0.6090   -0.5060 c3        1 JM4      0.017500
     11 CB         -3.8520   -0.1100    0.1720 c3        1 JM4     -0.063400
     12 CD         -1.3910   -0.1900    0.5700 c3        1 JM4      0.184800
     13 NE         -0.0990    0.4270    0.3440 nh        1 JM4     -0.804200
     14 CG         -2.5400    0.6120   -0.0430 c3        1 JM4     -0.087400
     15 NH          1.0760   -1.3650    1.3590 n2        1 JM4     -0.844100
     16 OA1        -6.0480   -1.5140   -1.0540 o         1 JM4     -0.843300
     17 OA2        -7.3480    0.0380   -0.1030 o         1 JM4     -0.843300
     18 HN         -6.2240    2.1870   -0.2550 hn        1 JM4      0.330800
     19 HNA        -5.4050    1.8000    1.0740 hn        1 JM4      0.330800
     20 H2          2.2130    0.4130   -1.0940 hc        1 JM4      0.072700
     21 H2A         2.3790    1.4310    0.4010 hc        1 JM4      0.072700
     22 H3          3.7810   -0.3610    1.4650 h1        1 JM4      0.063200
     23 H3A         3.5990   -1.3910   -0.0120 h1        1 JM4      0.063200
     24 H5          6.2930   -0.5350    1.1870 h1        1 JM4      0.064700
     25 H6          7.4550   -2.1590   -0.3170 hc        1 JM4      0.042867
     26 H6A         5.6530   -2.3020   -0.4530 hc        1 JM4      0.042867
     27 H6B         6.5960   -1.4590   -1.7520 hc        1 JM4      0.042867
     28 H7          7.4240    1.5410    0.4090 hc        1 JM4      0.042867
     29 H7A         8.4920    0.1020    0.1270 hc        1 JM4      0.042867
     30 H7B         7.5990    0.8510   -1.2600 hc        1 JM4      0.042867
     31 HA         -4.7350    0.8030   -1.5820 h1        1 JM4      0.039700
     32 HB         -4.0490   -0.2180    1.2700 hc        1 JM4      0.050700
     33 HBA        -3.8030   -1.1430   -0.2650 hc        1 JM4      0.050700
     34 HD         -1.4190   -1.2400    0.1550 h1        1 JM4      0.049700
     35 HDA        -1.5390   -0.2670    1.6840 h1        1 JM4      0.049700
     36 HNE        -0.0480    0.9450   -0.5080 hn        1 JM4      0.393800
     37 HG         -2.3700    0.7500   -1.1430 hc        1 JM4      0.040700
     38 HGA        -2.5840    1.6330    0.4190 hc        1 JM4      0.040700
     39 HNH         1.9820   -1.7270    1.5610 hn        1 JM4      0.373400
@<TRIPOS>BOND
     1    1   10 1   
     2    1   16 1   
     3    1   17 1   
     4    2   10 1   
     5    2   18 1   
     6    2   19 1   
     7    3    4 1   
     8    3   13 1   
     9    3   15 2   
    10    4    5 1   
    11    4   20 1   
    12    4   21 1   
    13    5    6 1   
    14    5   22 1   
    15    5   23 1   
    16    6    7 1   
    17    7    8 1   
    18    7    9 1   
    19    7   24 1   
    20    8   25 1   
    21    8   26 1   
    22    8   27 1   
    23    9   28 1   
    24    9   29 1   
    25    9   30 1   
    26   10   11 1   
    27   10   31 1   
    28   11   14 1   
    29   11   32 1   
    30   11   33 1   
    31   12   13 1   
    32   12   14 1   
    33   12   34 1   
    34   12   35 1   
    35   13   36 1   
    36   14   37 1   
    37   14   38 1   
    38   15   39 1   
@<TRIPOS>SUBSTRUCTURE
     1 JM4         1 TEMP              0 ****  ****    0 ROOT
