@<TRIPOS>MOLECULE
JM4
   41    40     1     0     0
SMALL
bcc


@<TRIPOS>ATOM
      1 C           4.0580   -0.6750    0.6800 c         1 JM4      0.895600
      2 N           1.8110   -0.8870   -0.3710 nz        1 JM4     -0.824600
      3 C1          5.5500    0.4290    4.4460 c2        1 JM4      0.535200
      4 C2          6.8620   -0.3150    4.2860 c3        1 JM4     -0.163700
      5 C3          7.5540   -0.5340    5.6070 c3        1 JM4     -0.036300
      6 S4          9.0210   -1.4460    5.2340 ss        1 JM4     -0.288200
      7 C5          9.9300   -1.4230    6.7750 c3        1 JM4      0.026400
      8 C6          9.2550   -2.2220    7.8570 c3        1 JM4     -0.095100
      9 C7         11.2820   -1.9890    6.4190 c3        1 JM4     -0.095100
     10 CA          2.8560    0.1030    0.0340 c3        1 JM4     -0.043500
     11 CB          2.3470    1.0840    1.0960 c3        1 JM4     -0.093400
     12 CD          3.9300    1.7260    3.0090 c3        1 JM4      0.122800
     13 NE          4.8030    0.5240    3.1510 ny        1 JM4     -0.766000
     14 CG          3.4640    1.9930    1.5790 c3        1 JM4     -0.108400
     15 NH          5.0130    0.9430    5.4890 n2        1 JM4     -0.741100
     16 OA1         3.7370   -1.5950    1.4840 o         1 JM4     -0.778800
     17 OA2         5.2070   -0.2330    0.4610 o         1 JM4     -0.778800
     18 HN          0.8910   -0.4540   -0.4440 hn        1 JM4      0.459467
     19 HNA         2.0720   -1.3070   -1.2660 hn        1 JM4      0.459467
     20 H2          7.5370    0.2740    3.6020 hc        1 JM4      0.108700
     21 H2A         6.6700   -1.3130    3.7960 hc        1 JM4      0.108700
     22 H3          6.9070   -1.1120    6.3120 h1        1 JM4      0.069200
     23 H3A         7.8160    0.4360    6.0970 h1        1 JM4      0.069200
     24 H5         10.0380   -0.3580    7.1080 h1        1 JM4      0.067700
     25 H6          9.1240   -3.2860    7.5440 hc        1 JM4      0.052867
     26 H6A         8.2520   -1.7950    8.0990 hc        1 JM4      0.052867
     27 H6B         9.8770   -2.2050    8.7880 hc        1 JM4      0.052867
     28 H7         11.7680   -1.3780    5.6200 hc        1 JM4      0.052867
     29 H7A        11.1890   -3.0430    6.0590 hc        1 JM4      0.052867
     30 H7B        11.9430   -1.9840    7.3210 hc        1 JM4      0.052867
     31 HA          3.2000    0.6560   -0.8840 hx        1 JM4      0.120700
     32 HB          1.9150    0.5110    1.9610 hc        1 JM4      0.064200
     33 HBA         1.5250    1.7140    0.6630 hc        1 JM4      0.064200
     34 HD          3.0430    1.5970    3.6940 hx        1 JM4      0.106200
     35 HDA         4.5220    2.6210    3.3600 hx        1 JM4      0.106200
     36 HNE         4.2340   -0.3420    3.0540 hn        1 JM4      0.493800
     37 HG          3.0890    3.0550    1.5770 hc        1 JM4      0.099200
     38 HGA         4.3370    1.9530    0.8690 hc        1 JM4      0.099200
     39 HNH         5.5140    0.8550    6.3500 hn        1 JM4      0.464400
     40 HN3         1.7970   -1.6310    0.3500 hn        1 JM4      0.459467
     41 HE3         5.4970    0.5050    2.3740 hn        1 JM4      0.493800
@<TRIPOS>BOND
     1    1   10 1   
     2    1   16 1   
     3    1   17 1   
     4    2   10 1   
     5    2   18 1   
     6    2   19 1   
     7    2   40 1   
     8    3    4 1   
     9    3   13 1   
    10    3   15 2   
    11    4    5 1   
    12    4   20 1   
    13    4   21 1   
    14    5    6 1   
    15    5   22 1   
    16    5   23 1   
    17    6    7 1   
    18    7    8 1   
    19    7    9 1   
    20    7   24 1   
    21    8   25 1   
    22    8   26 1   
    23    8   27 1   
    24    9   28 1   
    25    9   29 1   
    26    9   30 1   
    27   10   11 1   
    28   10   31 1   
    29   11   14 1   
    30   11   32 1   
    31   11   33 1   
    32   12   13 1   
    33   12   14 1   
    34   12   34 1   
    35   12   35 1   
    36   13   36 1   
    37   13   41 1   
    38   14   37 1   
    39   14   38 1   
    40   15   39 1   
@<TRIPOS>SUBSTRUCTURE
     1 JM4         1 TEMP              0 ****  ****    0 ROOT
