@<TRIPOS>MOLECULE
JM4
   41    40     1     0     0
SMALL
bcc


@<TRIPOS>ATOM
      1 C           3.9560   -0.7130    0.7500 c         1 JM4      0.895600
      2 N           1.6720   -0.8780   -0.2280 n4        1 JM4     -0.824600
      3 C1          5.6000    0.4670    4.4280 c2        1 JM4      0.535200
      4 C2          6.8760   -0.3340    4.2580 c3        1 JM4     -0.163700
      5 C3          7.6000   -0.5320    5.5660 c3        1 JM4     -0.036300
      6 S4          9.0170   -1.5160    5.1860 ss        1 JM4     -0.288200
      7 C5          9.9790   -1.4630    6.6940 c3        1 JM4      0.026400
      8 C6          9.3110   -2.1850    7.8330 c3        1 JM4     -0.095100
      9 C7         11.2940   -2.0990    6.3190 c3        1 JM4     -0.095100
     10 CA          2.7630    0.0860    0.1110 c3        1 JM4     -0.043500
     11 CB          2.3230    1.1230    1.1510 c3        1 JM4     -0.093400
     12 CD          3.9860    1.7720    2.9920 c3        1 JM4      0.122800
     13 NE          4.8180    0.5440    3.1520 n4        1 JM4     -0.766000
     14 CG          3.4870    2.0060    1.5680 c3        1 JM4     -0.108400
     15 NH          5.1150    1.0400    5.4670 n2        1 JM4     -0.741100
     16 OA1         3.6250   -1.5910    1.5950 o         1 JM4     -0.778800
     17 OA2         5.1130   -0.3220    0.4820 o         1 JM4     -0.778800
     18 HN          1.6520   -1.5940    0.5200 hn        1 JM4      0.459467
     19 HNA         0.7670   -0.4130   -0.2900 hn        1 JM4      0.459467
     20 H2          6.6300   -1.3410    3.8130 hc        1 JM4      0.108700
     21 H2A         7.5520    0.2020    3.5330 hc        1 JM4      0.108700
     22 H3          7.9150    0.4440    6.0110 h1        1 JM4      0.069200
     23 H3A         6.9520   -1.0570    6.3110 h1        1 JM4      0.069200
     24 H5         10.1400   -0.3890    6.9740 h1        1 JM4      0.067700
     25 H6          9.9640   -2.1520    8.7400 hc        1 JM4      0.052867
     26 H6A         9.1260   -3.2560    7.5720 hc        1 JM4      0.052867
     27 H6B         8.3340   -1.7060    8.0860 hc        1 JM4      0.052867
     28 H7         11.9860   -2.0810    7.1980 hc        1 JM4      0.052867
     29 H7A        11.7760   -1.5460    5.4770 hc        1 JM4      0.052867
     30 H7B        11.1470   -3.1640    6.0110 hc        1 JM4      0.052867
     31 HA          3.1000    0.5930   -0.8370 hx        1 JM4      0.120700
     32 HB          1.5120    1.7680    0.7180 hc        1 JM4      0.064200
     33 HBA         1.8970    0.5980    2.0480 hc        1 JM4      0.064200
     34 HD          3.1160    1.7020    3.7060 hx        1 JM4      0.106200
     35 HDA         4.6200    2.6560    3.2930 hx        1 JM4      0.106200
     36 HNE         5.4870    0.4710    2.3570 hn        1 JM4      0.493800
     37 HG          4.3360    1.9080    0.8340 hc        1 JM4      0.099200
     38 HGA         3.1510    3.0800    1.5370 hc        1 JM4      0.099200
     39 HNH         5.6390    0.9640    6.3150 hn        1 JM4      0.464400
     40 HN3         1.8900   -1.3380   -1.1140 hn        1 JM4      0.459467
     41 HE3         4.2150   -0.3020    3.1030 hn        1 JM4      0.493800
@<TRIPOS>BOND
     1    1   10 1   
     2    1   16 1   
     3    1   17 1   
     4    2   10 1   
     5    2   18 1   
     6    2   19 1   
     7    2   40 1   
     8    3    4 1   
     9    3   13 1   
    10    3   15 2   
    11    4    5 1   
    12    4   20 1   
    13    4   21 1   
    14    5    6 1   
    15    5   22 1   
    16    5   23 1   
    17    6    7 1   
    18    7    8 1   
    19    7    9 1   
    20    7   24 1   
    21    8   25 1   
    22    8   26 1   
    23    8   27 1   
    24    9   28 1   
    25    9   29 1   
    26    9   30 1   
    27   10   11 1   
    28   10   31 1   
    29   11   14 1   
    30   11   32 1   
    31   11   33 1   
    32   12   13 1   
    33   12   14 1   
    34   12   34 1   
    35   12   35 1   
    36   13   36 1   
    37   13   41 1   
    38   14   37 1   
    39   14   38 1   
    40   15   39 1   
@<TRIPOS>SUBSTRUCTURE
     1 JM4         1 TEMP              0 ****  ****    0 ROOT
