@<TRIPOS>MOLECULE
JM4
   39    35     1     0     0
SMALL
bcc


@<TRIPOS>ATOM
      1 C          -4.8550    1.5550   -4.3560 c1        1 JM4      0.308000
      2 N          -3.6970    3.6110   -4.1500 n3        1 JM4     -0.326000
      3 C1         -0.4240   -0.3430    0.8290 c1        1 JM4      0.081000
      4 C2          0.6590   -1.4640    0.9590 c3        1 JM4     -0.166000
      5 C3          1.7020   -1.0550    2.0160 c3        1 JM4     -0.254000
      6 S4          3.1900   -2.0330    1.7910 ss        1 JM4      0.015000
      7 C5          4.1620   -1.9900    3.2710 c3        1 JM4     -0.199000
      8 C6          4.4850   -3.3800    3.6910 c3        1 JM4     -0.205500
      9 C7          5.4590   -1.2220    3.0070 c3        1 JM4     -0.205500
     10 CA         -3.6040    2.2190   -3.9060 c2        1 JM4     -0.130000
     11 CB         -3.4090    1.9730   -2.3900 c3        1 JM4     -0.141000
     12 CD         -1.9250    0.9570   -0.6720 c3        1 JM4     -0.053000
     13 NE         -0.7000    0.2410   -0.4550 n2        1 JM4     -0.290000
     14 CG         -2.1340    1.1530   -2.1590 c3        1 JM4     -0.165000
     15 NH         -1.0910    0.0710    1.9080 n1        1 JM4     -0.305000
     16 OA1        -4.7980    0.5410   -5.0670 o         1 JM4     -0.577500
     17 OA2        -5.9810    2.0680   -4.0730 o         1 JM4     -0.577500
     18 HN         -3.5770    4.0670   -3.3650 hn        1 JM4      0.126000
     19 HNA        -3.0580    3.8580   -4.7450 hn        1 JM4      0.126000
     20 H2          0.2240   -2.3150    1.2350 hc        1 JM4      0.101500
     21 H2A         1.0990   -1.5890    0.1000 hc        1 JM4      0.101500
     22 H3          1.9180   -0.1000    1.9130 h1        1 JM4      0.110500
     23 H3A         1.3380   -1.2150    2.9140 h1        1 JM4      0.110500
     24 H5          3.6600   -1.5460    3.9770 h1        1 JM4      0.105000
     25 H6          4.6460   -3.9320    2.8960 hc        1 JM4      0.082167
     26 H6A         5.2930   -3.3730    4.2550 hc        1 JM4      0.082167
     27 H6B         3.7320   -3.7530    4.2010 hc        1 JM4      0.082167
     28 H7          5.2470   -0.2930    2.7730 hc        1 JM4      0.082167
     29 H7A         5.9430   -1.6430    2.2660 hc        1 JM4      0.082167
     30 H7B         6.0190   -1.2380    3.8130 hc        1 JM4      0.082167
     31 HA         -2.8520    1.8570   -4.3910 h4        1 JM4      0.079000
     32 HB         -3.3330    2.8240   -1.9310 hc        1 JM4      0.090000
     33 HBA        -4.1730    1.4850   -2.0420 hc        1 JM4      0.090000
     34 HD         -1.8770    1.8420   -0.2240 h1        1 JM4      0.089000
     35 HDA        -2.6730    0.4450   -0.3040 h1        1 JM4      0.089000
     36 HNE        -0.1000    0.1110   -1.1680 hn        1 JM4      0.190000
     37 HG         -1.3720    1.6260   -2.5350 hc        1 JM4      0.079500
     38 HGA        -2.2230    0.2750   -2.5950 hc        1 JM4      0.079500
     39 HNH        -0.9180   -0.2960    2.7140 DU        1 JM4      0.131000
@<TRIPOS>BOND
     1    1   16 1   
     2    1   17 1   
     3    2   10 1   
     4    2   18 1   
     5    2   19 1   
     6    3    4 1   
     7    3   15 1   
     8    4    5 1   
     9    4   20 1   
    10    4   21 1   
    11    5    6 1   
    12    5   22 1   
    13    5   23 1   
    14    6    7 1   
    15    7    8 1   
    16    7    9 1   
    17    7   24 1   
    18    8   25 1   
    19    8   26 1   
    20    8   27 1   
    21    9   28 1   
    22    9   29 1   
    23    9   30 1   
    24   10   11 1   
    25   10   31 1   
    26   11   14 1   
    27   11   32 1   
    28   11   33 1   
    29   12   13 1   
    30   12   14 1   
    31   12   34 1   
    32   12   35 1   
    33   13   36 1   
    34   14   37 1   
    35   14   38 1   
@<TRIPOS>SUBSTRUCTURE
     1 JM4         1 TEMP              0 ****  ****    0 ROOT
