@<TRIPOS>MOLECULE
JM5
   38    37     1     0     0
SMALL
bcc


@<TRIPOS>ATOM
      1 C           4.3340   -0.2280   -0.6960 c         1 JM5      0.895600
      2 N           2.0780    0.7460   -1.0900 nz        1 JM5     -0.824600
      3 C1          6.1540   -3.9660   -1.2350 c2        1 JM5      0.520200
      4 C2          7.5700   -3.4290   -1.2580 c3        1 JM5     -0.146600
      5 S3          8.6760   -4.5680   -2.0020 ss        1 JM5     -0.237200
      6 C4          8.9240   -3.9130   -3.6320 c3        1 JM5     -0.017300
      7 C5          9.9760   -4.7830   -4.2760 c3        1 JM5     -0.076400
      8 C6         10.2600   -4.3280   -5.6860 c3        1 JM5     -0.094100
      9 CA          2.8600   -0.1290   -0.1630 c3        1 JM5     -0.041500
     10 CB          2.3120   -1.5590   -0.1130 c3        1 JM5     -0.094400
     11 CD          3.9870   -3.4980   -0.0350 c3        1 JM5      0.121800
     12 NE          5.1710   -2.9460   -0.7560 ny        1 JM5     -0.761000
     13 CG          3.1920   -2.4530    0.7440 c3        1 JM5     -0.108400
     14 NH          5.7240   -5.1260   -1.5670 n2        1 JM5     -0.724100
     15 OA1         5.2480   -0.2750    0.1570 o         1 JM5     -0.780800
     16 OA2         4.4500   -0.3960   -1.9430 o         1 JM5     -0.780800
     17 HN          2.4110    0.5520   -2.0510 hn        1 JM5      0.459800
     18 HNA         2.2670    1.7260   -0.8700 hn        1 JM5      0.459800
     19 H2          7.9190   -3.2860   -0.1990 h1        1 JM5      0.120200
     20 H2A         7.6070   -2.4310   -1.7670 h1        1 JM5      0.120200
     21 H4          7.9760   -3.9410   -4.2200 h1        1 JM5      0.070700
     22 H4A         9.2690   -2.8520   -3.5790 h1        1 JM5      0.070700
     23 H5         10.9210   -4.7440   -3.6700 hc        1 JM5      0.062200
     24 H5A         9.6300   -5.8520   -4.2880 hc        1 JM5      0.062200
     25 H6          9.3380   -4.3840   -6.3140 hc        1 JM5      0.045033
     26 H6A        10.6300   -3.2740   -5.6940 hc        1 JM5      0.045033
     27 H6B        11.0410   -4.9810   -6.1450 hc        1 JM5      0.045033
     28 HA          2.8490    0.3360    0.8620 hx        1 JM5      0.120700
     29 HB          2.2430   -1.9720   -1.1550 hc        1 JM5      0.064700
     30 HBA         1.2740   -1.5490    0.3170 hc        1 JM5      0.064700
     31 HD          4.3620   -4.2740    0.6950 hx        1 JM5      0.107700
     32 HG          2.5340   -3.0350    1.4490 hc        1 JM5      0.099200
     33 HGA         3.8820   -1.8290    1.3790 hc        1 JM5      0.099200
     34 HNH         6.4140   -5.7760   -1.9010 hn        1 JM5      0.480400
     35 H20         3.3270   -4.0140   -0.7890 hx        1 JM5      0.107700
     36 H21         4.8580   -2.3970   -1.5810 hn        1 JM5      0.491800
     37 HN3         1.0770    0.5610   -1.0230 hn        1 JM5      0.459800
     38 HE3         5.6740   -2.2790   -0.1350 hn        1 JM5      0.491800
@<TRIPOS>BOND
     1    1    9 1   
     2    1   15 1   
     3    1   16 1   
     4    2    9 1   
     5    2   17 1   
     6    2   18 1   
     7    2   37 1   
     8    3    4 1   
     9    3   12 1   
    10    3   14 2   
    11    4    5 1   
    12    4   19 1   
    13    4   20 1   
    14    5    6 1   
    15    6    7 1   
    16    6   21 1   
    17    6   22 1   
    18    7    8 1   
    19    7   23 1   
    20    7   24 1   
    21    8   25 1   
    22    8   26 1   
    23    8   27 1   
    24    9   10 1   
    25    9   28 1   
    26   10   13 1   
    27   10   29 1   
    28   10   30 1   
    29   11   12 1   
    30   11   13 1   
    31   11   31 1   
    32   11   35 1   
    33   12   36 1   
    34   12   38 1   
    35   13   32 1   
    36   13   33 1   
    37   14   34 1   
@<TRIPOS>SUBSTRUCTURE
     1 JM5         1 TEMP              0 ****  ****    0 ROOT
