@<TRIPOS>MOLECULE
JM5
   38    37     1     0     0
SMALL
bcc


@<TRIPOS>ATOM
      1 C           4.2360   -0.2420   -0.8160 c         1 JM5      0.895600
      2 N           1.9090    0.5680   -1.1720 n4        1 JM5     -0.824600
      3 C1          6.2520   -3.9010   -1.1560 c2        1 JM5      0.520200
      4 C2          7.6310   -3.2890   -1.2880 c3        1 JM5     -0.146600
      5 S3          8.7700   -4.4180   -1.9970 ss        1 JM5     -0.237200
      6 C4          8.9050   -3.8800   -3.6820 c3        1 JM5     -0.017300
      7 C5          9.9790   -4.7360   -4.3090 c3        1 JM5     -0.076400
      8 C6         10.1730   -4.3770   -5.7610 c3        1 JM5     -0.094100
      9 CA          2.7840   -0.1850   -0.2210 c3        1 JM5     -0.041500
     10 CB          2.3260   -1.6350   -0.0340 c3        1 JM5     -0.094400
     11 CD          4.1170   -3.4640    0.1100 c3        1 JM5      0.121800
     12 NE          5.2320   -2.9040   -0.7090 n4        1 JM5     -0.761000
     13 CG          3.2950   -2.4070    0.8450 c3        1 JM5     -0.108400
     14 NH          5.8780   -5.1060   -1.3770 n2        1 JM5     -0.724100
     15 OA1         5.1890   -0.1690   -0.0090 o         1 JM5     -0.780800
     16 OA2         4.3060   -0.5010   -2.0500 o         1 JM5     -0.780800
     17 HN          2.0490    1.5720   -1.0370 hn        1 JM5      0.459800
     18 HNA         2.2110    0.3190   -2.1310 hn        1 JM5      0.459800
     19 H2          8.0180   -3.0440   -0.2620 h1        1 JM5      0.120200
     20 H2A         7.5850   -2.3340   -1.8730 h1        1 JM5      0.120200
     21 H4          7.9360   -4.0080   -4.2200 h1        1 JM5      0.070700
     22 H4A         9.1870   -2.8000   -3.7270 h1        1 JM5      0.070700
     23 H5          9.6990   -5.8200   -4.2240 hc        1 JM5      0.062200
     24 H5A        10.9460   -4.5950   -3.7540 hc        1 JM5      0.062200
     25 H6          9.2300   -4.5350   -6.3380 hc        1 JM5      0.045033
     26 H6A        10.4770   -3.3070   -5.8670 hc        1 JM5      0.045033
     27 H6B        10.9720   -5.0180   -6.2070 hc        1 JM5      0.045033
     28 HA          2.7910    0.3590    0.7660 hx        1 JM5      0.120700
     29 HB          2.2350   -2.1320   -1.0380 hc        1 JM5      0.064700
     30 HBA         1.3100   -1.6490    0.4440 hc        1 JM5      0.064700
     31 HD          3.4560   -4.0750   -0.5700 hx        1 JM5      0.107700
     32 HG          3.9740   -1.6960    1.3950 hc        1 JM5      0.099200
     33 HGA         2.7060   -2.9670    1.6230 hc        1 JM5      0.099200
     34 HNH         6.5910   -5.7410   -1.6940 hn        1 JM5      0.480400
     35 H20         4.5700   -4.1570    0.8770 hx        1 JM5      0.107700
     36 H21         5.7210   -2.1630   -0.1660 hn        1 JM5      0.491800
     37 HN3         0.9260    0.3330   -1.0420 hn        1 JM5      0.459800
     38 HE3         4.8500   -2.4410   -1.5580 hn        1 JM5      0.491800
@<TRIPOS>BOND
     1    1    9 1   
     2    1   15 1   
     3    1   16 1   
     4    2    9 1   
     5    2   17 1   
     6    2   18 1   
     7    2   37 1   
     8    3    4 1   
     9    3   12 1   
    10    3   14 2   
    11    4    5 1   
    12    4   19 1   
    13    4   20 1   
    14    5    6 1   
    15    6    7 1   
    16    6   21 1   
    17    6   22 1   
    18    7    8 1   
    19    7   23 1   
    20    7   24 1   
    21    8   25 1   
    22    8   26 1   
    23    8   27 1   
    24    9   10 1   
    25    9   28 1   
    26   10   13 1   
    27   10   29 1   
    28   10   30 1   
    29   11   12 1   
    30   11   13 1   
    31   11   31 1   
    32   11   35 1   
    33   12   36 1   
    34   12   38 1   
    35   13   32 1   
    36   13   33 1   
    37   14   34 1   
@<TRIPOS>SUBSTRUCTURE
     1 JM5         1 TEMP              0 ****  ****    0 ROOT
