@<TRIPOS>MOLECULE
JM5
   38    37     1     0     0
SMALL
bcc


@<TRIPOS>ATOM
      1 C           4.2570   -0.2210   -0.8400 c         1 JM5      0.895600
      2 N           1.9430    0.6140   -1.2230 n4        1 JM5     -0.824600
      3 C1          6.2350   -3.9040   -1.1440 c2        1 JM5      0.520200
      4 C2          7.6210   -3.3060   -1.2670 c3        1 JM5     -0.146600
      5 S3          8.7540   -4.4510   -1.9600 ss        1 JM5     -0.237200
      6 C4          8.9080   -3.9250   -3.6470 c3        1 JM5     -0.017300
      7 C5          9.9780   -4.7950   -4.2600 c3        1 JM5     -0.076400
      8 C6         10.1850   -4.4490   -5.7130 c3        1 JM5     -0.094100
      9 CA          2.7990   -0.1450   -0.2600 c3        1 JM5     -0.041500
     10 CB          2.3220   -1.5900   -0.0720 c3        1 JM5     -0.094400
     11 CD          4.0910   -3.4370    0.0980 c3        1 JM5      0.121800
     12 NE          5.2210   -2.8930   -0.7100 n4        1 JM5     -0.761000
     13 CG          3.2740   -2.3680    0.8200 c3        1 JM5     -0.108400
     14 NH          5.8510   -5.1060   -1.3610 n2        1 JM5     -0.724100
     15 OA1         5.2010   -0.1550   -0.0220 o         1 JM5     -0.780800
     16 OA2         4.3370   -0.4860   -2.0720 o         1 JM5     -0.780800
     17 HN          2.2510    0.3560   -2.1780 hn        1 JM5      0.459800
     18 HNA         2.0920    1.6160   -1.0910 hn        1 JM5      0.459800
     19 H2          8.0020   -3.0590   -0.2390 h1        1 JM5      0.120200
     20 H2A         7.5900   -2.3530   -1.8570 h1        1 JM5      0.120200
     21 H4          9.2010   -2.8480   -3.6960 h1        1 JM5      0.070700
     22 H4A         7.9420   -4.0460   -4.1920 h1        1 JM5      0.070700
     23 H5          9.6870   -5.8760   -4.1690 hc        1 JM5      0.062200
     24 H5A        10.9420   -4.6600   -3.7000 hc        1 JM5      0.062200
     25 H6          9.2450   -4.6020   -6.2960 hc        1 JM5      0.045033
     26 H6A        10.9810   -5.1000   -6.1490 hc        1 JM5      0.045033
     27 H6B        10.5010   -3.3830   -5.8250 hc        1 JM5      0.045033
     28 HA          2.8010    0.4030    0.7240 hx        1 JM5      0.120700
     29 HB          1.3010   -1.5910    0.3950 hc        1 JM5      0.064700
     30 HBA         2.2370   -2.0900   -1.0740 hc        1 JM5      0.064700
     31 HD          3.4310   -4.0440   -0.5850 hx        1 JM5      0.107700
     32 HG          2.6710   -2.9190    1.5950 hc        1 JM5      0.099200
     33 HGA         3.9550   -1.6630    1.3750 hc        1 JM5      0.099200
     34 HNH         6.5600   -5.7500   -1.6670 hn        1 JM5      0.480400
     35 H20         4.5290   -4.1320    0.8730 hx        1 JM5      0.107700
     36 H21         4.8530   -2.4300   -1.5650 hn        1 JM5      0.491800
     37 HN3         0.9550    0.3900   -1.1040 hn        1 JM5      0.459800
     38 HE3         5.7130   -2.1550   -0.1660 hn        1 JM5      0.491800
@<TRIPOS>BOND
     1    1    9 1   
     2    1   15 1   
     3    1   16 1   
     4    2    9 1   
     5    2   17 1   
     6    2   18 1   
     7    2   37 1   
     8    3    4 1   
     9    3   12 1   
    10    3   14 2   
    11    4    5 1   
    12    4   19 1   
    13    4   20 1   
    14    5    6 1   
    15    6    7 1   
    16    6   21 1   
    17    6   22 1   
    18    7    8 1   
    19    7   23 1   
    20    7   24 1   
    21    8   25 1   
    22    8   26 1   
    23    8   27 1   
    24    9   10 1   
    25    9   28 1   
    26   10   13 1   
    27   10   29 1   
    28   10   30 1   
    29   11   12 1   
    30   11   13 1   
    31   11   31 1   
    32   11   35 1   
    33   12   36 1   
    34   12   38 1   
    35   13   32 1   
    36   13   33 1   
    37   14   34 1   
@<TRIPOS>SUBSTRUCTURE
     1 JM5         1 TEMP              0 ****  ****    0 ROOT
