@<TRIPOS>MOLECULE
JM5
   36    35     1     0     0
SMALL
bcc


@<TRIPOS>ATOM
      1 C          -4.7030   -1.6860   -0.1840 c         1 JM5      0.888600
      2 N          -3.4860   -0.7970   -2.2320 n3        1 JM5     -0.892800
      3 C1          1.7580    1.8220    0.9410 c2        1 JM5      0.611200
      4 C2          3.0280    2.2470    0.2110 c3        1 JM5     -0.060600
      5 S3          3.8410    1.0060   -0.7460 ss        1 JM5     -0.316200
      6 C4          4.3300   -0.2030    0.4550 c3        1 JM5     -0.007300
      7 C5          5.0520   -1.3000   -0.2830 c3        1 JM5     -0.071400
      8 C6          5.5100   -2.3820    0.6630 c3        1 JM5     -0.091100
      9 CA         -3.3470   -1.3260   -0.8800 c3        1 JM5      0.016500
     10 CB         -2.5660   -0.4010    0.0530 c3        1 JM5     -0.063400
     11 CD         -0.3700    0.6160    0.6410 c3        1 JM5      0.187800
     12 NE          1.0220    0.8070    0.3120 nh        1 JM5     -0.873200
     13 CG         -1.1200   -0.2520   -0.3690 c3        1 JM5     -0.084400
     14 NH          1.5080    2.4000    2.0810 n2        1 JM5     -0.863100
     15 OA1        -5.7680   -1.5440   -0.8510 o         1 JM5     -0.842300
     16 OA2        -4.6520   -2.1170    1.0000 o         1 JM5     -0.842300
     17 HN         -4.1700   -1.3670   -2.7030 hn        1 JM5      0.331300
     18 HNA        -3.8850    0.1240   -2.1720 hn        1 JM5      0.331300
     19 H2          2.7510    3.0370   -0.5340 h1        1 JM5      0.090200
     20 H2A         3.7500    2.6920    0.9400 h1        1 JM5      0.090200
     21 H4          4.9950    0.2650    1.2200 h1        1 JM5      0.070200
     22 H4A         3.4310   -0.6060    0.9820 h1        1 JM5      0.070200
     23 H5          4.3700   -1.7440   -1.0580 hc        1 JM5      0.051700
     24 H5A         5.9390   -0.8740   -0.8240 hc        1 JM5      0.051700
     25 H6          6.2080   -1.9660    1.4300 hc        1 JM5      0.034033
     26 H6A         4.6370   -2.8360    1.1920 hc        1 JM5      0.034033
     27 H6B         6.0400   -3.1870    0.1000 hc        1 JM5      0.034033
     28 HA         -2.7750   -2.2950   -0.9750 h1        1 JM5      0.041700
     29 HB         -3.0540    0.6080    0.0940 hc        1 JM5      0.049200
     30 HBA        -2.6250   -0.8460    1.0830 hc        1 JM5      0.049200
     31 HD         -0.4230    0.1250    1.6560 h1        1 JM5      0.034200
     32 HG         -0.6420   -1.2640   -0.4340 hc        1 JM5      0.045200
     33 HGA        -1.0660    0.2110   -1.3890 hc        1 JM5      0.045200
     34 HNH         0.6570    2.1380    2.5310 hn        1 JM5      0.389400
     35 H20        -0.9010    1.6110    0.7230 h1        1 JM5      0.034200
     36 H21         1.2790    0.6060   -0.6310 hn        1 JM5      0.425800
@<TRIPOS>BOND
     1    1    9 1   
     2    1   15 1   
     3    1   16 1   
     4    2    9 1   
     5    2   17 1   
     6    2   18 1   
     7    3    4 1   
     8    3   12 1   
     9    3   14 2   
    10    4    5 1   
    11    4   19 1   
    12    4   20 1   
    13    5    6 1   
    14    6    7 1   
    15    6   21 1   
    16    6   22 1   
    17    7    8 1   
    18    7   23 1   
    19    7   24 1   
    20    8   25 1   
    21    8   26 1   
    22    8   27 1   
    23    9   10 1   
    24    9   28 1   
    25   10   13 1   
    26   10   29 1   
    27   10   30 1   
    28   11   12 1   
    29   11   13 1   
    30   11   31 1   
    31   11   35 1   
    32   12   36 1   
    33   13   32 1   
    34   13   33 1   
    35   14   34 1   
@<TRIPOS>SUBSTRUCTURE
     1 JM5         1 TEMP              0 ****  ****    0 ROOT
