@<TRIPOS>MOLECULE
JM6
   38    37     1     0     0
SMALL
bcc


@<TRIPOS>ATOM
      1 C           4.1300   -0.5070    0.5820 c         1 JM6      0.895600
      2 N           1.8730   -0.8480   -0.4130 n4        1 JM6     -0.824600
      3 C1          5.6390    0.4630    4.3670 c2        1 JM6      0.534200
      4 C2          6.9320   -0.2910    4.1300 c3        1 JM6     -0.176700
      5 C3          7.6760   -0.5580    5.4230 c3        1 JM6     -0.074400
      6 C4          8.9360   -1.3410    5.1500 c3        1 JM6     -0.026300
      7 S5          9.7350   -1.5720    6.7100 ss        1 JM6     -0.276200
      8 C6         11.1590   -2.4950    6.2750 c3        1 JM6     -0.042000
      9 CA          2.8420    0.2020    0.0280 c3        1 JM6     -0.042500
     10 CB          2.2880    1.0620    1.1700 c3        1 JM6     -0.094400
     11 CD          3.8760    1.7330    3.0680 c3        1 JM6      0.121800
     12 NE          4.8410    0.5970    3.1050 n4        1 JM6     -0.766000
     13 CG          3.3340    2.0420    1.6740 c3        1 JM6     -0.108400
     14 OA1         3.9210   -1.5040    1.3280 o         1 JM6     -0.780300
     15 OA2         5.2290    0.0490    0.3600 o         1 JM6     -0.780300
     16 NH1         5.1530    0.9560    5.4440 n2        1 JM6     -0.739100
     17 HN          1.9480   -1.6360    0.2550 hn        1 JM6      0.459800
     18 HNA         0.9170   -0.4930   -0.4280 hn        1 JM6      0.459800
     19 H2          6.7090   -1.2690    3.6190 hc        1 JM6      0.095700
     20 H2A         7.5870    0.3110    3.4400 hc        1 JM6      0.095700
     21 H3          7.0240   -1.1420    6.1290 hc        1 JM6      0.067700
     22 H3A         7.9450    0.4120    5.9220 hc        1 JM6      0.067700
     23 H4          9.6040   -0.7850    4.4470 h1        1 JM6      0.069200
     24 H4A         8.6980   -2.3260    4.6800 h1        1 JM6      0.069200
     25 H6         10.8980   -3.4750    5.8180 h1        1 JM6      0.072700
     26 H6A        11.7070   -2.6740    7.2300 h1        1 JM6      0.072700
     27 H6B        11.8200   -1.9370    5.5760 h1        1 JM6      0.072700
     28 HA          3.1030    0.8430   -0.8600 hx        1 JM6      0.120700
     29 HB          1.9460    0.3980    2.0090 hc        1 JM6      0.064200
     30 HBA         1.3940    1.6370    0.8070 hc        1 JM6      0.064200
     31 HD          4.4110    2.6520    3.4490 hx        1 JM6      0.107700
     32 HDA         3.0300    1.4990    3.7760 hx        1 JM6      0.107700
     33 HNE         5.5080    0.6840    2.3120 hn        1 JM6      0.491800
     34 HG          2.8640    3.0620    1.7500 hc        1 JM6      0.099200
     35 HGA         4.1800    2.1250    0.9350 hc        1 JM6      0.099200
     36 HNH1        5.6870    0.8450    6.2820 hn        1 JM6      0.469400
     37 HN3         2.1360   -1.1820   -1.3420 hn        1 JM6      0.459800
     38 HE3         4.3350   -0.3010    2.9640 hn        1 JM6      0.491800
@<TRIPOS>BOND
     1    1    9 1   
     2    1   14 1   
     3    1   15 1   
     4    2    9 1   
     5    2   17 1   
     6    2   18 1   
     7    2   37 1   
     8    3    4 1   
     9    3   12 1   
    10    3   16 2   
    11    4    5 1   
    12    4   19 1   
    13    4   20 1   
    14    5    6 1   
    15    5   21 1   
    16    5   22 1   
    17    6    7 1   
    18    6   23 1   
    19    6   24 1   
    20    7    8 1   
    21    8   25 1   
    22    8   26 1   
    23    8   27 1   
    24    9   10 1   
    25    9   28 1   
    26   10   13 1   
    27   10   29 1   
    28   10   30 1   
    29   11   12 1   
    30   11   13 1   
    31   11   31 1   
    32   11   32 1   
    33   12   33 1   
    34   12   38 1   
    35   13   34 1   
    36   13   35 1   
    37   16   36 1   
@<TRIPOS>SUBSTRUCTURE
     1 JM6         1 TEMP              0 ****  ****    0 ROOT
