@<TRIPOS>MOLECULE
JM6
   38    37     1     0     0
SMALL
bcc


@<TRIPOS>ATOM
      1 C           4.0630   -0.6200    0.6410 c         1 JM6      0.895600
      2 N           1.7720   -0.8990   -0.2930 nz        1 JM6     -0.824600
      3 C1          5.6960    0.5550    4.3140 c2        1 JM6      0.534200
      4 C2          6.9380   -0.2920    4.1220 c3        1 JM6     -0.176700
      5 C3          7.6880   -0.4990    5.4230 c3        1 JM6     -0.074400
      6 C4          8.8960   -1.3750    5.1970 c3        1 JM6     -0.026300
      7 S5          9.7070   -1.5280    6.7590 ss        1 JM6     -0.276200
      8 C6         11.0670   -2.5650    6.3810 c3        1 JM6     -0.042000
      9 CA          2.8110    0.1210    0.0480 c3        1 JM6     -0.042500
     10 CB          2.3310    1.1030    1.1230 c3        1 JM6     -0.094400
     11 CD          3.9900    1.8240    2.9400 c3        1 JM6      0.121800
     12 NE          4.8850    0.6360    3.0570 ny        1 JM6     -0.766000
     13 CG          3.4430    2.0520    1.5320 c3        1 JM6     -0.108400
     14 OA1         3.8060   -1.5390    1.4680 o         1 JM6     -0.780300
     15 OA2         5.1890   -0.1540    0.3600 o         1 JM6     -0.780300
     16 NH1         5.2590    1.1610    5.3540 n2        1 JM6     -0.739100
     17 HN          1.8100   -1.6340    0.4350 hn        1 JM6      0.459800
     18 HNA         1.9970   -1.3220   -1.1960 hn        1 JM6      0.459800
     19 H2          7.6140    0.2120    3.3770 hc        1 JM6      0.095700
     20 H2A         6.6480   -1.2930    3.6960 hc        1 JM6      0.095700
     21 H3          7.0160   -0.9840    6.1820 hc        1 JM6      0.067700
     22 H3A         8.0220    0.4900    5.8380 hc        1 JM6      0.067700
     23 H4          8.5920   -2.3790    4.8120 h1        1 JM6      0.069200
     24 H4A         9.5820   -0.9180    4.4420 h1        1 JM6      0.069200
     25 H6         10.7420   -3.5610    6.0080 h1        1 JM6      0.072700
     26 H6A        11.7470   -2.1050    5.6300 h1        1 JM6      0.072700
     27 H6B        11.6220   -2.6990    7.3400 h1        1 JM6      0.072700
     28 HA          3.0950    0.6710   -0.8930 hx        1 JM6      0.120700
     29 HB          1.4670    1.7020    0.7260 hc        1 JM6      0.064200
     30 HBA         1.9640    0.5300    2.0170 hc        1 JM6      0.064200
     31 HD          4.5870    2.7350    3.2380 hx        1 JM6      0.107700
     32 HDA         3.1450    1.7000    3.6750 hx        1 JM6      0.107700
     33 HNE         5.5420    0.6180    2.2490 hn        1 JM6      0.491800
     34 HG          3.0380    3.1030    1.5310 hc        1 JM6      0.099200
     35 HGA         4.2800    2.0230    0.7780 hc        1 JM6      0.099200
     36 HNH1        5.8010    1.0850    6.1910 hn        1 JM6      0.469400
     37 HN3         0.8390   -0.4870   -0.3250 hn        1 JM6      0.459800
     38 HE3         4.3230   -0.2370    2.9950 hn        1 JM6      0.491800
@<TRIPOS>BOND
     1    1    9 1   
     2    1   14 1   
     3    1   15 1   
     4    2    9 1   
     5    2   17 1   
     6    2   18 1   
     7    2   37 1   
     8    3    4 1   
     9    3   12 1   
    10    3   16 2   
    11    4    5 1   
    12    4   19 1   
    13    4   20 1   
    14    5    6 1   
    15    5   21 1   
    16    5   22 1   
    17    6    7 1   
    18    6   23 1   
    19    6   24 1   
    20    7    8 1   
    21    8   25 1   
    22    8   26 1   
    23    8   27 1   
    24    9   10 1   
    25    9   28 1   
    26   10   13 1   
    27   10   29 1   
    28   10   30 1   
    29   11   12 1   
    30   11   13 1   
    31   11   31 1   
    32   11   32 1   
    33   12   33 1   
    34   12   38 1   
    35   13   34 1   
    36   13   35 1   
    37   16   36 1   
@<TRIPOS>SUBSTRUCTURE
     1 JM6         1 TEMP              0 ****  ****    0 ROOT
