@<TRIPOS>MOLECULE
JM6
   36    32     1     0     0
SMALL
bcc


@<TRIPOS>ATOM
      1 C          -4.5780    1.9370   -3.2070 c1        1 JM6      0.308000
      2 N          -2.9590    3.5060   -3.9950 n3        1 JM6     -0.326000
      3 C1          0.9740    0.3640    1.0320 c1        1 JM6      0.081000
      4 C2          2.1220   -0.6570    1.1570 c3        1 JM6     -0.178000
      5 C3          1.8000   -1.6540    2.2770 c3        1 JM6     -0.150000
      6 C4          2.9770   -2.6290    2.4520 c3        1 JM6     -0.274000
      7 S5          2.5710   -3.8390    3.7160 ss        1 JM6      0.077000
      8 C6          3.9150   -5.0180    3.8680 c3        1 JM6     -0.345000
      9 CA         -3.1120    2.2710   -3.3150 c2        1 JM6     -0.130000
     10 CB         -2.5140    2.3800   -1.9220 c3        1 JM6     -0.142000
     11 CD         -0.7590    1.4810   -0.3740 c3        1 JM6     -0.053000
     12 NE          0.1570    0.3880   -0.1510 n2        1 JM6     -0.288000
     13 CG         -1.4060    1.3330   -1.7600 c3        1 JM6     -0.165000
     14 OA1        -5.0320    0.9030   -3.7730 o         1 JM6     -0.578000
     15 OA2        -5.3630    2.7360   -2.6340 o         1 JM6     -0.578000
     16 NH1         0.7430    1.2110    2.0040 n1        1 JM6     -0.307000
     17 HN         -2.2790    3.4350   -4.6120 hn        1 JM6      0.126000
     18 HNA        -3.7420    3.7170   -4.4270 hn        1 JM6      0.126000
     19 H2          2.2250   -1.1370    0.3130 hc        1 JM6      0.093500
     20 H2A         2.9540   -0.1870    1.3680 hc        1 JM6      0.093500
     21 H3          0.9940   -2.1540    2.0460 hc        1 JM6      0.103000
     22 H3A         1.6530   -1.1670    3.1140 hc        1 JM6      0.103000
     23 H4          3.7750   -2.1310    2.7220 h1        1 JM6      0.096000
     24 H4A         3.1480   -3.0850    1.6100 h1        1 JM6      0.096000
     25 H6          4.1370   -5.3770    2.9820 h1        1 JM6      0.098667
     26 H6A         3.6400   -5.7560    4.4630 h1        1 JM6      0.098667
     27 H6B         4.7020   -4.5700    4.2450 h1        1 JM6      0.098667
     28 HA         -2.6570    1.5720   -3.8080 h4        1 JM6      0.079000
     29 HB         -3.2110    2.2230   -1.2550 hc        1 JM6      0.090000
     30 HBA        -2.1390    3.2720   -1.7980 hc        1 JM6      0.090000
     31 HD         -1.4580    1.4700    0.3180 h1        1 JM6      0.089500
     32 HDA        -0.2690    2.3320   -0.3310 h1        1 JM6      0.089500
     33 HNE         0.2410   -0.2690   -0.7760 hn        1 JM6      0.189000
     34 HG         -0.7210    1.4670   -2.4580 hc        1 JM6      0.079000
     35 HGA        -1.7890    0.4350   -1.8470 hc        1 JM6      0.079000
     36 HNH1        1.2630    1.1960    2.7570 DU        1 JM6      0.128000
@<TRIPOS>BOND
     1    1   14 1   
     2    1   15 1   
     3    2    9 1   
     4    2   17 1   
     5    2   18 1   
     6    3    4 1   
     7    3   16 1   
     8    4    5 1   
     9    4   19 1   
    10    4   20 1   
    11    5    6 1   
    12    5   21 1   
    13    5   22 1   
    14    6    7 1   
    15    6   23 1   
    16    6   24 1   
    17    7    8 1   
    18    8   25 1   
    19    8   26 1   
    20    8   27 1   
    21    9   10 1   
    22    9   28 1   
    23   10   13 1   
    24   10   29 1   
    25   10   30 1   
    26   11   12 1   
    27   11   13 1   
    28   11   31 1   
    29   11   32 1   
    30   12   33 1   
    31   13   34 1   
    32   13   35 1   
@<TRIPOS>SUBSTRUCTURE
     1 JM6         1 TEMP              0 ****  ****    0 ROOT
