@<TRIPOS>MOLECULE
JM6
   36    35     1     0     0
SMALL
bcc


@<TRIPOS>ATOM
      1 C          -5.9330   -0.2680   -0.5950 c         1 JM6      0.888600
      2 N          -4.9980    1.8450    0.4680 n3        1 JM6     -0.893800
      3 C1          1.4130   -0.3900    0.3970 c2        1 JM6      0.597200
      4 C2          2.6370    0.3760   -0.1150 c3        1 JM6     -0.175700
      5 C3          3.9530   -0.3290    0.1320 c3        1 JM6     -0.073400
      6 C4          5.0970    0.5090   -0.3810 c3        1 JM6     -0.010300
      7 S5          6.5970   -0.3780   -0.0680 ss        1 JM6     -0.295200
      8 C6          7.8040    0.7110   -0.7180 c3        1 JM6     -0.042000
      9 CA         -4.7130    0.6900   -0.3740 c3        1 JM6      0.017500
     10 CB         -3.5310   -0.1460    0.1210 c3        1 JM6     -0.063400
     11 CD         -1.0600   -0.2880    0.4420 c3        1 JM6      0.183800
     12 NE          0.2260    0.3660    0.2950 nh        1 JM6     -0.804200
     13 CG         -2.2240    0.6100    0.0220 c3        1 JM6     -0.086400
     14 OA1        -5.7520   -1.2800   -1.3260 o         1 JM6     -0.842800
     15 OA2        -7.0330    0.0370   -0.0520 o         1 JM6     -0.842800
     16 NH1         1.4300   -1.5730    0.9370 n2        1 JM6     -0.840100
     17 HN         -5.9170    2.1750    0.2180 hn        1 JM6      0.330800
     18 HNA        -5.0630    1.5350    1.4220 hn        1 JM6      0.330800
     19 H2          2.5130    0.5420   -1.2190 hc        1 JM6      0.057700
     20 H2A         2.6660    1.3840    0.3800 hc        1 JM6      0.057700
     21 H3          4.0900   -0.5130    1.2320 hc        1 JM6      0.061700
     22 H3A         3.9610   -1.3260   -0.3850 hc        1 JM6      0.061700
     23 H4          4.9850    0.7000   -1.4760 h1        1 JM6      0.058700
     24 H4A         5.1220    1.5000    0.1350 h1        1 JM6      0.058700
     25 H6          7.6600    0.8890   -1.8070 h1        1 JM6      0.060033
     26 H6A         7.8010    1.6940   -0.1960 h1        1 JM6      0.060033
     27 H6B         8.7910    0.2180   -0.5580 h1        1 JM6      0.060033
     28 HA         -4.4510    1.1000   -1.3940 h1        1 JM6      0.038700
     29 HB         -3.7020   -0.4710    1.1790 hc        1 JM6      0.050700
     30 HBA        -3.4930   -1.0720   -0.5150 hc        1 JM6      0.050700
     31 HD         -1.1030   -1.2440   -0.1570 h1        1 JM6      0.050200
     32 HDA        -1.1750   -0.5690    1.5270 h1        1 JM6      0.050200
     33 HNE         0.2510    1.0200   -0.4600 hn        1 JM6      0.389800
     34 HG         -2.0800    0.9600   -1.0350 hc        1 JM6      0.039200
     35 HGA        -2.2600    1.5220    0.6730 hc        1 JM6      0.039200
     36 HNH1        2.3410   -1.9630    1.0420 hn        1 JM6      0.377400
@<TRIPOS>BOND
     1    1    9 1   
     2    1   14 1   
     3    1   15 1   
     4    2    9 1   
     5    2   17 1   
     6    2   18 1   
     7    3    4 1   
     8    3   12 1   
     9    3   16 2   
    10    4    5 1   
    11    4   19 1   
    12    4   20 1   
    13    5    6 1   
    14    5   21 1   
    15    5   22 1   
    16    6    7 1   
    17    6   23 1   
    18    6   24 1   
    19    7    8 1   
    20    8   25 1   
    21    8   26 1   
    22    8   27 1   
    23    9   10 1   
    24    9   28 1   
    25   10   13 1   
    26   10   29 1   
    27   10   30 1   
    28   11   12 1   
    29   11   13 1   
    30   11   31 1   
    31   11   32 1   
    32   12   33 1   
    33   13   34 1   
    34   13   35 1   
    35   16   36 1   
@<TRIPOS>SUBSTRUCTURE
     1 JM6         1 TEMP              0 ****  ****    0 ROOT
