@<TRIPOS>MOLECULE
JM6
   38    37     1     0     0
SMALL
bcc


@<TRIPOS>ATOM
      1 C           4.0740   -0.5380    0.6160 c         1 JM6      0.895600
      2 N           1.7900   -0.8070   -0.3400 n4        1 JM6     -0.824600
      3 C1          5.6770    0.4940    4.3460 c2        1 JM6      0.534200
      4 C2          6.9370   -0.3180    4.1190 c3        1 JM6     -0.176700
      5 C3          7.6880   -0.5690    5.4110 c3        1 JM6     -0.074400
      6 C4          8.9150   -1.4070    5.1490 c3        1 JM6     -0.026300
      7 S5          9.7270   -1.6140    6.7050 ss        1 JM6     -0.276200
      8 C6         11.1100   -2.6020    6.2840 c3        1 JM6     -0.042000
      9 CA          2.8130    0.2110    0.0520 c3        1 JM6     -0.042500
     10 CB          2.3140    1.1360    1.1690 c3        1 JM6     -0.094400
     11 CD          3.9570    1.7970    3.0240 c3        1 JM6      0.121800
     12 NE          4.8690    0.6190    3.0900 n4        1 JM6     -0.766000
     13 CG          3.4110    2.0820    1.6260 c3        1 JM6     -0.108400
     14 OA1         3.8280   -1.4970    1.3990 o         1 JM6     -0.780300
     15 OA2         5.1940   -0.0430    0.3610 o         1 JM6     -0.780300
     16 NH1         5.2240    1.0400    5.4120 n2        1 JM6     -0.739100
     17 HN          0.8520   -0.4080   -0.3560 hn        1 JM6      0.459800
     18 HNA         2.0250   -1.1860   -1.2600 hn        1 JM6      0.459800
     19 H2          7.6040    0.2330    3.4000 hc        1 JM6      0.095200
     20 H2A         6.6680   -1.3040    3.6470 hc        1 JM6      0.095200
     21 H3          8.0000    0.4070    5.8720 hc        1 JM6      0.067700
     22 H3A         7.0250   -1.1030    6.1450 hc        1 JM6      0.067700
     23 H4          9.5920   -0.9030    4.4170 h1        1 JM6      0.069200
     24 H4A         8.6330   -2.4000    4.7180 h1        1 JM6      0.069200
     25 H6         11.7810   -2.0940    5.5570 h1        1 JM6      0.072700
     26 H6A        10.8080   -3.5880    5.8660 h1        1 JM6      0.072700
     27 H6B        11.6660   -2.7670    7.2370 h1        1 JM6      0.072700
     28 HA          3.0920    0.8080   -0.8610 hx        1 JM6      0.120700
     29 HB          1.9530    0.5180    2.0340 hc        1 JM6      0.064200
     30 HBA         1.4440    1.7390    0.7960 hc        1 JM6      0.064200
     31 HD          3.1100    1.6260    3.7490 hx        1 JM6      0.107700
     32 HDA         4.5380    2.7020    3.3660 hx        1 JM6      0.107700
     33 HNE         4.3210   -0.2590    2.9870 hn        1 JM6      0.491800
     34 HG          2.9910    3.1250    1.6710 hc        1 JM6      0.099200
     35 HGA         4.2510    2.0990    0.8750 hc        1 JM6      0.099200
     36 HNH1        5.7640    0.9340    6.2470 hn        1 JM6      0.469400
     37 HN3         1.8370   -1.5740    0.3550 hn        1 JM6      0.459800
     38 HE3         5.5290    0.6470    2.2850 hn        1 JM6      0.491800
@<TRIPOS>BOND
     1    1    9 1   
     2    1   14 1   
     3    1   15 1   
     4    2    9 1   
     5    2   17 1   
     6    2   18 1   
     7    2   37 1   
     8    3    4 1   
     9    3   12 1   
    10    3   16 2   
    11    4    5 1   
    12    4   19 1   
    13    4   20 1   
    14    5    6 1   
    15    5   21 1   
    16    5   22 1   
    17    6    7 1   
    18    6   23 1   
    19    6   24 1   
    20    7    8 1   
    21    8   25 1   
    22    8   26 1   
    23    8   27 1   
    24    9   10 1   
    25    9   28 1   
    26   10   13 1   
    27   10   29 1   
    28   10   30 1   
    29   11   12 1   
    30   11   13 1   
    31   11   31 1   
    32   11   32 1   
    33   12   33 1   
    34   12   38 1   
    35   13   34 1   
    36   13   35 1   
    37   16   36 1   
@<TRIPOS>SUBSTRUCTURE
     1 JM6         1 TEMP              0 ****  ****    0 ROOT
