@<TRIPOS>MOLECULE
JM7
   35    34     1     0     0
SMALL
bcc


@<TRIPOS>ATOM
      1 C           4.0560   -0.6140    0.5560 c         1 JM7      0.895600
      2 N           1.6900   -1.0250   -0.1000 n4        1 JM7     -0.824600
      3 C1          6.0680    0.5950    4.0290 c2        1 JM7      0.520200
      4 C2          7.4060    0.0160    3.6220 c3        1 JM7     -0.146600
      5 S3          8.4580   -0.2050    5.0080 ss        1 JM7     -0.239200
      6 C4          8.3690   -1.9460    5.3400 c3        1 JM7     -0.012300
      7 C5          9.3410   -2.2050    6.4540 c3        1 JM7     -0.097100
      8 CA          2.6930    0.0550    0.1510 c3        1 JM7     -0.041500
      9 CB          2.2870    0.9680    1.3130 c3        1 JM7     -0.094400
     10 CD          4.1100    1.7490    2.9370 c3        1 JM7      0.121800
     11 NE          5.0990    0.6320    2.8900 n4        1 JM7     -0.761000
     12 CG          3.3750    1.9820    1.6190 c3        1 JM7     -0.108400
     13 NH          5.6880    1.0270    5.1730 n2        1 JM7     -0.724100
     14 OA1         3.9670   -1.5710    1.3750 o         1 JM7     -0.780800
     15 OA2         5.1050   -0.0640    0.1540 o         1 JM7     -0.780800
     16 HN          0.7360   -0.6790   -0.0030 hn        1 JM7      0.459800
     17 HNA         1.8300   -1.4060   -1.0380 hn        1 JM7      0.459800
     18 H2          7.9220    0.7440    2.9380 h1        1 JM7      0.120200
     19 H2A         7.2690   -0.9430    3.0580 h1        1 JM7      0.120200
     20 H4          7.3340   -2.2400    5.6380 h1        1 JM7      0.069700
     21 H4A         8.6450   -2.5290    4.4280 h1        1 JM7      0.069700
     22 H5          9.3400   -3.2940    6.7080 hc        1 JM7      0.062033
     23 H5A         9.0640   -1.6300    7.3720 hc        1 JM7      0.062033
     24 H5B        10.3790   -1.9170    6.1540 hc        1 JM7      0.062033
     25 HA          2.8210    0.6510   -0.7960 hx        1 JM7      0.120700
     26 HB          1.3430    1.5150    1.0480 hc        1 JM7      0.064700
     27 HBA         2.0740    0.3450    2.2230 hc        1 JM7      0.064700
     28 HD          4.6720    2.6920    3.2010 hx        1 JM7      0.107700
     29 HDA         3.3760    1.5320    3.7640 hx        1 JM7      0.107700
     30 HNE         4.6010   -0.2800    2.8700 hn        1 JM7      0.491800
     31 HG          2.9030    3.0000    1.7110 hc        1 JM7      0.099200
     32 HGA         4.1090    2.0380    0.7660 hc        1 JM7      0.099200
     33 HNH         6.3620    0.9680    5.9160 hn        1 JM7      0.480400
     34 HN3         1.8660   -1.7760    0.5920 hn        1 JM7      0.459800
     35 HE3         5.6430    0.6890    2.0050 hn        1 JM7      0.491800
@<TRIPOS>BOND
     1    1    8 1   
     2    1   14 1   
     3    1   15 1   
     4    2    8 1   
     5    2   16 1   
     6    2   17 1   
     7    2   34 1   
     8    3    4 1   
     9    3   11 1   
    10    3   13 2   
    11    4    5 1   
    12    4   18 1   
    13    4   19 1   
    14    5    6 1   
    15    6    7 1   
    16    6   20 1   
    17    6   21 1   
    18    7   22 1   
    19    7   23 1   
    20    7   24 1   
    21    8    9 1   
    22    8   25 1   
    23    9   12 1   
    24    9   26 1   
    25    9   27 1   
    26   10   11 1   
    27   10   12 1   
    28   10   28 1   
    29   10   29 1   
    30   11   30 1   
    31   11   35 1   
    32   12   31 1   
    33   12   32 1   
    34   13   33 1   
@<TRIPOS>SUBSTRUCTURE
     1 JM7         1 TEMP              0 ****  ****    0 ROOT
