@<TRIPOS>MOLECULE
JM7
   35    34     1     0     0
SMALL
bcc


@<TRIPOS>ATOM
      1 C           3.9640   -0.7140    0.6280 c         1 JM7      0.895600
      2 N           1.5580   -0.9780    0.0460 n4        1 JM7     -0.824600
      3 C1          6.1470    0.6130    3.9510 c2        1 JM7      0.520200
      4 C2          7.4240   -0.1070    3.5760 c3        1 JM7     -0.146600
      5 S3          8.4850   -0.2960    4.9590 ss        1 JM7     -0.239200
      6 C4          8.2630   -1.9900    5.4420 c3        1 JM7     -0.012300
      7 C5          9.2350   -2.2310    6.5590 c3        1 JM7     -0.097100
      8 CA          2.6530    0.0300    0.1860 c3        1 JM7     -0.041500
      9 CB          2.3500    1.0710    1.2700 c3        1 JM7     -0.094400
     10 CD          4.2680    1.8310    2.7920 c3        1 JM7      0.121800
     11 NE          5.1590    0.6350    2.8280 n4        1 JM7     -0.761000
     12 CG          3.5260    2.0120    1.4700 c3        1 JM7     -0.108400
     13 NH          5.8290    1.1710    5.0600 n2        1 JM7     -0.724100
     14 OA1         3.8140   -1.5870    1.5290 o         1 JM7     -0.780800
     15 OA2         5.0460   -0.2920    0.1630 o         1 JM7     -0.780800
     16 HN          1.6440   -1.4480   -0.8570 hn        1 JM7      0.459800
     17 HNA         1.6870   -1.6790    0.7980 hn        1 JM7      0.459800
     18 H2          7.1960   -1.0960    3.0990 h1        1 JM7      0.120200
     19 H2A         7.9820    0.5140    2.8230 h1        1 JM7      0.120200
     20 H4          7.2140   -2.1700    5.7790 h1        1 JM7      0.069700
     21 H4A         8.4710   -2.6680    4.5790 h1        1 JM7      0.069700
     22 H5          9.0250   -1.5600    7.4280 hc        1 JM7      0.062033
     23 H5A         9.1510   -3.2920    6.9070 hc        1 JM7      0.062033
     24 H5B        10.2860   -2.0570    6.2200 hc        1 JM7      0.062033
     25 HA          2.8090    0.5300   -0.8110 hx        1 JM7      0.120700
     26 HB          1.4490    1.6720    0.9720 hc        1 JM7      0.064700
     27 HBA         2.1060    0.5490    2.2340 hc        1 JM7      0.064700
     28 HD          4.9120    2.7420    2.9650 hx        1 JM7      0.107700
     29 HDA         3.5370    1.7490    3.6460 hx        1 JM7      0.107700
     30 HNE         4.5870   -0.2310    2.8950 hn        1 JM7      0.491800
     31 HG          4.2430    1.9310    0.6040 hc        1 JM7      0.099200
     32 HGA         3.1420    3.0700    1.4790 hc        1 JM7      0.099200
     33 HNH         6.5130    1.1190    5.7950 hn        1 JM7      0.480400
     34 HN3         0.6380   -0.5450    0.1270 hn        1 JM7      0.459800
     35 HE3         5.6860    0.5690    1.9330 hn        1 JM7      0.491800
@<TRIPOS>BOND
     1    1    8 1   
     2    1   14 1   
     3    1   15 1   
     4    2    8 1   
     5    2   16 1   
     6    2   17 1   
     7    2   34 1   
     8    3    4 1   
     9    3   11 1   
    10    3   13 2   
    11    4    5 1   
    12    4   18 1   
    13    4   19 1   
    14    5    6 1   
    15    6    7 1   
    16    6   20 1   
    17    6   21 1   
    18    7   22 1   
    19    7   23 1   
    20    7   24 1   
    21    8    9 1   
    22    8   25 1   
    23    9   12 1   
    24    9   26 1   
    25    9   27 1   
    26   10   11 1   
    27   10   12 1   
    28   10   28 1   
    29   10   29 1   
    30   11   30 1   
    31   11   35 1   
    32   12   31 1   
    33   12   32 1   
    34   13   33 1   
@<TRIPOS>SUBSTRUCTURE
     1 JM7         1 TEMP              0 ****  ****    0 ROOT
