@<TRIPOS>MOLECULE
JM7
   33    32     1     0     0
SMALL
bcc


@<TRIPOS>ATOM
      1 C           4.6810    0.8210   -0.0430 c         1 JM7      0.888600
      2 N           2.8980    2.4260   -0.8890 n3        1 JM7     -0.893800
      3 C1         -2.2160   -1.7580    0.6570 c2        1 JM7      0.607200
      4 C2         -3.5160   -1.4060    1.3670 c3        1 JM7     -0.056600
      5 S3         -4.7600   -0.7070    0.3320 ss        1 JM7     -0.295200
      6 C4         -4.1480    0.9030   -0.0850 c3        1 JM7     -0.014300
      7 C5         -5.3090    1.7030   -0.5980 c3        1 JM7     -0.083100
      8 CA          3.1960    1.3160    0.0080 c3        1 JM7      0.016500
      9 CB          2.2850    0.1060   -0.2030 c3        1 JM7     -0.064400
     10 CD          0.0000   -0.8590    0.0480 c3        1 JM7      0.177800
     11 NE         -1.3910   -0.6450    0.3780 nh        1 JM7     -0.863200
     12 CG          0.8450    0.4110    0.1490 c3        1 JM7     -0.083400
     13 NH         -2.0200   -2.9980    0.3240 n2        1 JM7     -0.839100
     14 OA1         5.4870    1.4410   -0.7940 o         1 JM7     -0.841300
     15 OA2         4.9920   -0.1580    0.6900 o         1 JM7     -0.841300
     16 HN          3.6710    3.0690   -0.8310 hn        1 JM7      0.331800
     17 HNA         2.8950    2.0790   -1.8330 hn        1 JM7      0.331800
     18 H2         -3.9970   -2.3370    1.7690 h1        1 JM7      0.084700
     19 H2A        -3.3010   -0.7310    2.2320 h1        1 JM7      0.084700
     20 H4         -3.6940    1.3890    0.8120 h1        1 JM7      0.068700
     21 H4A        -3.3530    0.8220   -0.8660 h1        1 JM7      0.068700
     22 H5         -5.7850    1.1940   -1.4720 hc        1 JM7      0.041700
     23 H5A        -6.0830    1.8400    0.1950 hc        1 JM7      0.041700
     24 H5B        -4.9590    2.7120   -0.9290 hc        1 JM7      0.041700
     25 HA          3.0310    1.7030    1.0560 h1        1 JM7      0.039700
     26 HB          2.3490   -0.2460   -1.2650 hc        1 JM7      0.050700
     27 HBA         2.6790   -0.7190    0.4500 hc        1 JM7      0.050700
     28 HD          0.4590   -1.6470    0.7150 h1        1 JM7      0.037700
     29 HDA         0.0450   -1.2470   -1.0100 h1        1 JM7      0.037700
     30 HNE        -1.5540    0.1490    0.9580 hn        1 JM7      0.396800
     31 HG          0.7960    0.8220    1.1920 hc        1 JM7      0.043200
     32 HGA         0.4420    1.1970   -0.5410 hc        1 JM7      0.043200
     33 HNH        -1.1590   -3.2040   -0.1380 hn        1 JM7      0.390400
@<TRIPOS>BOND
     1    1    8 1   
     2    1   14 1   
     3    1   15 1   
     4    2    8 1   
     5    2   16 1   
     6    2   17 1   
     7    3    4 1   
     8    3   11 1   
     9    3   13 2   
    10    4    5 1   
    11    4   18 1   
    12    4   19 1   
    13    5    6 1   
    14    6    7 1   
    15    6   20 1   
    16    6   21 1   
    17    7   22 1   
    18    7   23 1   
    19    7   24 1   
    20    8    9 1   
    21    8   25 1   
    22    9   12 1   
    23    9   26 1   
    24    9   27 1   
    25   10   11 1   
    26   10   12 1   
    27   10   28 1   
    28   10   29 1   
    29   11   30 1   
    30   12   31 1   
    31   12   32 1   
    32   13   33 1   
@<TRIPOS>SUBSTRUCTURE
     1 JM7         1 TEMP              0 ****  ****    0 ROOT
