@<TRIPOS>MOLECULE
JM7
   35    34     1     0     0
SMALL
bcc


@<TRIPOS>ATOM
      1 C           3.9420   -0.7710    0.6570 c         1 JM7      0.895600
      2 N           1.5280   -0.9320    0.0710 nz        1 JM7     -0.824600
      3 C1          6.1790    0.6190    3.9180 c2        1 JM7      0.520200
      4 C2          7.4160   -0.1930    3.5940 c3        1 JM7     -0.146600
      5 S3          8.4570   -0.3610    4.9950 ss        1 JM7     -0.239200
      6 C4          8.1360   -2.0100    5.5710 c3        1 JM7     -0.012300
      7 C5          9.0880   -2.2420    6.7080 c3        1 JM7     -0.097100
      8 CA          2.6780    0.0190    0.1630 c3        1 JM7     -0.041500
      9 CB          2.4290    1.1350    1.1830 c3        1 JM7     -0.094400
     10 CD          4.3780    1.8720    2.6760 c3        1 JM7      0.121800
     11 NE          5.2000    0.6320    2.7870 ny        1 JM7     -0.761000
     12 CG          3.6540    2.0180    1.3390 c3        1 JM7     -0.108400
     13 NH          5.8880    1.2560    4.9900 n2        1 JM7     -0.724100
     14 OA1         3.7390   -1.5810    1.6050 o         1 JM7     -0.780800
     15 OA2         5.0480   -0.4380    0.1780 o         1 JM7     -0.780800
     16 HN          0.6340   -0.4450    0.1190 hn        1 JM7      0.459800
     17 HNA         1.5920   -1.4580   -0.8030 hn        1 JM7      0.459800
     18 H2          8.0120    0.3520    2.8130 h1        1 JM7      0.120200
     19 H2A         7.1350   -1.1920    3.1720 h1        1 JM7      0.120200
     20 H4          7.0770   -2.1110    5.9100 h1        1 JM7      0.069700
     21 H4A         8.3100   -2.7470    4.7510 h1        1 JM7      0.069700
     22 H5          8.9420   -3.2740    7.1150 hc        1 JM7      0.062033
     23 H5A         8.9120   -1.5120    7.5360 hc        1 JM7      0.062033
     24 H5B        10.1490   -2.1470    6.3690 hc        1 JM7      0.062033
     25 HA          2.8660    0.4510   -0.8600 hx        1 JM7      0.120700
     26 HB          1.5640    1.7680    0.8450 hc        1 JM7      0.064700
     27 HBA         2.1510    0.6830    2.1740 hc        1 JM7      0.064700
     28 HD          5.0720    2.7540    2.8020 hx        1 JM7      0.107700
     29 HDA         3.6390    1.8800    3.5270 hx        1 JM7      0.107700
     30 HNE         4.5800   -0.1950    2.8980 hn        1 JM7      0.491800
     31 HG          3.3310    3.0950    1.2860 hc        1 JM7      0.099200
     32 HGA         4.3700    1.8480    0.4860 hc        1 JM7      0.099200
     33 HNH         6.5640    1.2080    5.7320 hn        1 JM7      0.480400
     34 HN3         1.6130   -1.5960    0.8630 hn        1 JM7      0.459800
     35 HE3         5.7280    0.4850    1.9010 hn        1 JM7      0.491800
@<TRIPOS>BOND
     1    1    8 1   
     2    1   14 1   
     3    1   15 1   
     4    2    8 1   
     5    2   16 1   
     6    2   17 1   
     7    2   34 1   
     8    3    4 1   
     9    3   11 1   
    10    3   13 2   
    11    4    5 1   
    12    4   18 1   
    13    4   19 1   
    14    5    6 1   
    15    6    7 1   
    16    6   20 1   
    17    6   21 1   
    18    7   22 1   
    19    7   23 1   
    20    7   24 1   
    21    8    9 1   
    22    8   25 1   
    23    9   12 1   
    24    9   26 1   
    25    9   27 1   
    26   10   11 1   
    27   10   12 1   
    28   10   28 1   
    29   10   29 1   
    30   11   30 1   
    31   11   35 1   
    32   12   31 1   
    33   12   32 1   
    34   13   33 1   
@<TRIPOS>SUBSTRUCTURE
     1 JM7         1 TEMP              0 ****  ****    0 ROOT
