@<TRIPOS>MOLECULE
JM8
   38    37     1     0     0
SMALL
bcc


@<TRIPOS>ATOM
      1 C           4.0270   -0.6440    0.6600 c         1 JM8      0.895600
      2 N           1.7760   -0.8620   -0.3820 n4        1 JM8     -0.824600
      3 C1          5.5340    0.4170    4.4320 c2        1 JM8      0.535200
      4 C2          6.8600   -0.2940    4.2480 c3        1 JM8     -0.163700
      5 C3          7.5760   -0.5080    5.5580 c3        1 JM8     -0.039300
      6 S4          9.0770   -1.3490    5.1570 ss        1 JM8     -0.271200
      7 C5          9.8210   -1.5690    6.7510 c3        1 JM8     -0.003300
      8 C6         11.1200   -2.2850    6.5230 c3        1 JM8     -0.093100
      9 CA          2.8130    0.1320    0.0340 c3        1 JM8     -0.043500
     10 CB          2.3010    1.0900    1.1150 c3        1 JM8     -0.093400
     11 CD          3.8890    1.7160    3.0290 c3        1 JM8      0.122800
     12 NE          4.7760    0.5220    3.1440 n4        1 JM8     -0.766000
     13 CG          3.4110    2.0030    1.6070 c3        1 JM8     -0.108400
     14 NH          4.9920    0.8950    5.4900 n2        1 JM8     -0.741100
     15 OA1         5.1700   -0.1860    0.4410 o         1 JM8     -0.779300
     16 OA2         3.7200   -1.5790    1.4510 o         1 JM8     -0.779300
     17 HN          1.7730   -1.6180    0.3270 hn        1 JM8      0.459467
     18 HNA         2.0360   -1.2640   -1.2850 hn        1 JM8      0.459467
     19 H2          6.6840   -1.2920    3.7520 hc        1 JM8      0.109200
     20 H2A         7.5130    0.3170    3.5620 hc        1 JM8      0.109200
     21 H3          7.8020    0.4640    6.0620 h1        1 JM8      0.069200
     22 H3A         6.9610   -1.1250    6.2600 h1        1 JM8      0.069200
     23 H5          9.9930   -0.5790    7.2380 h1        1 JM8      0.064700
     24 H5A         9.1480   -2.1670    7.4120 h1        1 JM8      0.064700
     25 H6         11.6360   -2.4530    7.5010 hc        1 JM8      0.057700
     26 H6A        10.9500   -3.2800    6.0420 hc        1 JM8      0.057700
     27 H6B        11.7980   -1.6850    5.8670 hc        1 JM8      0.057700
     28 HA          3.1460    0.7040   -0.8780 hx        1 JM8      0.120700
     29 HB          1.4700    1.7190    0.6960 hc        1 JM8      0.064700
     30 HBA         1.8800    0.4990    1.9720 hc        1 JM8      0.064700
     31 HD          3.0080    1.5660    3.7160 hx        1 JM8      0.106200
     32 HG          3.0240    3.0610    1.6240 hc        1 JM8      0.099200
     33 HGA         4.2800    1.9840    0.8900 hc        1 JM8      0.099200
     34 HNH         5.4990    0.8010    6.3460 hn        1 JM8      0.464400
     35 H20         4.4720    2.6120    3.3920 hx        1 JM8      0.106200
     36 H21         5.4630    0.5240    2.3620 hn        1 JM8      0.493800
     37 HN3         0.8520   -0.4370   -0.4430 hn        1 JM8      0.459467
     38 HE3         4.2160   -0.3470    3.0380 hn        1 JM8      0.493800
@<TRIPOS>BOND
     1    1    9 1   
     2    1   15 1   
     3    1   16 1   
     4    2    9 1   
     5    2   17 1   
     6    2   18 1   
     7    2   37 1   
     8    3    4 1   
     9    3   12 1   
    10    3   14 2   
    11    4    5 1   
    12    4   19 1   
    13    4   20 1   
    14    5    6 1   
    15    5   21 1   
    16    5   22 1   
    17    6    7 1   
    18    7    8 1   
    19    7   23 1   
    20    7   24 1   
    21    8   25 1   
    22    8   26 1   
    23    8   27 1   
    24    9   10 1   
    25    9   28 1   
    26   10   13 1   
    27   10   29 1   
    28   10   30 1   
    29   11   12 1   
    30   11   13 1   
    31   11   31 1   
    32   11   35 1   
    33   12   36 1   
    34   12   38 1   
    35   13   32 1   
    36   13   33 1   
    37   14   34 1   
@<TRIPOS>SUBSTRUCTURE
     1 JM8         1 TEMP              0 ****  ****    0 ROOT
