@<TRIPOS>MOLECULE
JM8
   38    37     1     0     0
SMALL
bcc


@<TRIPOS>ATOM
      1 C           4.0180   -0.6820    0.6700 c         1 JM8      0.895600
      2 N           1.7660   -0.8690   -0.3740 n4        1 JM8     -0.824600
      3 C1          5.5410    0.4430    4.4180 c2        1 JM8      0.535200
      4 C2          6.8520   -0.3010    4.2580 c3        1 JM8     -0.163700
      5 C3          7.5590   -0.4950    5.5750 c3        1 JM8     -0.039300
      6 S4          9.0440   -1.3760    5.2030 ss        1 JM8     -0.271200
      7 C5          9.7770   -1.5720    6.8040 c3        1 JM8     -0.003300
      8 C6         11.0630   -2.3190    6.6000 c3        1 JM8     -0.093100
      9 CA          2.8280    0.1080    0.0180 c3        1 JM8     -0.043500
     10 CB          2.3370    1.1090    1.0700 c3        1 JM8     -0.093400
     11 CD          3.9350    1.7450    2.9730 c3        1 JM8      0.122800
     12 NE          4.7900    0.5310    3.1250 n4        1 JM8     -0.766000
     13 CG          3.4700    2.0050    1.5410 c3        1 JM8     -0.108400
     14 NH          5.0050    0.9590    5.4610 n2        1 JM8     -0.741100
     15 OA1         5.1740   -0.2620    0.4440 o         1 JM8     -0.779300
     16 OA2         3.6840   -1.5870    1.4850 o         1 JM8     -0.779300
     17 HN          2.0180   -1.3030   -1.2650 hn        1 JM8      0.459467
     18 HNA         1.7400   -1.6040    0.3550 hn        1 JM8      0.459467
     19 H2          7.5200    0.2770    3.5580 hc        1 JM8      0.109200
     20 H2A         6.6570   -1.3080    3.7880 hc        1 JM8      0.109200
     21 H3          6.9300   -1.0810    6.2910 h1        1 JM8      0.069200
     22 H3A         7.8030    0.4850    6.0550 h1        1 JM8      0.069200
     23 H5          9.9670   -0.5740    7.2680 h1        1 JM8      0.064700
     24 H5A         9.0900   -2.1400    7.4770 h1        1 JM8      0.064700
     25 H6         10.8750   -3.3210    6.1430 hc        1 JM8      0.057700
     26 H6A        11.7560   -1.7480    5.9340 hc        1 JM8      0.057700
     27 H6B        11.5710   -2.4730    7.5850 hc        1 JM8      0.057700
     28 HA          3.1790    0.6450   -0.9080 hx        1 JM8      0.120700
     29 HB          1.5250    1.7480    0.6310 hc        1 JM8      0.064700
     30 HBA         1.8980    0.5530    1.9420 hc        1 JM8      0.064700
     31 HD          3.0480    1.6370    3.6600 hx        1 JM8      0.106700
     32 HG          3.1120    3.0730    1.5290 hc        1 JM8      0.099200
     33 HGA         4.3410    1.9430    0.8290 hc        1 JM8      0.099200
     34 HNH         5.5070    0.8760    6.3210 hn        1 JM8      0.464400
     35 H20         4.5410    2.6350    3.3140 hx        1 JM8      0.106700
     36 H21         4.2070   -0.3260    3.0400 hn        1 JM8      0.493800
     37 HN3         0.8540   -0.4210   -0.4510 hn        1 JM8      0.459467
     38 HE3         5.4800    0.4930    2.3460 hn        1 JM8      0.493800
@<TRIPOS>BOND
     1    1    9 1   
     2    1   15 1   
     3    1   16 1   
     4    2    9 1   
     5    2   17 1   
     6    2   18 1   
     7    2   37 1   
     8    3    4 1   
     9    3   12 1   
    10    3   14 2   
    11    4    5 1   
    12    4   19 1   
    13    4   20 1   
    14    5    6 1   
    15    5   21 1   
    16    5   22 1   
    17    6    7 1   
    18    7    8 1   
    19    7   23 1   
    20    7   24 1   
    21    8   25 1   
    22    8   26 1   
    23    8   27 1   
    24    9   10 1   
    25    9   28 1   
    26   10   13 1   
    27   10   29 1   
    28   10   30 1   
    29   11   12 1   
    30   11   13 1   
    31   11   31 1   
    32   11   35 1   
    33   12   36 1   
    34   12   38 1   
    35   13   32 1   
    36   13   33 1   
    37   14   34 1   
@<TRIPOS>SUBSTRUCTURE
     1 JM8         1 TEMP              0 ****  ****    0 ROOT
