@<TRIPOS>MOLECULE
JM8
   36    35     1     0     0
SMALL
bcc


@<TRIPOS>ATOM
      1 C           6.0270   -0.0450    0.0230 c         1 JM8      0.888600
      2 N           4.6360    2.0410   -0.3980 n3        1 JM8     -0.893800
      3 C1         -1.4030   -0.6990   -0.0750 c2        1 JM8      0.602200
      4 C2         -2.6590    0.1230    0.2420 c3        1 JM8     -0.169700
      5 C3         -3.9390   -0.5410   -0.1850 c3        1 JM8     -0.009300
      6 S4         -5.2630    0.5520    0.2600 ss        1 JM8     -0.313200
      7 C5         -6.6720   -0.3570   -0.3070 c3        1 JM8     -0.009300
      8 C6         -7.8950    0.4530    0.0030 c3        1 JM8     -0.084100
      9 CA          4.6930    0.7410    0.2620 c3        1 JM8      0.016500
     10 CB          3.5260   -0.1750   -0.1070 c3        1 JM8     -0.061400
     11 CD          1.0680   -0.5900    0.0110 c3        1 JM8      0.185800
     12 NE         -0.2310   -0.1080    0.4360 nh        1 JM8     -0.805200
     13 CG          2.2020    0.3620    0.3910 c3        1 JM8     -0.088400
     14 NH         -1.3860   -1.8510   -0.6800 n2        1 JM8     -0.844100
     15 OA1         6.9190    0.5030   -0.6850 o         1 JM8     -0.843300
     16 OA2         6.1420   -1.1750    0.5710 o         1 JM8     -0.843300
     17 HN          5.5330    2.4790   -0.2630 hn        1 JM8      0.330800
     18 HNA         4.5470    1.8890   -1.3870 hn        1 JM8      0.330800
     19 H2         -2.6930    0.3120    1.3500 hc        1 JM8      0.073200
     20 H2A        -2.5710    1.1190   -0.2720 hc        1 JM8      0.073200
     21 H3         -3.9540   -0.7210   -1.2880 h1        1 JM8      0.063700
     22 H3A        -4.0740   -1.5250    0.3290 h1        1 JM8      0.063700
     23 H5         -6.5900   -0.5450   -1.4060 h1        1 JM8      0.057200
     24 H5A        -6.7160   -1.3510    0.2020 h1        1 JM8      0.057200
     25 H6         -8.8110   -0.0880   -0.3410 hc        1 JM8      0.044367
     26 H6A        -7.9840    0.6330    1.1020 hc        1 JM8      0.044367
     27 H6B        -7.8570    1.4430   -0.5150 hc        1 JM8      0.044367
     28 HA          4.6420    0.9450    1.3720 h1        1 JM8      0.040700
     29 HB          3.4840   -0.3180   -1.2180 hc        1 JM8      0.050200
     30 HBA         3.7340   -1.1790    0.3540 hc        1 JM8      0.050200
     31 HD          1.2350   -1.5910    0.5010 h1        1 JM8      0.050200
     32 HG          2.2440    0.4840    1.5050 hc        1 JM8      0.040700
     33 HGA         2.0160    1.3770   -0.0490 hc        1 JM8      0.040700
     34 HNH        -2.2880   -2.2100   -0.9040 hn        1 JM8      0.373400
     35 H20         1.0950   -0.7560   -1.1060 h1        1 JM8      0.050200
     36 H21        -0.2890    0.8870    0.4910 hn        1 JM8      0.394800
@<TRIPOS>BOND
     1    1    9 1   
     2    1   15 1   
     3    1   16 1   
     4    2    9 1   
     5    2   17 1   
     6    2   18 1   
     7    3    4 1   
     8    3   12 1   
     9    3   14 2   
    10    4    5 1   
    11    4   19 1   
    12    4   20 1   
    13    5    6 1   
    14    5   21 1   
    15    5   22 1   
    16    6    7 1   
    17    7    8 1   
    18    7   23 1   
    19    7   24 1   
    20    8   25 1   
    21    8   26 1   
    22    8   27 1   
    23    9   10 1   
    24    9   28 1   
    25   10   13 1   
    26   10   29 1   
    27   10   30 1   
    28   11   12 1   
    29   11   13 1   
    30   11   31 1   
    31   11   35 1   
    32   12   36 1   
    33   13   32 1   
    34   13   33 1   
    35   14   34 1   
@<TRIPOS>SUBSTRUCTURE
     1 JM8         1 TEMP              0 ****  ****    0 ROOT
