@<TRIPOS>MOLECULE
JM8
   38    37     1     0     0
SMALL
bcc


@<TRIPOS>ATOM
      1 C           3.9420   -0.7610    0.7360 c         1 JM8      0.895600
      2 N           1.6620   -0.9190   -0.2500 nz        1 JM8     -0.824600
      3 C1          5.5890    0.5060    4.3840 c2        1 JM8      0.535200
      4 C2          6.8660   -0.2990    4.2400 c3        1 JM8     -0.163700
      5 C3          7.5930   -0.4500    5.5510 c3        1 JM8     -0.039300
      6 S4          9.0330   -1.4110    5.1990 ss        1 JM8     -0.271200
      7 C5          9.7950   -1.5460    6.7930 c3        1 JM8     -0.003300
      8 C6         11.0440   -2.3560    6.6060 c3        1 JM8     -0.093100
      9 CA          2.7670    0.0370    0.0650 c3        1 JM8     -0.043500
     10 CB          2.3380    1.1120    1.0710 c3        1 JM8     -0.093400
     11 CD          4.0010    1.7890    2.9020 c3        1 JM8      0.122800
     12 NE          4.8140    0.5540    3.1040 ny        1 JM8     -0.766000
     13 CG          3.5140    1.9880    1.4680 c3        1 JM8     -0.108400
     14 NH          5.0980    1.1010    5.4070 n2        1 JM8     -0.741100
     15 OA1         5.1080   -0.3980    0.4630 o         1 JM8     -0.779300
     16 OA2         3.5930   -1.6070    1.6060 o         1 JM8     -0.779300
     17 HN          0.7650   -0.4410   -0.3330 hn        1 JM8      0.459467
     18 HNA         1.6250   -1.6110    0.5190 hn        1 JM8      0.459467
     19 H2          6.6200   -1.3210    3.8300 hc        1 JM8      0.109200
     20 H2A         7.5400    0.2120    3.4950 hc        1 JM8      0.109200
     21 H3          6.9570   -0.9680    6.3110 h1        1 JM8      0.069200
     22 H3A         7.8880    0.5450    5.9700 h1        1 JM8      0.069200
     23 H5         10.0350   -0.5320    7.1940 h1        1 JM8      0.064700
     24 H5A         9.1010   -2.0460    7.5130 h1        1 JM8      0.064700
     25 H6         11.5680   -2.4750    7.5870 hc        1 JM8      0.057700
     26 H6A        11.7430   -1.8550    5.8920 hc        1 JM8      0.057700
     27 H6B        10.8040   -3.3750    6.2110 hc        1 JM8      0.057700
     28 HA          3.1170    0.5090   -0.8950 hx        1 JM8      0.120700
     29 HB          1.5410    1.7570    0.6140 hc        1 JM8      0.064700
     30 HBA         1.8990    0.6210    1.9800 hc        1 JM8      0.064700
     31 HD          4.6470    2.6720    3.1810 hx        1 JM8      0.106700
     32 HG          4.3650    1.8540    0.7430 hc        1 JM8      0.099200
     33 HGA         3.1960    3.0660    1.4040 hc        1 JM8      0.099200
     34 HNH         5.6160    1.0450    6.2600 hn        1 JM8      0.464400
     35 H20         3.1260    1.7530    3.6130 hx        1 JM8      0.106700
     36 H21         5.4840    0.4460    2.3140 hn        1 JM8      0.493800
     37 HN3         1.8770   -1.4090   -1.1210 hn        1 JM8      0.459467
     38 HE3         4.1970   -0.2840    3.0780 hn        1 JM8      0.493800
@<TRIPOS>BOND
     1    1    9 1   
     2    1   15 1   
     3    1   16 1   
     4    2    9 1   
     5    2   17 1   
     6    2   18 1   
     7    2   37 1   
     8    3    4 1   
     9    3   12 1   
    10    3   14 2   
    11    4    5 1   
    12    4   19 1   
    13    4   20 1   
    14    5    6 1   
    15    5   21 1   
    16    5   22 1   
    17    6    7 1   
    18    7    8 1   
    19    7   23 1   
    20    7   24 1   
    21    8   25 1   
    22    8   26 1   
    23    8   27 1   
    24    9   10 1   
    25    9   28 1   
    26   10   13 1   
    27   10   29 1   
    28   10   30 1   
    29   11   12 1   
    30   11   13 1   
    31   11   31 1   
    32   11   35 1   
    33   12   36 1   
    34   12   38 1   
    35   13   32 1   
    36   13   33 1   
    37   14   34 1   
@<TRIPOS>SUBSTRUCTURE
     1 JM8         1 TEMP              0 ****  ****    0 ROOT
