@<TRIPOS>MOLECULE
JMP
   38    39     1     0     0
SMALL
bcc


@<TRIPOS>ATOM
      1 N           0.5260   -0.4110    0.5130 n         1 JMP     -0.288000
      2 O1          1.3230    1.7530    0.3640 o         1 JMP     -0.358000
      3 C2          2.4450   -0.9700   -1.7470 c2        1 JMP     -0.103000
      4 O2         -3.3870   -1.7520    2.7030 os        1 JMP     -0.239000
      5 C3          1.9750    0.2510   -1.3680 c2        1 JMP     -0.169000
      6 O3          3.6910   -2.5600   -0.4850 o         1 JMP     -0.539500
      7 C4          2.1410    1.4440   -2.2600 c3        1 JMP     -0.115000
      8 O4          1.4790   -2.8640   -0.6390 o         1 JMP     -0.539500
      9 C5          3.0760    1.2340   -3.3930 c2        1 JMP     -0.140000
     10 C6          3.4960   -0.0060   -3.7360 c2        1 JMP     -0.196000
     11 C7          2.8530   -1.1150   -3.1100 c1        1 JMP      0.009000
     12 C8          1.2790    0.5950   -0.0990 c2        1 JMP      0.354000
     13 C9         -0.1470   -0.2860    1.7000 c2        1 JMP      0.116000
     14 C10        -1.0010   -1.4440    2.2040 c3        1 JMP     -0.123000
     15 C11        -2.3220   -0.8620    2.6600 c2        1 JMP     -0.016000
     16 C12        -2.4670    0.4040    3.1340 c2        1 JMP     -0.146000
     17 C13        -1.2320    1.1750    3.3290 c2        1 JMP     -0.125000
     18 C14        -0.2420    0.7710    2.5460 c1        1 JMP     -0.224000
     19 C15        -3.9800   -2.0130    1.4130 c3        1 JMP      0.027000
     20 C16        -4.7160   -3.3310    1.5630 c3        1 JMP     -0.224500
     21 C17        -4.9210   -0.8830    1.0400 c3        1 JMP     -0.224500
     22 HN          0.5830   -1.3450    0.1220 hn        1 JMP      0.298000
     23 H4          1.1360    1.7560   -2.6620 hc        1 JMP      0.115000
     24 H5          2.5170    2.3010   -1.6290 hc        1 JMP      0.115000
     25 H6          3.3560    2.1310   -3.9620 ha        1 JMP      0.115000
     26 H7          4.2100   -0.1930   -4.5480 ha        1 JMP      0.139000
     27 H10        -1.1600   -2.2100    1.4010 hc        1 JMP      0.127500
     28 H12        -0.5170   -1.9640    3.0730 hc        1 JMP      0.127500
     29 H13        -3.4310    0.8070    3.4590 ha        1 JMP      0.130000
     30 H14        -1.1690    1.9090    4.1350 ha        1 JMP      0.137000
     31 H15        -3.1700   -2.1080    0.6380 h1        1 JMP      0.095000
     32 H16        -3.9970   -4.1450    1.8160 hc        1 JMP      0.080167
     33 H16A       -5.2300   -3.5780    0.6040 hc        1 JMP      0.080167
     34 H16B       -5.4740   -3.2620    2.3790 hc        1 JMP      0.080167
     35 H17        -5.7820   -0.8420    1.7480 hc        1 JMP      0.080167
     36 H17A       -5.3080   -1.0380    0.0050 hc        1 JMP      0.080167
     37 H17B       -4.3770    0.0920    1.0860 hc        1 JMP      0.080167
     38 C1          2.5490   -2.2320   -0.8860 c2        1 JMP      0.382000
@<TRIPOS>BOND
     1    1   12 1   
     2    1   13 1   
     3    1   22 1   
     4    2   12 1   
     5    3    5 1   
     6    3   11 1   
     7    3   38 1   
     8    4   15 1   
     9    4   19 1   
    10    5    7 1   
    11    5   12 1   
    12    6   38 1   
    13    7    9 1   
    14    7   23 1   
    15    7   24 1   
    16    8   38 1   
    17    9   10 1   
    18    9   25 1   
    19   10   11 1   
    20   10   26 1   
    21   13   14 1   
    22   13   18 1   
    23   14   15 1   
    24   14   27 1   
    25   14   28 1   
    26   15   16 1   
    27   16   17 1   
    28   16   29 1   
    29   17   18 1   
    30   17   30 1   
    31   19   20 1   
    32   19   21 1   
    33   19   31 1   
    34   20   32 1   
    35   20   33 1   
    36   20   34 1   
    37   21   35 1   
    38   21   36 1   
    39   21   37 1   
@<TRIPOS>SUBSTRUCTURE
     1 JMP         1 TEMP              0 ****  ****    0 ROOT
