@<TRIPOS>MOLECULE
JMP
   38    39     1     0     0
SMALL
bcc


@<TRIPOS>ATOM
      1 N           0.1910    0.1350    1.0020 n         1 JMP     -0.460100
      2 O1          1.4830   -1.6390    1.7440 o         1 JMP     -0.633100
      3 C2          2.8020    1.0000   -0.3120 ca        1 JMP     -0.072600
      4 O2         -4.5300    0.1620   -0.1730 os        1 JMP     -0.349900
      5 C3          2.6370    0.2590    0.8630 ca        1 JMP     -0.137600
      6 O3          1.9780    0.5740   -2.5120 o         1 JMP     -0.816300
      7 C4          3.6850    0.1740    1.7960 ca        1 JMP     -0.096000
      8 O4          0.7550    1.8920   -1.1900 o         1 JMP     -0.816300
      9 C5          4.8840    0.8400    1.5750 ca        1 JMP     -0.173000
     10 C6          5.0540    1.5860    0.4060 ca        1 JMP     -0.128000
     11 C7          4.0260    1.6560   -0.5260 ca        1 JMP     -0.125000
     12 C8          1.4020   -0.5100    1.2110 c         1 JMP      0.688700
     13 C9         -1.0780   -0.4480    1.1000 ca        1 JMP      0.119600
     14 C10        -2.1380    0.1440    0.3650 ca        1 JMP     -0.242000
     15 C11        -3.4280   -0.3710    0.4750 ca        1 JMP      0.138100
     16 C12        -3.7080   -1.4670    1.3110 ca        1 JMP     -0.204000
     17 C13        -2.6630   -2.0410    2.0250 ca        1 JMP     -0.094000
     18 C14        -1.3620   -1.5550    1.9300 ca        1 JMP     -0.196000
     19 C15        -4.2710    0.8870   -1.3900 c3        1 JMP      0.136100
     20 C16        -5.4280    0.5560   -2.3180 c3        1 JMP     -0.106600
     21 C17        -4.2180    2.3730   -1.0890 c3        1 JMP     -0.106600
     22 HN          0.2270    0.9880    0.4550 hn        1 JMP      0.375500
     23 H4          3.5460   -0.4380    2.7010 ha        1 JMP      0.133000
     24 H5          5.6960    0.7750    2.3120 ha        1 JMP      0.112000
     25 H6          6.0020    2.1110    0.2240 ha        1 JMP      0.111000
     26 H7          4.1570    2.2220   -1.4610 ha        1 JMP      0.140000
     27 H10        -1.9240    1.0000   -0.2980 ha        1 JMP      0.167000
     28 H12        -4.7330   -1.8490    1.3840 ha        1 JMP      0.130000
     29 H13        -2.8650   -2.9030    2.6780 ha        1 JMP      0.117000
     30 H14        -0.5520   -2.0450    2.4920 ha        1 JMP      0.163000
     31 H15        -3.3040    0.5470   -1.8540 h1        1 JMP      0.074700
     32 H16        -6.3980    0.8450   -1.8490 hc        1 JMP      0.041033
     33 H16A       -5.3030    1.1130   -3.2760 hc        1 JMP      0.041033
     34 H16B       -5.4490   -0.5390   -2.5290 hc        1 JMP      0.041033
     35 H17        -5.1760    2.7100   -0.6270 hc        1 JMP      0.041033
     36 H17A       -3.3860    2.5960   -0.3790 hc        1 JMP      0.041033
     37 H17B       -4.0480    2.9410   -2.0350 hc        1 JMP      0.041033
     38 C1          1.7620    1.1530   -1.4170 c         1 JMP      0.906200
@<TRIPOS>BOND
     1    1   12 1   
     2    1   13 1   
     3    1   22 1   
     4    2   12 2   
     5    3    5 ar  
     6    3   11 ar  
     7    3   38 1   
     8    4   15 1   
     9    4   19 1   
    10    5    7 ar  
    11    5   12 1   
    12    6   38 1   
    13    7    9 ar  
    14    7   23 1   
    15    8   38 1   
    16    9   10 ar  
    17    9   24 1   
    18   10   11 ar  
    19   10   25 1   
    20   11   26 1   
    21   13   14 ar  
    22   13   18 ar  
    23   14   15 ar  
    24   14   27 1   
    25   15   16 ar  
    26   16   17 ar  
    27   16   28 1   
    28   17   18 ar  
    29   17   29 1   
    30   18   30 1   
    31   19   20 1   
    32   19   21 1   
    33   19   31 1   
    34   20   32 1   
    35   20   33 1   
    36   20   34 1   
    37   21   35 1   
    38   21   36 1   
    39   21   37 1   
@<TRIPOS>SUBSTRUCTURE
     1 JMP         1 TEMP              0 ****  ****    0 ROOT
