@<TRIPOS>MOLECULE
JMP
   39    40     1     0     0
SMALL
bcc


@<TRIPOS>ATOM
      1 N           0.0810   -0.0150   -0.2880 n         1 JMP     -0.284000
      2 O1          1.9340    0.6360    0.9620 o         1 JMP     -0.316000
      3 C2          2.5890   -1.0570   -2.0070 c2        1 JMP     -0.206000
      4 O2         -3.3890   -1.2990    2.7300 os        1 JMP     -0.254000
      5 C3          2.3190    0.0800   -1.3090 c2        1 JMP      0.031000
      6 O3          0.8410   -2.5780   -1.2410 o         1 JMP     -0.356000
      7 C4          3.0040    1.3570   -1.6390 c3        1 JMP     -0.176000
      8 O4          2.5340   -3.4860   -2.2590 oh        1 JMP     -0.276000
      9 C5          3.9550    1.2930   -2.7640 c2        1 JMP     -0.052000
     10 C6          4.2190    0.1290   -3.4080 c2        1 JMP     -0.202000
     11 C7          3.6050   -1.0910   -3.0210 c1        1 JMP     -0.097000
     12 C8          1.4330    0.2260   -0.1000 c2        1 JMP      0.328000
     13 C9         -0.8610    0.2760    0.7200 c2        1 JMP     -0.018000
     14 C10        -1.9320   -0.5340    0.9630 c2        1 JMP     -0.190000
     15 C11        -2.9570   -0.1610    1.9870 c3        1 JMP      0.061000
     16 C12        -2.4660    0.8540    2.9750 c2        1 JMP     -0.077000
     17 C13        -1.4150    1.6430    2.6730 c2        1 JMP     -0.217000
     18 C14        -0.7500    1.5560    1.4090 c1        1 JMP      0.014000
     19 C15        -4.3800   -2.0950    2.0610 c3        1 JMP      0.024000
     20 C16        -4.2740   -3.4780    2.6790 c3        1 JMP     -0.227500
     21 C17        -5.7600   -1.5000    2.2700 c3        1 JMP     -0.227500
     22 HN          3.3350   -3.2430   -2.7660 ho        1 JMP      0.272000
     23 H4          2.2160    2.1390   -1.8560 hc        1 JMP      0.175000
     24 H5          3.5420    1.7140   -0.7050 hc        1 JMP      0.175000
     25 H6          4.4460    2.2420   -3.0350 ha        1 JMP      0.143000
     26 H7          4.9380    0.0880   -4.2430 ha        1 JMP      0.159000
     27 H10        -2.1270   -1.4630    0.4060 ha        1 JMP      0.151000
     28 H12        -3.8390    0.2980    1.4380 h1        1 JMP      0.109000
     29 H13        -3.0470    0.9350    3.9060 ha        1 JMP      0.151000
     30 H14        -1.0580    2.4260    3.3620 ha        1 JMP      0.161000
     31 H15        -4.1480   -2.1470    0.9610 h1        1 JMP      0.080000
     32 H16        -5.0200   -4.1540    2.2000 hc        1 JMP      0.086167
     33 H16A       -3.2480   -3.8890    2.5240 hc        1 JMP      0.086167
     34 H16B       -4.4730   -3.4280    3.7760 hc        1 JMP      0.086167
     35 H17        -6.5300   -2.1690    1.8190 hc        1 JMP      0.086167
     36 H17A       -5.8350   -0.4940    1.7910 hc        1 JMP      0.086167
     37 H17B       -5.9710   -1.3880    3.3610 hc        1 JMP      0.086167
     38 HN3        -0.1680   -0.7350   -0.9390 hn        1 JMP      0.257000
     39 C1          1.9290   -2.3670   -1.7910 c2        1 JMP      0.368000
@<TRIPOS>BOND
     1    1   12 1   
     2    1   13 1   
     3    1   38 1   
     4    2   12 1   
     5    3    5 1   
     6    3   11 1   
     7    3   39 1   
     8    4   15 1   
     9    4   19 1   
    10    5    7 1   
    11    5   12 1   
    12    6   39 1   
    13    7    9 1   
    14    7   23 1   
    15    7   24 1   
    16    8   22 1   
    17    8   39 1   
    18    9   10 1   
    19    9   25 1   
    20   10   11 1   
    21   10   26 1   
    22   13   14 1   
    23   13   18 1   
    24   14   15 1   
    25   14   27 1   
    26   15   16 1   
    27   15   28 1   
    28   16   17 1   
    29   16   29 1   
    30   17   18 1   
    31   17   30 1   
    32   19   20 1   
    33   19   21 1   
    34   19   31 1   
    35   20   32 1   
    36   20   33 1   
    37   20   34 1   
    38   21   35 1   
    39   21   36 1   
    40   21   37 1   
@<TRIPOS>SUBSTRUCTURE
     1 JMP         1 TEMP              0 ****  ****    0 ROOT
