@<TRIPOS>MOLECULE
JMP
   38    39     1     0     0
SMALL
bcc


@<TRIPOS>ATOM
      1 N           0.5230   -0.4040    0.5230 ns        1 JMP     -0.288000
      2 O1          1.3390    1.7450    0.3000 o         1 JMP     -0.358000
      3 C2          2.4240   -1.0550   -1.7260 c2        1 JMP     -0.103000
      4 O2         -3.3930   -1.6320    2.7720 os        1 JMP     -0.239000
      5 C3          1.9680    0.1820   -1.3850 c2        1 JMP     -0.169000
      6 O3          3.6620   -2.6150   -0.4180 o         1 JMP     -0.539500
      7 C4          2.1410    1.3430   -2.3170 c3        1 JMP     -0.115000
      8 O4          1.4470   -2.9020   -0.5510 o         1 JMP     -0.539500
      9 C5          3.0670    1.0870   -3.4460 c2        1 JMP     -0.140000
     10 C6          3.4730   -0.1680   -3.7510 c2        1 JMP     -0.196000
     11 C7          2.8250   -1.2500   -3.0850 c1        1 JMP      0.009000
     12 C8          1.2820    0.5740   -0.1250 c2        1 JMP      0.354000
     13 C9         -0.1440   -0.2330    1.7090 c2        1 JMP      0.116000
     14 C10        -1.0060   -1.3660    2.2550 c3        1 JMP     -0.123000
     15 C11        -2.3200   -0.7550    2.6960 c2        1 JMP     -0.016000
     16 C12        -2.4500    0.5270    3.1280 c2        1 JMP     -0.146000
     17 C13        -1.2070    1.2920    3.2940 c2        1 JMP     -0.125000
     18 C14        -0.2250    0.8510    2.5200 c1        1 JMP     -0.224000
     19 C15        -3.9950   -1.9300    1.4940 c3        1 JMP      0.027000
     20 C16        -4.7450   -3.2330    1.6910 c3        1 JMP     -0.224500
     21 C17        -4.9240   -0.8030    1.0860 c3        1 JMP     -0.224500
     22 HN          0.5690   -1.3510    0.1630 hn        1 JMP      0.298000
     23 H4          1.1360    1.6510   -2.7230 hc        1 JMP      0.115000
     24 H5          2.5280    2.2160   -1.7160 hc        1 JMP      0.115000
     25 H6          3.3520    1.9620   -4.0470 ha        1 JMP      0.115000
     26 H7          4.1820   -0.3880   -4.5600 ha        1 JMP      0.139000
     27 H10        -1.1770   -2.1560    1.4780 hc        1 JMP      0.127500
     28 H12        -0.5240   -1.8610    3.1380 hc        1 JMP      0.127500
     29 H13        -3.4090    0.9510    3.4450 ha        1 JMP      0.130000
     30 H14        -1.1330    2.0510    4.0750 ha        1 JMP      0.137000
     31 H15        -3.1890   -2.0610    0.7200 h1        1 JMP      0.095000
     32 H16        -5.2650   -3.5060    0.7430 hc        1 JMP      0.080167
     33 H16A       -5.5000   -3.1290    2.5070 hc        1 JMP      0.080167
     34 H16B       -4.0340   -4.0470    1.9690 hc        1 JMP      0.080167
     35 H17        -5.3170   -0.9880    0.0590 hc        1 JMP      0.080167
     36 H17A       -5.7820   -0.7270    1.7960 hc        1 JMP      0.080167
     37 H17B       -4.3690    0.1670    1.0980 hc        1 JMP      0.080167
     38 C1          2.5210   -2.2900   -0.8240 c2        1 JMP      0.382000
@<TRIPOS>BOND
     1    1   12 1   
     2    1   13 1   
     3    1   22 1   
     4    2   12 1   
     5    3    5 1   
     6    3   11 1   
     7    3   38 1   
     8    4   15 1   
     9    4   19 1   
    10    5    7 1   
    11    5   12 1   
    12    6   38 1   
    13    7    9 1   
    14    7   23 1   
    15    7   24 1   
    16    8   38 1   
    17    9   10 1   
    18    9   25 1   
    19   10   11 1   
    20   10   26 1   
    21   13   14 1   
    22   13   18 1   
    23   14   15 1   
    24   14   27 1   
    25   14   28 1   
    26   15   16 1   
    27   16   17 1   
    28   16   29 1   
    29   17   18 1   
    30   17   30 1   
    31   19   20 1   
    32   19   21 1   
    33   19   31 1   
    34   20   32 1   
    35   20   33 1   
    36   20   34 1   
    37   21   35 1   
    38   21   36 1   
    39   21   37 1   
@<TRIPOS>SUBSTRUCTURE
     1 JMP         1 TEMP              0 ****  ****    0 ROOT
