@<TRIPOS>MOLECULE
JMQ
   36    38     1     0     0
SMALL
bcc


@<TRIPOS>ATOM
      1 C1          0.1800    0.1340    0.1590 c3        1 JMQ      0.244100
      2 C2          4.6120   -0.3900    0.9830 cc        1 JMQ      0.461800
      3 C8          1.4330    0.5120   -2.0750 cc        1 JMQ     -0.111300
      4 C9          1.3870    0.2380   -0.6930 cd        1 JMQ     -0.126300
      5 O6          5.8020    0.1790   -2.3410 o         1 JMQ     -0.642500
      6 C6          5.0120    0.0560   -1.3860 c         1 JMQ      0.726100
      7 N1          5.4860   -0.2460   -0.0960 n         1 JMQ     -0.486400
      8 N3          3.3000   -0.2710    0.9610 nd        1 JMQ     -0.570100
      9 C4          2.7470    0.0330   -0.2730 cd        1 JMQ      0.133400
     10 C5          3.5630    0.1950   -1.4460 cc        1 JMQ     -0.232900
     11 N7          2.7440    0.4850   -2.5250 na        1 JMQ     -0.130100
     12 N4'        -0.5000    1.3990    0.3850 n3        1 JMQ     -0.723600
     13 C1'        -1.0130    2.0470   -0.8220 c3        1 JMQ      0.122800
     14 C2'        -2.1470    2.9950   -0.3780 c3        1 JMQ      0.108100
     15 O2'        -1.6830    4.3090   -0.1430 oh        1 JMQ     -0.595800
     16 C3'        -2.6920    2.3480    0.9180 c3        1 JMQ      0.106100
     17 O3'        -3.0180    3.2640    1.9320 oh        1 JMQ     -0.585800
     18 C4'        -1.5760    1.3590    1.3830 c3        1 JMQ      0.141500
     19 C5'        -2.2050   -0.0040    1.7080 c3        1 JMQ      0.109400
     20 O5'        -2.7700   -0.5430    0.5230 oh        1 JMQ     -0.608800
     21 H11         6.4660   -0.3530    0.0370 hn        1 JMQ      0.338500
     22 H1         -0.5170   -0.6320   -0.3010 h1        1 JMQ      0.057200
     23 H1A         0.4950   -0.2520    1.1730 h1        1 JMQ      0.057200
     24 H2          5.0910   -0.6310    1.9560 h5        1 JMQ      0.052800
     25 H8          0.6050    0.7230   -2.7560 h4        1 JMQ      0.175000
     26 HN7         3.0600    0.6460   -3.4470 hn        1 JMQ      0.316700
     27 H1'        -0.1720    2.6200   -1.2970 h1        1 JMQ      0.051700
     28 H1'A       -1.4160    1.3110   -1.5730 h1        1 JMQ      0.051700
     29 H2'        -2.9440    3.1050   -1.1580 h1        1 JMQ      0.091700
     30 HO2'       -0.8280    4.2450    0.3040 ho        1 JMQ      0.411000
     31 H3'        -3.6440    1.7900    0.7090 h1        1 JMQ      0.094700
     32 HO3'       -2.3830    3.9920    1.9010 ho        1 JMQ      0.411000
     33 H4'        -1.1240    1.7360    2.3470 h1        1 JMQ      0.077700
     34 H5'        -3.0060    0.1520    2.4800 h1        1 JMQ      0.035200
     35 H5'A       -1.4350   -0.7110    2.1170 h1        1 JMQ      0.035200
     36 HO5'       -3.2230   -1.3550    0.7790 ho        1 JMQ      0.403000
@<TRIPOS>BOND
     1    1    4 1   
     2    1   12 1   
     3    1   22 1   
     4    1   23 1   
     5    2    7 1   
     6    2    8 2   
     7    2   24 1   
     8    3    4 2   
     9    3   11 1   
    10    3   25 1   
    11    4    9 1   
    12    5    6 2   
    13    6    7 1   
    14    6   10 1   
    15    7   21 1   
    16    8    9 1   
    17    9   10 2   
    18   10   11 1   
    19   11   26 1   
    20   12   13 1   
    21   12   18 1   
    22   13   14 1   
    23   13   27 1   
    24   13   28 1   
    25   14   15 1   
    26   14   16 1   
    27   14   29 1   
    28   15   30 1   
    29   16   17 1   
    30   16   18 1   
    31   16   31 1   
    32   17   32 1   
    33   18   19 1   
    34   18   33 1   
    35   19   20 1   
    36   19   34 1   
    37   19   35 1   
    38   20   36 1   
@<TRIPOS>SUBSTRUCTURE
     1 JMQ         1 TEMP              0 ****  ****    0 ROOT
