@<TRIPOS>MOLECULE
JMQ
   36    33     1     0     0
SMALL
bcc


@<TRIPOS>ATOM
      1 C1         -0.5730   -0.4300   -0.4930 c3        1 JMQ      0.004000
      2 C2          4.2240   -0.5330    0.7310 c1        1 JMQ      0.040000
      3 C8          0.7780   -0.4410   -2.4360 c1        1 JMQ     -0.083000
      4 C9          0.8280   -0.3680   -1.0610 c2        1 JMQ     -0.121000
      5 O6          5.0830   -0.7370   -2.7110 o         1 JMQ     -0.365000
      6 C6          4.4040   -0.6850   -1.7050 c1        1 JMQ      0.363000
      7 N1          5.0180   -0.6620   -0.4460 n1        1 JMQ     -0.325000
      8 N3          2.7890   -0.4270    0.6280 n1        1 JMQ     -0.145000
      9 C4          2.1480   -0.4500   -0.6800 c1        1 JMQ     -0.007000
     10 C5          2.9070   -0.5740   -1.8130 c2        1 JMQ     -0.186000
     11 N7          2.0560   -0.5670   -2.9000 n2        1 JMQ     -0.129000
     12 N4'        -0.5980    0.2060    0.7830 n3        1 JMQ     -0.250000
     13 C1'        -0.8070    1.7730    0.5920 c3        1 JMQ     -0.111000
     14 C2'        -2.1220    1.9570    0.4040 c3        1 JMQ     -0.008000
     15 O2'        -2.5490    3.2300    1.0000 oh        1 JMQ     -0.325000
     16 C3'        -2.7940    0.7830    1.1230 c3        1 JMQ     -0.017000
     17 O3'        -3.3900    1.2070    2.2500 oh        1 JMQ     -0.326000
     18 C4'        -1.6370   -0.2200    1.4650 c3        1 JMQ     -0.061000
     19 C5'        -2.0150   -1.6310    1.0270 c3        1 JMQ     -0.043000
     20 O5'        -2.9030   -2.1930    1.9680 oh        1 JMQ     -0.324000
     21 H11         5.9250   -0.7290   -0.3800 hn        1 JMQ      0.252000
     22 H1         -0.8440   -1.3630   -0.3970 h1        1 JMQ      0.089500
     23 H1A        -1.1910    0.0290   -1.0980 h1        1 JMQ      0.089500
     24 H2          4.6520   -0.5170    1.6080 ha        1 JMQ      0.183000
     25 H8         -0.0300   -0.4130   -2.9820 DU        1 JMQ      0.221500
     26 HN7         2.3050   -0.6360   -3.7740 DU        1 JMQ      0.221500
     27 H1'        -0.5110    2.2520    1.3940 h1        1 JMQ      0.087500
     28 H1'A       -0.3080    2.0860   -0.1910 h1        1 JMQ      0.087500
     29 H2'        -2.3360    1.9380   -0.5500 h1        1 JMQ      0.125000
     30 HO2'       -2.9110    3.7440    0.3720 ho        1 JMQ      0.220000
     31 H3'        -3.4480    0.3560    0.5340 h1        1 JMQ      0.110000
     32 HO3'       -4.2670    1.0690    2.1920 ho        1 JMQ      0.216000
     33 H4'        -1.4450   -0.2020    2.4230 h1        1 JMQ      0.128000
     34 H5'        -1.2080   -2.1820    0.9700 h1        1 JMQ      0.089500
     35 H5'A       -2.4480   -1.5950    0.1490 h1        1 JMQ      0.089500
     36 HO5'       -2.7810   -3.0740    2.0020 ho        1 JMQ      0.208000
@<TRIPOS>BOND
     1    1    4 1   
     2    1   12 1   
     3    1   22 1   
     4    1   23 1   
     5    2    8 1   
     6    2   24 1   
     7    3    4 1   
     8    3   11 1   
     9    4    9 1   
    10    5    6 1   
    11    6   10 1   
    12    7   21 1   
    13    9   10 1   
    14   10   11 1   
    15   12   13 1   
    16   12   18 1   
    17   13   14 1   
    18   13   27 1   
    19   13   28 1   
    20   14   15 1   
    21   14   16 1   
    22   14   29 1   
    23   15   30 1   
    24   16   17 1   
    25   16   18 1   
    26   16   31 1   
    27   17   32 1   
    28   18   19 1   
    29   18   33 1   
    30   19   20 1   
    31   19   34 1   
    32   19   35 1   
    33   20   36 1   
@<TRIPOS>SUBSTRUCTURE
     1 JMQ         1 TEMP              0 ****  ****    0 ROOT
