@<TRIPOS>MOLECULE
JMQ
   36    38     1     0     0
SMALL
bcc


@<TRIPOS>ATOM
      1 C1          0.1800    0.1330    0.1570 c3        1 JMQ      0.244100
      2 C2          4.6090   -0.3860    1.0000 cc        1 JMQ      0.461800
      3 C8          1.4430    0.5180   -2.0710 cc        1 JMQ     -0.111300
      4 C9          1.3910    0.2410   -0.6900 cd        1 JMQ     -0.126300
      5 O6          5.8140    0.1920   -2.3170 o         1 JMQ     -0.642500
      6 C6          5.0190    0.0660   -1.3670 c         1 JMQ      0.726100
      7 N1          5.4880   -0.2390   -0.0750 n         1 JMQ     -0.486400
      8 N3          3.2970   -0.2690    0.9720 nd        1 JMQ     -0.570100
      9 C4          2.7500    0.0370   -0.2640 cd        1 JMQ      0.133400
     10 C5          3.5710    0.2020   -1.4330 cc        1 JMQ     -0.232900
     11 N7          2.7560    0.4930   -2.5160 na        1 JMQ     -0.130100
     12 N4'        -0.5020    1.3970    0.3820 n3        1 JMQ     -0.724600
     13 C1'        -1.0100    2.0470   -0.8260 c3        1 JMQ      0.122800
     14 C2'        -2.1470    2.9930   -0.3850 c3        1 JMQ      0.108100
     15 O2'        -1.6860    4.3070   -0.1450 oh        1 JMQ     -0.595800
     16 C3'        -2.6980    2.3420    0.9070 c3        1 JMQ      0.106100
     17 O3'        -3.0300    3.2550    1.9220 oh        1 JMQ     -0.585800
     18 C4'        -1.5830    1.3530    1.3740 c3        1 JMQ      0.141500
     19 C5'        -2.2120   -0.0110    1.6930 c3        1 JMQ      0.109400
     20 O5'        -2.7700   -0.5480    0.5050 oh        1 JMQ     -0.608800
     21 H11         6.4670   -0.3450    0.0620 hn        1 JMQ      0.338500
     22 H1          0.4910   -0.2540    1.1710 h1        1 JMQ      0.057200
     23 H1A        -0.5140   -0.6330   -0.3090 h1        1 JMQ      0.057200
     24 H2          5.0840   -0.6280    1.9750 h5        1 JMQ      0.052800
     25 H8          0.6170    0.7290   -2.7550 h4        1 JMQ      0.175000
     26 HN7         3.0770    0.6570   -3.4360 hn        1 JMQ      0.316700
     27 H1'        -1.4090    1.3130   -1.5800 h1        1 JMQ      0.051700
     28 H1'A       -0.1680    2.6220   -1.2960 h1        1 JMQ      0.051700
     29 H2'        -2.9400    3.1040   -1.1680 h1        1 JMQ      0.091700
     30 HO2'       -0.8340    4.2420    0.3060 ho        1 JMQ      0.411000
     31 H3'        -3.6490    1.7830    0.6910 h1        1 JMQ      0.094700
     32 HO3'       -2.3960    3.9840    1.8950 ho        1 JMQ      0.411000
     33 H4'        -1.1360    1.7280    2.3420 h1        1 JMQ      0.077700
     34 H5'        -3.0170    0.1420    2.4620 h1        1 JMQ      0.035200
     35 H5'A       -1.4430   -0.7190    2.1040 h1        1 JMQ      0.035200
     36 HO5'       -3.2240   -1.3610    0.7570 ho        1 JMQ      0.403000
@<TRIPOS>BOND
     1    1    4 1   
     2    1   12 1   
     3    1   22 1   
     4    1   23 1   
     5    2    7 1   
     6    2    8 2   
     7    2   24 1   
     8    3    4 2   
     9    3   11 1   
    10    3   25 1   
    11    4    9 1   
    12    5    6 2   
    13    6    7 1   
    14    6   10 1   
    15    7   21 1   
    16    8    9 1   
    17    9   10 2   
    18   10   11 1   
    19   11   26 1   
    20   12   13 1   
    21   12   18 1   
    22   13   14 1   
    23   13   27 1   
    24   13   28 1   
    25   14   15 1   
    26   14   16 1   
    27   14   29 1   
    28   15   30 1   
    29   16   17 1   
    30   16   18 1   
    31   16   31 1   
    32   17   32 1   
    33   18   19 1   
    34   18   33 1   
    35   19   20 1   
    36   19   34 1   
    37   19   35 1   
    38   20   36 1   
@<TRIPOS>SUBSTRUCTURE
     1 JMQ         1 TEMP              0 ****  ****    0 ROOT
