@<TRIPOS>MOLECULE
JMQ
   36    38     1     0     0
SMALL
bcc


@<TRIPOS>ATOM
      1 C1          0.1860    0.1320    0.1600 c3        1 JMQ      0.244100
      2 C2          4.6260   -0.3620    0.9600 cc        1 JMQ      0.461800
      3 C8          1.4250    0.5200   -2.0810 cc        1 JMQ     -0.111300
      4 C9          1.3880    0.2450   -0.6980 cd        1 JMQ     -0.126300
      5 O6          5.7950    0.2160   -2.3700 o         1 JMQ     -0.642500
      6 C6          5.0100    0.0870   -1.4110 c         1 JMQ      0.726100
      7 N1          5.4930   -0.2120   -0.1230 ns        1 JMQ     -0.486400
      8 N3          3.3130   -0.2520    0.9450 nd        1 JMQ     -0.570100
      9 C4          2.7520    0.0480   -0.2860 cd        1 JMQ      0.133400
     10 C5          3.5610    0.2160   -1.4630 cc        1 JMQ     -0.232900
     11 N7          2.7330    0.5010   -2.5380 na        1 JMQ     -0.130100
     12 N4'        -0.5010    1.3930    0.3900 n3        1 JMQ     -0.724600
     13 C1'        -1.0240    2.0380   -0.8140 c3        1 JMQ      0.122800
     14 C2'        -2.1610    2.9790   -0.3630 c3        1 JMQ      0.108100
     15 O2'        -1.7050    4.2960   -0.1300 oh        1 JMQ     -0.595800
     16 C3'        -2.6960    2.3280    0.9350 c3        1 JMQ      0.106100
     17 O3'        -3.0220    3.2410    1.9520 oh        1 JMQ     -0.585800
     18 C4'        -1.5710    1.3450    1.3930 c3        1 JMQ      0.141500
     19 C5'        -2.1900   -0.0210    1.7200 c3        1 JMQ      0.109400
     20 O5'        -2.7580   -0.5640    0.5380 oh        1 JMQ     -0.608800
     21 H11         6.4740   -0.3130    0.0040 hn        1 JMQ      0.338500
     22 H1          0.5090   -0.2520    1.1720 h1        1 JMQ      0.057200
     23 H1A        -0.5090   -0.6380   -0.2980 h1        1 JMQ      0.057200
     24 H2          5.1110   -0.6000    1.9310 h5        1 JMQ      0.052800
     25 H8          0.5910    0.7250   -2.7570 h4        1 JMQ      0.175000
     26 HN7         3.0440    0.6650   -3.4620 hn        1 JMQ      0.316700
     27 H1'        -1.4260    1.3010   -1.5630 h1        1 JMQ      0.051700
     28 H1'A       -0.1890    2.6170   -1.2930 h1        1 JMQ      0.051700
     29 H2'        -2.9630    3.0840   -1.1390 h1        1 JMQ      0.091700
     30 HO2'       -0.8470    4.2360    0.3120 ho        1 JMQ      0.411000
     31 H3'        -3.6460    1.7630    0.7300 h1        1 JMQ      0.094700
     32 HO3'       -2.3920    3.9730    1.9170 ho        1 JMQ      0.411000
     33 H4'        -1.1170    1.7240    2.3560 h1        1 JMQ      0.077700
     34 H5'        -2.9880    0.1290    2.4970 h1        1 JMQ      0.035200
     35 H5'A       -1.4130   -0.7240    2.1250 h1        1 JMQ      0.035200
     36 HO5'       -3.2040   -1.3780    0.7970 ho        1 JMQ      0.403000
@<TRIPOS>BOND
     1    1    4 1   
     2    1   12 1   
     3    1   22 1   
     4    1   23 1   
     5    2    7 1   
     6    2    8 2   
     7    2   24 1   
     8    3    4 2   
     9    3   11 1   
    10    3   25 1   
    11    4    9 1   
    12    5    6 2   
    13    6    7 1   
    14    6   10 1   
    15    7   21 1   
    16    8    9 1   
    17    9   10 2   
    18   10   11 1   
    19   11   26 1   
    20   12   13 1   
    21   12   18 1   
    22   13   14 1   
    23   13   27 1   
    24   13   28 1   
    25   14   15 1   
    26   14   16 1   
    27   14   29 1   
    28   15   30 1   
    29   16   17 1   
    30   16   18 1   
    31   16   31 1   
    32   17   32 1   
    33   18   19 1   
    34   18   33 1   
    35   19   20 1   
    36   19   34 1   
    37   19   35 1   
    38   20   36 1   
@<TRIPOS>SUBSTRUCTURE
     1 JMQ         1 TEMP              0 ****  ****    0 ROOT
