@<TRIPOS>MOLECULE
JMQ
   36    38     1     0     0
SMALL
bcc


@<TRIPOS>ATOM
      1 C1          0.4390   -0.9530   -0.1440 c3        1 JMQ      0.244100
      2 C2         -3.5190   -0.0220   -2.1600 cc        1 JMQ      0.461800
      3 C8         -1.2260   -0.2460    1.7090 cc        1 JMQ     -0.111300
      4 C9         -0.8710   -0.4890    0.3660 cd        1 JMQ     -0.126300
      5 O6         -5.3800    0.8220    0.7750 o         1 JMQ     -0.642500
      6 C6         -4.4250    0.4750    0.0550 c         1 JMQ      0.726100
      7 N1         -4.5800    0.3680   -1.3400 n         1 JMQ     -0.486400
      8 N3         -2.2950   -0.3270   -1.7800 nd        1 JMQ     -0.570100
      9 C4         -2.0520   -0.2420   -0.4180 cd        1 JMQ      0.133400
     10 C5         -3.0810    0.1450    0.5090 cc        1 JMQ     -0.232900
     11 N7         -2.5560    0.1350    1.7920 na        1 JMQ     -0.130100
     12 N4'         1.5010    0.0360   -0.0410 n3        1 JMQ     -0.724600
     13 C1'         1.8170    0.4590    1.3230 c3        1 JMQ      0.122800
     14 C2'         3.2600    1.0080    1.3010 c3        1 JMQ      0.108100
     15 O2'         3.2970    2.4060    1.1000 oh        1 JMQ     -0.595800
     16 C3'         3.9320    0.2500    0.1320 c3        1 JMQ      0.106100
     17 O3'         4.7930    1.0370   -0.6530 oh        1 JMQ     -0.585800
     18 C4'         2.7530   -0.3230   -0.7180 c3        1 JMQ      0.141500
     19 C5'         3.0120   -1.8070   -1.0140 c3        1 JMQ      0.109400
     20 O5'         3.0270   -2.5240    0.2090 oh        1 JMQ     -0.608800
     21 H11        -5.4660    0.5810   -1.7380 hn        1 JMQ      0.338500
     22 H1          0.7140   -1.9110    0.3960 h1        1 JMQ      0.057200
     23 H1A         0.3260   -1.1960   -1.2420 h1        1 JMQ      0.057200
     24 H2         -3.7490   -0.0750   -3.2450 h5        1 JMQ      0.052800
     25 H8         -0.6020   -0.3250    2.6030 h4        1 JMQ      0.175000
     26 HN7        -3.0590    0.3670    2.6100 hn        1 JMQ      0.316700
     27 H1'         1.0870    1.2590    1.6200 h1        1 JMQ      0.051700
     28 H1'A        1.7510   -0.3830    2.0670 h1        1 JMQ      0.051700
     29 H2'         3.7960    0.8410    2.2710 h1        1 JMQ      0.091700
     30 HO2'        2.6270    2.6260    0.4390 ho        1 JMQ      0.411000
     31 H3'         4.5740   -0.5870    0.5210 h1        1 JMQ      0.094700
     32 HO3'        4.4230    1.9280   -0.7090 ho        1 JMQ      0.411000
     33 H4'         2.7290    0.2000   -1.7190 h1        1 JMQ      0.077700
     34 H5'         2.2160   -2.2240   -1.6880 h1        1 JMQ      0.035200
     35 H5'A        4.0090   -1.8970   -1.5260 h1        1 JMQ      0.035200
     36 HO5'        3.2710   -3.4320   -0.0070 ho        1 JMQ      0.403000
@<TRIPOS>BOND
     1    1    4 1   
     2    1   12 1   
     3    1   22 1   
     4    1   23 1   
     5    2    7 1   
     6    2    8 2   
     7    2   24 1   
     8    3    4 2   
     9    3   11 1   
    10    3   25 1   
    11    4    9 1   
    12    5    6 2   
    13    6    7 1   
    14    6   10 1   
    15    7   21 1   
    16    8    9 1   
    17    9   10 2   
    18   10   11 1   
    19   11   26 1   
    20   12   13 1   
    21   12   18 1   
    22   13   14 1   
    23   13   27 1   
    24   13   28 1   
    25   14   15 1   
    26   14   16 1   
    27   14   29 1   
    28   15   30 1   
    29   16   17 1   
    30   16   18 1   
    31   16   31 1   
    32   17   32 1   
    33   18   19 1   
    34   18   33 1   
    35   19   20 1   
    36   19   34 1   
    37   19   35 1   
    38   20   36 1   
@<TRIPOS>SUBSTRUCTURE
     1 JMQ         1 TEMP              0 ****  ****    0 ROOT
