@<TRIPOS>MOLECULE
JMS
   30    31     1     0     0
SMALL
bcc


@<TRIPOS>ATOM
      1 OXT         0.5760    0.9810    0.2250 o         1 JMS     -0.493000
      2 C7          1.5610    0.2720    0.0090 c         1 JMS      0.648700
      3 OH          1.9470   -0.4640    1.0920 oh        1 JMS     -0.576100
      4 C1          2.2560    0.0980   -1.2830 ca        1 JMS     -0.192600
      5 C6          1.4590   -0.2580   -2.3790 ca        1 JMS     -0.057000
      6 C5          2.0230   -0.4990   -3.6250 ca        1 JMS     -0.160000
      7 C4          3.4040   -0.3720   -3.7900 ca        1 JMS     -0.080000
      8 C3          4.2080    0.0140   -2.7270 ca        1 JMS     -0.184000
      9 C2          3.6500    0.2700   -1.4480 ca        1 JMS      0.173600
     10 N           4.5060    0.5650   -0.3670 nh        1 JMS     -0.627000
     11 C1B         4.2850    1.6900    0.4700 ca        1 JMS      0.100600
     12 C2B         4.4710    1.5310    1.8680 ca        1 JMS      0.032400
     13 CL1         4.9800    0.0250    2.4800 cl        1 JMS     -0.076400
     14 C3B         4.2510    2.5910    2.7580 ca        1 JMS     -0.053300
     15 C7B         4.4240    2.4130    4.2190 c3        1 JMS     -0.059800
     16 C4B         3.8520    3.8330    2.2510 ca        1 JMS     -0.112000
     17 C5B         3.6960    4.0250    0.8840 ca        1 JMS     -0.107000
     18 C6B         3.9290    2.9720   -0.0040 ca        1 JMS      0.001400
     19 CL2         3.7830    3.2800   -1.6680 cl        1 JMS     -0.074400
     20 H2          0.3690   -0.3450   -2.2350 ha        1 JMS      0.154000
     21 H3          1.3870   -0.7850   -4.4750 ha        1 JMS      0.142000
     22 H4          3.8600   -0.5680   -4.7730 ha        1 JMS      0.138000
     23 H5          5.2920    0.1250   -2.8850 ha        1 JMS      0.138000
     24 H6          2.7600   -0.9520    0.8960 ho        1 JMS      0.440000
     25 H7          4.2060    3.3620    4.7680 hc        1 JMS      0.056033
     26 H8          3.7320    1.6190    4.5960 hc        1 JMS      0.056033
     27 H9          5.4740    2.1020    4.4520 hc        1 JMS      0.056033
     28 H10         3.6610    4.6670    2.9440 ha        1 JMS      0.147000
     29 H11         3.3910    5.0110    0.4970 ha        1 JMS      0.155000
     30 HN3         5.4770    0.4730   -0.6020 hn        1 JMS      0.416800
@<TRIPOS>BOND
     1    1    2 2   
     2    2    3 1   
     3    2    4 1   
     4    3   24 1   
     5    4    5 ar  
     6    4    9 ar  
     7    5    6 ar  
     8    5   20 1   
     9    6    7 ar  
    10    6   21 1   
    11    7    8 ar  
    12    7   22 1   
    13    8    9 ar  
    14    8   23 1   
    15    9   10 1   
    16   10   11 1   
    17   10   30 1   
    18   11   12 ar  
    19   11   18 ar  
    20   12   13 1   
    21   12   14 ar  
    22   14   15 1   
    23   14   16 ar  
    24   15   25 1   
    25   15   26 1   
    26   15   27 1   
    27   16   17 ar  
    28   16   28 1   
    29   17   18 ar  
    30   17   29 1   
    31   18   19 1   
@<TRIPOS>SUBSTRUCTURE
     1 JMS         1 TEMP              0 ****  ****    0 ROOT
