@<TRIPOS>MOLECULE
JMS
   29    30     1     0     0
SMALL
bcc


@<TRIPOS>ATOM
      1 OXT        -0.4340   -1.4050   -1.1960 o         1 JMS     -0.829300
      2 C7          0.6520   -1.0780   -0.6430 c         1 JMS      0.913200
      3 OH          0.8660   -1.2200    0.5990 o         1 JMS     -0.829300
      4 C1          1.7520   -0.5180   -1.5330 ca        1 JMS     -0.157600
      5 C6          1.7180   -0.8610   -2.8860 ca        1 JMS     -0.086000
      6 C5          2.6930   -0.4230   -3.7790 ca        1 JMS     -0.187000
      7 C4          3.7340    0.3790   -3.3170 ca        1 JMS     -0.128000
      8 C3          3.7980    0.7440   -1.9770 ca        1 JMS     -0.192000
      9 C2          2.8070    0.3110   -1.0650 ca        1 JMS      0.181600
     10 N           2.9080    0.6080    0.3010 nu        1 JMS     -0.646000
     11 C1B         3.4670    1.7430    0.8500 ca        1 JMS      0.234600
     12 C2B         4.1470    1.6480    2.1060 ca        1 JMS     -0.045600
     13 Cl1         4.2080    0.1410    2.9060 cl        1 JMS     -0.092400
     14 C3B         4.7630    2.7500    2.7030 ca        1 JMS     -0.046300
     15 C7B         5.4630    2.6260    4.0040 c3        1 JMS     -0.049800
     16 C4B         4.7260    3.9910    2.0570 ca        1 JMS     -0.185000
     17 C5B         4.0450    4.1300    0.8560 ca        1 JMS     -0.097000
     18 C6B         3.3990    3.0410    0.2710 ca        1 JMS     -0.053600
     19 Cl2         2.4740    3.3420   -1.1240 cl        1 JMS     -0.082400
     20 H2          0.8760   -1.4850   -3.2320 ha        1 JMS      0.153000
     21 H3          2.6420   -0.7070   -4.8380 ha        1 JMS      0.107000
     22 H4          4.5130    0.7270   -4.0100 ha        1 JMS      0.104000
     23 H5          4.6270    1.3770   -1.6280 ha        1 JMS      0.118000
     24 H6          2.3930   -0.0160    0.9140 hn        1 JMS      0.511800
     25 H7          5.8970    3.6040    4.3230 hc        1 JMS      0.042367
     26 H8          6.2910    1.8770    3.9300 hc        1 JMS      0.042367
     27 H9          4.7510    2.2800    4.7950 hc        1 JMS      0.042367
     28 H10         5.2270    4.8580    2.5080 ha        1 JMS      0.124000
     29 H11         3.9940    5.1160    0.3680 ha        1 JMS      0.132000
@<TRIPOS>BOND
     1    1    2 1   
     2    2    3 1   
     3    2    4 1   
     4    4    5 ar  
     5    4    9 ar  
     6    5    6 ar  
     7    5   20 1   
     8    6    7 ar  
     9    6   21 1   
    10    7    8 ar  
    11    7   22 1   
    12    8    9 ar  
    13    8   23 1   
    14    9   10 1   
    15   10   11 1   
    16   10   24 1   
    17   11   12 ar  
    18   11   18 ar  
    19   12   13 1   
    20   12   14 ar  
    21   14   15 1   
    22   14   16 ar  
    23   15   25 1   
    24   15   26 1   
    25   15   27 1   
    26   16   17 ar  
    27   16   28 1   
    28   17   18 ar  
    29   17   29 1   
    30   18   19 1   
@<TRIPOS>SUBSTRUCTURE
     1 JMS         1 TEMP              0 ****  ****    0 ROOT
