@<TRIPOS>MOLECULE
JMS
   29    30     1     0     0
SMALL
bcc


@<TRIPOS>ATOM
      1 OXT        -0.4340   -1.4060   -1.1930 o         1 JMS     -0.829300
      2 C7          0.6530   -1.0800   -0.6420 c         1 JMS      0.913200
      3 OH          0.8700   -1.2240    0.6000 o         1 JMS     -0.829300
      4 C1          1.7510   -0.5170   -1.5330 ca        1 JMS     -0.157600
      5 C6          1.7130   -0.8570   -2.8860 ca        1 JMS     -0.086000
      6 C5          2.6870   -0.4160   -3.7800 ca        1 JMS     -0.187000
      7 C4          3.7280    0.3850   -3.3200 ca        1 JMS     -0.128000
      8 C3          3.7950    0.7480   -1.9790 ca        1 JMS     -0.192000
      9 C2          2.8060    0.3120   -1.0660 ca        1 JMS      0.181600
     10 N           2.9110    0.6070    0.3010 nh        1 JMS     -0.646000
     11 C1B         3.4690    1.7410    0.8500 ca        1 JMS      0.234600
     12 C2B         4.1510    1.6450    2.1050 ca        1 JMS     -0.045600
     13 CL1         4.2170    0.1370    2.9020 cl        1 JMS     -0.092400
     14 C3B         4.7670    2.7470    2.7020 ca        1 JMS     -0.046300
     15 C7B         5.4700    2.6210    4.0020 c3        1 JMS     -0.049800
     16 C4B         4.7270    3.9890    2.0590 ca        1 JMS     -0.185000
     17 C5B         4.0430    4.1290    0.8600 ca        1 JMS     -0.097000
     18 C6B         3.3970    3.0400    0.2740 ca        1 JMS     -0.053600
     19 CL2         2.4700    3.3420   -1.1180 cl        1 JMS     -0.082400
     20 H2          0.8710   -1.4810   -3.2310 ha        1 JMS      0.153000
     21 H3          2.6320   -0.6980   -4.8400 ha        1 JMS      0.107000
     22 H4          4.5050    0.7350   -4.0130 ha        1 JMS      0.104000
     23 H5          4.6240    1.3810   -1.6310 ha        1 JMS      0.118000
     24 H6          2.3970   -0.0200    0.9140 hn        1 JMS      0.511800
     25 H7          6.3000    1.8740    3.9250 hc        1 JMS      0.042367
     26 H8          5.9040    3.6000    4.3220 hc        1 JMS      0.042367
     27 H9          4.7600    2.2720    4.7940 hc        1 JMS      0.042367
     28 H10         5.2270    4.8560    2.5110 ha        1 JMS      0.124000
     29 H11         3.9900    5.1160    0.3740 ha        1 JMS      0.132000
@<TRIPOS>BOND
     1    1    2 1   
     2    2    3 1   
     3    2    4 1   
     4    4    5 ar  
     5    4    9 ar  
     6    5    6 ar  
     7    5   20 1   
     8    6    7 ar  
     9    6   21 1   
    10    7    8 ar  
    11    7   22 1   
    12    8    9 ar  
    13    8   23 1   
    14    9   10 1   
    15   10   11 1   
    16   10   24 1   
    17   11   12 ar  
    18   11   18 ar  
    19   12   13 1   
    20   12   14 ar  
    21   14   15 1   
    22   14   16 ar  
    23   15   25 1   
    24   15   26 1   
    25   15   27 1   
    26   16   17 ar  
    27   16   28 1   
    28   17   18 ar  
    29   17   29 1   
    30   18   19 1   
@<TRIPOS>SUBSTRUCTURE
     1 JMS         1 TEMP              0 ****  ****    0 ROOT
