@<TRIPOS>MOLECULE
JMS
   29    30     1     0     0
SMALL
bcc


@<TRIPOS>ATOM
      1 OXT        -3.1010   -3.1220    1.6510 o         1 JMS     -0.829300
      2 C7         -2.1400   -2.6210    1.0040 c         1 JMS      0.913200
      3 OH         -0.9770   -3.1280    0.9880 o         1 JMS     -0.829300
      4 C1         -2.4210   -1.3680    0.1870 ca        1 JMS     -0.157600
      5 C6         -3.7400   -1.1480   -0.2130 ca        1 JMS     -0.086000
      6 C5         -4.0970   -0.0450   -0.9870 ca        1 JMS     -0.187000
      7 C4         -3.1180    0.8660   -1.3750 ca        1 JMS     -0.128000
      8 C3         -1.7950    0.6810   -0.9910 ca        1 JMS     -0.192000
      9 C2         -1.4240   -0.4310   -0.1980 ca        1 JMS      0.181600
     10 N          -0.0820   -0.6670    0.1270 nh        1 JMS     -0.646000
     11 C1B         0.8890    0.2910    0.3280 ca        1 JMS      0.234600
     12 C2B         2.2400    0.0060   -0.0550 ca        1 JMS     -0.045600
     13 CL1         2.6120   -1.5250   -0.7100 cl        1 JMS     -0.092400
     14 C3B         3.2660    0.9420    0.0910 ca        1 JMS     -0.046300
     15 C7B         4.6560    0.6240   -0.3150 c3        1 JMS     -0.049800
     16 C4B         2.9750    2.2040    0.6210 ca        1 JMS     -0.185000
     17 C5B         1.6850    2.5030    1.0380 ca        1 JMS     -0.097000
     18 C6B         0.6630    1.5620    0.9260 ca        1 JMS     -0.053600
     19 CL2        -0.8480    1.9710    1.5920 cl        1 JMS     -0.082400
     20 H2         -4.5010   -1.8750    0.1180 ha        1 JMS      0.153000
     21 H3         -5.1430    0.1050   -1.2870 ha        1 JMS      0.107000
     22 H4         -3.3860    1.7370   -1.9890 ha        1 JMS      0.104000
     23 H5         -1.0340    1.4090   -1.3050 ha        1 JMS      0.118000
     24 H6          0.1390   -1.6290    0.3640 hn        1 JMS      0.511800
     25 H7          4.6950    0.3680   -1.4030 hc        1 JMS      0.042367
     26 H8          5.3380    1.4900   -0.1310 hc        1 JMS      0.042367
     27 H9          5.0370   -0.2550    0.2630 hc        1 JMS      0.042367
     28 H10         3.7720    2.9540    0.7190 ha        1 JMS      0.124000
     29 H11         1.4710    3.4870    1.4830 ha        1 JMS      0.132000
@<TRIPOS>BOND
     1    1    2 1   
     2    2    3 1   
     3    2    4 1   
     4    4    5 ar  
     5    4    9 ar  
     6    5    6 ar  
     7    5   20 1   
     8    6    7 ar  
     9    6   21 1   
    10    7    8 ar  
    11    7   22 1   
    12    8    9 ar  
    13    8   23 1   
    14    9   10 1   
    15   10   11 1   
    16   10   24 1   
    17   11   12 ar  
    18   11   18 ar  
    19   12   13 1   
    20   12   14 ar  
    21   14   15 1   
    22   14   16 ar  
    23   15   25 1   
    24   15   26 1   
    25   15   27 1   
    26   16   17 ar  
    27   16   28 1   
    28   17   18 ar  
    29   17   29 1   
    30   18   19 1   
@<TRIPOS>SUBSTRUCTURE
     1 JMS         1 TEMP              0 ****  ****    0 ROOT
