@<TRIPOS>MOLECULE
JMZ
   27    29     1     0     0
SMALL
bcc


@<TRIPOS>ATOM
      1 C4          3.7670   -1.4620   -0.5690 ca        1 JMZ      0.465200
      2 C5         -0.4730    0.8200   -0.4190 ca        1 JMZ     -0.095000
      3 C6          0.2290   -0.3170   -0.0190 cp        1 JMZ     -0.123500
      4 C7         -2.5500   -0.4090    0.1150 ca        1 JMZ     -0.212900
      5 C8          1.7050   -0.3310   -0.0770 cp        1 JMZ      0.530800
      6 C10        -3.9820   -0.0490    0.0310 cc        1 JMZ      0.537800
      7 N12        -5.0140   -0.8740    0.4720 nh        1 JMZ     -0.847800
      8 C1         -0.4390   -1.4740    0.4400 ca        1 JMZ     -0.144000
      9 C2         -1.8260   -1.5280    0.5070 ca        1 JMZ     -0.067000
     10 C3          2.3620   -1.4910   -0.5480 ca        1 JMZ     -0.414600
     11 C9         -1.8700    0.7700   -0.3510 ca        1 JMZ     -0.062200
     12 C11         3.7690    0.7080    0.2440 ca        1 JMZ      0.867900
     13 N13         4.4850    1.8690    0.5520 nh        1 JMZ     -0.926500
     14 N14        -2.8700    1.6880   -0.7590 na        1 JMZ      0.008900
     15 N15         4.4930   -0.4060   -0.1800 nb        1 JMZ     -0.747000
     16 N16         2.3830    0.7690    0.3260 nb        1 JMZ     -0.749000
     17 N17        -4.1020    1.2230   -0.4510 nd        1 JMZ     -0.584100
     18 H4          4.3480   -2.3370   -0.9140 h4        1 JMZ      0.027100
     19 HN12       -4.8370   -1.8350    0.2690 hn        1 JMZ      0.394800
     20 HN1A       -5.9260   -0.5810    0.1910 hn        1 JMZ      0.394800
     21 H1          0.1550   -2.3430    0.7590 ha        1 JMZ      0.140000
     22 H2         -2.3380   -2.4310    0.8680 ha        1 JMZ      0.140000
     23 H3          1.8010   -2.3680   -0.8850 ha        1 JMZ      0.157000
     24 HN13        5.4540    1.7570    0.7390 hn        1 JMZ      0.428300
     25 HN1B        4.0080    2.5590    1.0850 hn        1 JMZ      0.428300
     26 HN14       -2.7370    2.6720   -0.6460 hn        1 JMZ      0.297700
     27 H5          0.0490    1.7200   -0.7720 ha        1 JMZ      0.159000
@<TRIPOS>BOND
     1    1   10 ar  
     2    1   15 ar  
     3    1   18 1   
     4    2    3 ar  
     5    2   11 ar  
     6    2   27 1   
     7    3    5 1   
     8    3    8 ar  
     9    4    6 1   
    10    4    9 ar  
    11    4   11 ar  
    12    5   10 ar  
    13    5   16 ar  
    14    6    7 1   
    15    6   17 2   
    16    7   19 1   
    17    7   20 1   
    18    8    9 ar  
    19    8   21 1   
    20    9   22 1   
    21   10   23 1   
    22   11   14 1   
    23   12   13 1   
    24   12   15 ar  
    25   12   16 ar  
    26   13   24 1   
    27   13   25 1   
    28   14   17 1   
    29   14   26 1   
@<TRIPOS>SUBSTRUCTURE
     1 JMZ         1 TEMP              0 ****  ****    0 ROOT
