@<TRIPOS>MOLECULE
JMZ
   27    18     1     0     0
SMALL
bcc


@<TRIPOS>ATOM
      1 C4         -3.9990   -0.4370   -0.4150 c1        1 JMZ     -0.001000
      2 C5          0.5080   -0.7890   -0.5580 c1        1 JMZ     -0.190000
      3 C6         -0.3530    0.1000    0.0630 c1        1 JMZ      0.039000
      4 C7          2.2270   -0.2740    1.0350 c1        1 JMZ     -0.073000
      5 C8         -1.6840    0.0310   -0.3200 c1        1 JMZ      0.039000
      6 C10         3.5310   -0.6460    1.3090 c1        1 JMZ      0.012000
      7 N12         4.6710   -0.4750    2.1360 n2        1 JMZ     -0.304500
      8 C1          0.0680    0.8100    1.1750 c1        1 JMZ     -0.105000
      9 C2          1.3510    0.6300    1.6660 c1        1 JMZ     -0.105000
     10 C3         -2.7590   -0.7000    0.0930 c1        1 JMZ     -0.190000
     11 C9          1.8120   -0.9720   -0.0580 c1        1 JMZ     -0.073000
     12 C11        -3.0840    1.2690   -1.7330 c1        1 JMZ      0.148000
     13 N13        -3.2510    2.2900   -2.7050 n2        1 JMZ     -0.304500
     14 N14         2.8460   -1.7720   -0.4650 n1        1 JMZ     -0.168000
     15 N15        -4.1580    0.5390   -1.3210 n2        1 JMZ     -0.221000
     16 N16        -1.8460    1.0080   -1.2260 n1        1 JMZ     -0.222000
     17 N17         3.9070   -1.5640    0.3870 n2        1 JMZ     -0.116000
     18 H4         -4.7680   -0.9590   -0.1200 ha        1 JMZ      0.164000
     19 H5          0.2120   -1.2870   -1.3440 ha        1 JMZ      0.158000
     20 HN12        4.6440    0.1120    2.8370 hn        1 JMZ      0.206500
     21 HN1A        5.4320   -0.9560    1.9720 hn        1 JMZ      0.206500
     22 H1         -0.5380    1.4360    1.6120 ha        1 JMZ      0.139500
     23 H2          1.6480    1.1300    2.4500 ha        1 JMZ      0.139500
     24 H3         -2.6430   -1.4100    0.7520 ha        1 JMZ      0.158000
     25 HN13       -4.0840    2.4810   -3.0280 hn        1 JMZ      0.206500
     26 HN1B       -2.5240    2.7480   -3.0150 hn        1 JMZ      0.206500
     27 HN14        2.8340   -2.3430   -1.1770 DU        1 JMZ      0.249000
@<TRIPOS>BOND
     1    1   15 1   
     2    1   18 1   
     3    2    3 1   
     4    2   19 1   
     5    4   11 1   
     6    5   10 1   
     7    6   17 1   
     8    7   20 1   
     9    7   21 1   
    10    8    9 1   
    11    8   22 1   
    12    9   23 1   
    13   10   24 1   
    14   12   15 1   
    15   12   16 1   
    16   13   25 1   
    17   13   26 1   
    18   14   17 1   
@<TRIPOS>SUBSTRUCTURE
     1 JMZ         1 TEMP              0 ****  ****    0 ROOT
