@<TRIPOS>MOLECULE
JMZ
   27    29     1     0     0
SMALL
bcc


@<TRIPOS>ATOM
      1 C4          0.0300    0.6810    0.1320 ca        1 JMZ      0.465200
      2 C5          4.2060    0.3620    2.5130 ca        1 JMZ     -0.095000
      3 C6          3.5320    0.0350    1.3360 cp        1 JMZ     -0.123500
      4 C7          6.3110   -0.1160    1.3110 ca        1 JMZ     -0.212900
      5 C8          2.0570    0.1070    1.2870 cp        1 JMZ      0.530800
      6 C10         7.7330   -0.0650    1.7130 cc        1 JMZ      0.537800
      7 N12         8.7840   -0.4660    0.8910 nh        1 JMZ     -0.847800
      8 C1          4.2280   -0.3600    0.1730 ca        1 JMZ     -0.144000
      9 C2          5.6150   -0.4350    0.1520 ca        1 JMZ     -0.067000
     10 C3          1.4350    0.6500    0.1400 ca        1 JMZ     -0.414600
     11 C9          5.6030    0.2850    2.4970 ca        1 JMZ     -0.062200
     12 C11        -0.0370   -0.2580    2.2500 ca        1 JMZ      0.867900
     13 N13        -0.7860   -0.6270    3.3710 nh        1 JMZ     -0.926500
     14 N14         6.5800    0.6300    3.4630 na        1 JMZ      0.008900
     15 N15        -0.7270    0.2370    1.1430 nb        1 JMZ     -0.747000
     16 N16         1.3470   -0.3540    2.3420 nb        1 JMZ     -0.749000
     17 N17         7.8220    0.3400    3.0140 nd        1 JMZ     -0.584100
     18 H4         -0.5250    1.0820   -0.7370 h4        1 JMZ      0.027100
     19 HN12        9.6900   -0.2090    1.2240 hn        1 JMZ      0.394800
     20 HN1A        8.6350   -0.2040   -0.0610 hn        1 JMZ      0.394800
     21 H1          3.6550   -0.6220   -0.7290 ha        1 JMZ      0.140000
     22 H2          6.1490   -0.7460   -0.7570 ha        1 JMZ      0.140000
     23 H3          2.0220    1.0330   -0.7010 ha        1 JMZ      0.157000
     24 HN13       -0.3320   -1.2030    4.0410 hn        1 JMZ      0.428300
     25 HN1B       -1.7530   -0.7990    3.2220 hn        1 JMZ      0.428300
     26 HN14        6.4200    0.4610    4.4350 hn        1 JMZ      0.297700
     27 H5          3.6620    0.6650    3.4190 ha        1 JMZ      0.159000
@<TRIPOS>BOND
     1    1   10 ar  
     2    1   15 ar  
     3    1   18 1   
     4    2    3 ar  
     5    2   11 ar  
     6    2   27 1   
     7    3    5 1   
     8    3    8 ar  
     9    4    6 1   
    10    4    9 ar  
    11    4   11 ar  
    12    5   10 ar  
    13    5   16 ar  
    14    6    7 1   
    15    6   17 2   
    16    7   19 1   
    17    7   20 1   
    18    8    9 ar  
    19    8   21 1   
    20    9   22 1   
    21   10   23 1   
    22   11   14 1   
    23   12   13 1   
    24   12   15 ar  
    25   12   16 ar  
    26   13   24 1   
    27   13   25 1   
    28   14   17 1   
    29   14   26 1   
@<TRIPOS>SUBSTRUCTURE
     1 JMZ         1 TEMP              0 ****  ****    0 ROOT
