@<TRIPOS>MOLECULE
JMZ
   27    29     1     0     0
SMALL
bcc


@<TRIPOS>ATOM
      1 C4          0.0290   -0.6650    0.1260 ca        1 JMZ      0.465200
      2 C5          4.2050   -0.3710    2.5100 ca        1 JMZ     -0.095000
      3 C6          3.5320   -0.0340    1.3360 cp        1 JMZ     -0.123500
      4 C7          6.3110    0.1150    1.3120 ca        1 JMZ     -0.212900
      5 C8          2.0570   -0.1030    1.2860 cp        1 JMZ      0.530800
      6 C10         7.7330    0.0590    1.7140 cc        1 JMZ      0.537800
      7 N12         8.7850    0.4660    0.8960 nv        1 JMZ     -0.847800
      8 C1          4.2280    0.3710    0.1760 ca        1 JMZ     -0.144000
      9 C2          5.6150    0.4450    0.1560 ca        1 JMZ     -0.067000
     10 C3          1.4350   -0.6360    0.1340 ca        1 JMZ     -0.414600
     11 C9          5.6030   -0.2960    2.4950 ca        1 JMZ     -0.062200
     12 C11        -0.0360    0.2550    2.2520 ca        1 JMZ      0.867900
     13 N13        -0.7850    0.6160    3.3760 nv        1 JMZ     -0.926500
     14 N14         6.5790   -0.6500    3.4580 na        1 JMZ      0.008900
     15 N15        -0.7270   -0.2290    1.1410 nb        1 JMZ     -0.747000
     16 N16         1.3470    0.3490    2.3450 nb        1 JMZ     -0.749000
     17 N17         7.8210   -0.3570    3.0110 nd        1 JMZ     -0.584100
     18 H4         -0.5260   -1.0580   -0.7460 h4        1 JMZ      0.027100
     19 HN12        8.6360    0.2140   -0.0590 hn        1 JMZ      0.394800
     20 HN1A        9.6910    0.2060    1.2270 hn        1 JMZ      0.394800
     21 H1          3.6560    0.6420   -0.7240 ha        1 JMZ      0.140000
     22 H2          6.1500    0.7630   -0.7510 ha        1 JMZ      0.140000
     23 H3          2.0210   -1.0130   -0.7100 ha        1 JMZ      0.157000
     24 HN13       -0.3310    1.1850    4.0510 hn        1 JMZ      0.428300
     25 HN1B       -1.7520    0.7900    3.2290 hn        1 JMZ      0.428300
     26 HN14        6.4190   -0.4890    4.4310 hn        1 JMZ      0.297700
     27 H5          3.6610   -0.6820    3.4130 ha        1 JMZ      0.159000
@<TRIPOS>BOND
     1    1   10 ar  
     2    1   15 ar  
     3    1   18 1   
     4    2    3 ar  
     5    2   11 ar  
     6    2   27 1   
     7    3    5 1   
     8    3    8 ar  
     9    4    6 1   
    10    4    9 ar  
    11    4   11 ar  
    12    5   10 ar  
    13    5   16 ar  
    14    6    7 1   
    15    6   17 2   
    16    7   19 1   
    17    7   20 1   
    18    8    9 ar  
    19    8   21 1   
    20    9   22 1   
    21   10   23 1   
    22   11   14 1   
    23   12   13 1   
    24   12   15 ar  
    25   12   16 ar  
    26   13   24 1   
    27   13   25 1   
    28   14   17 1   
    29   14   26 1   
@<TRIPOS>SUBSTRUCTURE
     1 JMZ         1 TEMP              0 ****  ****    0 ROOT
