@<TRIPOS>MOLECULE
JMZ
   29    31     1     0     0
SMALL
bcc


@<TRIPOS>ATOM
      1 C4          0.0190    0.6220    0.0830 ca        1 JMZ      0.476200
      2 C5          4.2060    0.4990    2.4860 ca        1 JMZ     -0.049000
      3 C6          3.5310    0.0600    1.3520 cp        1 JMZ     -0.143500
      4 C7          6.3210   -0.0730    1.3100 ca        1 JMZ     -0.149900
      5 C8          2.0580    0.1210    1.2880 cp        1 JMZ      0.517800
      6 C10         7.7180    0.0420    1.7070 cc        1 JMZ      0.290800
      7 N12         8.8640   -0.3300    0.9100 n4        1 JMZ     -0.727600
      8 C1          4.2270   -0.4460    0.2240 ca        1 JMZ     -0.086000
      9 C2          5.6090   -0.5180    0.1930 ca        1 JMZ     -0.084000
     10 C3          1.4280    0.5910    0.1110 ca        1 JMZ     -0.289600
     11 C9          5.6090    0.4350    2.4580 ca        1 JMZ     -0.062200
     12 C11        -0.0280   -0.2140    2.2210 ca        1 JMZ      0.701900
     13 N13        -0.8470   -0.6660    3.3860 n4        1 JMZ     -0.815300
     14 N14         6.5910    0.7970    3.4060 na        1 JMZ      0.062900
     15 N15        -0.7330    0.2200    1.1260 nb        1 JMZ     -0.644000
     16 N16         1.3320   -0.2840    2.3690 nb        1 JMZ     -0.666000
     17 N17         7.8100    0.5730    2.9790 nd        1 JMZ     -0.399100
     18 H4         -0.5460    0.9810   -0.8050 h4        1 JMZ      0.091100
     19 HN12        9.3970    0.5120    0.6460 hn        1 JMZ      0.478800
     20 HN1A        8.5300   -0.8050    0.0630 hn        1 JMZ      0.478800
     21 H1          3.6500   -0.8000   -0.6480 ha        1 JMZ      0.166000
     22 H2          6.1260   -0.9170   -0.6930 ha        1 JMZ      0.159000
     23 H3          2.0170    0.9310   -0.7560 ha        1 JMZ      0.199000
     24 HN13       -0.7050   -0.0170    4.1700 hn        1 JMZ      0.487800
     25 HN1B       -0.5530   -1.6110    3.6650 hn        1 JMZ      0.487800
     26 HN14        6.4420    1.1890    4.3180 hn        1 JMZ      0.374700
     27 H123        9.4790   -0.9640    1.4410 hn        1 JMZ      0.478800
     28 H133       -1.8460   -0.6780    3.1270 hn        1 JMZ      0.487800
     29 H5          3.6750    0.8850    3.3690 ha        1 JMZ      0.175000
@<TRIPOS>BOND
     1    1   10 ar  
     2    1   15 ar  
     3    1   18 1   
     4    2    3 ar  
     5    2   11 ar  
     6    2   29 1   
     7    3    5 1   
     8    3    8 ar  
     9    4    6 1   
    10    4    9 ar  
    11    4   11 ar  
    12    5   10 ar  
    13    5   16 ar  
    14    6    7 1   
    15    6   17 2   
    16    7   19 1   
    17    7   20 1   
    18    7   27 1   
    19    8    9 ar  
    20    8   21 1   
    21    9   22 1   
    22   10   23 1   
    23   11   14 1   
    24   12   13 1   
    25   12   15 ar  
    26   12   16 ar  
    27   13   24 1   
    28   13   25 1   
    29   13   28 1   
    30   14   17 1   
    31   14   26 1   
@<TRIPOS>SUBSTRUCTURE
     1 JMZ         1 TEMP              0 ****  ****    0 ROOT
