@<TRIPOS>MOLECULE
JN3
   67    70     1     0     0
SMALL
bcc


@<TRIPOS>ATOM
      1 C1         -0.0070    0.0660    0.1110 c3        1 JN3     -0.067400
      2 C2          1.4950    0.0320    0.2580 c3        1 JN3     -0.111400
      3 C3          1.8690    0.0320    1.7350 c3        1 JN3      0.143100
      4 O3          3.2790    0.0770    1.9250 oh        1 JN3     -0.603800
      5 C4          1.2920    1.2620    2.4230 c3        1 JN3     -0.082400
      6 C5         -0.2180    1.3400    2.2520 c3        1 JN3     -0.042700
      7 C6         -0.7550    2.5750    2.9610 c3        1 JN3     -0.105400
      8 C7         -0.4890    3.8850    2.2260 c3        1 JN3      0.143100
      9 O7          0.8890    4.2390    2.2520 oh        1 JN3     -0.591800
     10 C8         -0.9450    3.7990    0.7660 c3        1 JN3     -0.035700
     11 C9         -0.2960    2.5960    0.0660 c3        1 JN3     -0.046700
     12 C10        -0.6680    1.2810    0.7770 c3        1 JN3     -0.035000
     13 C11        -0.6020    2.5650   -1.4280 c3        1 JN3     -0.069400
     14 C12        -0.3690    3.8880   -2.1420 c3        1 JN3     -0.064400
     15 C13        -1.1150    5.0190   -1.4540 c3        1 JN3     -0.046000
     16 C14        -0.5940    5.0590    0.0050 c3        1 JN3     -0.066700
     17 C15        -1.0850    6.4000    0.5310 c3        1 JN3     -0.068400
     18 C16        -1.0220    7.3270   -0.6830 c3        1 JN3     -0.099400
     19 C17        -0.7670    6.4530   -1.9300 c3        1 JN3     -0.038700
     20 C18        -2.6160    4.7990   -1.5330 c3        1 JN3     -0.085100
     21 C19        -2.1730    1.0210    0.7350 c3        1 JN3     -0.089100
     22 C20        -1.5290    6.9760   -3.1430 c3        1 JN3     -0.061700
     23 C21        -1.2810    6.1310   -4.3760 c3        1 JN3     -0.083100
     24 C22        -1.1540    8.4290   -3.4380 c3        1 JN3     -0.054400
     25 C23        -2.2910    9.1810   -4.0890 c3        1 JN3     -0.196400
     26 O25        -3.3090    9.3610   -1.8940 o         1 JN3     -0.855300
     27 C24        -3.4870    9.4070   -3.1470 c         1 JN3      0.906600
     28 O26        -4.6090    9.6430   -3.6820 o         1 JN3     -0.855300
     29 H11        -0.4330   -0.8640    0.5780 hc        1 JN3      0.038700
     30 H12        -0.2810    0.0390   -0.9760 hc        1 JN3      0.038700
     31 H21         1.9020   -0.8900   -0.2350 hc        1 JN3      0.046200
     32 H22         1.9600    0.9180   -0.2460 hc        1 JN3      0.046200
     33 H3          1.4760   -0.9060    2.2230 h1        1 JN3      0.023700
     34 HO3         3.6650   -0.5490    1.3020 ho        1 JN3      0.394000
     35 H41         1.5420    1.2180    3.5140 hc        1 JN3      0.063200
     36 H42         1.7820    2.1810    2.0030 hc        1 JN3      0.063200
     37 H5         -0.6600    0.4360    2.7650 hc        1 JN3      0.033700
     38 H61        -1.8640    2.4670    3.0870 hc        1 JN3      0.039200
     39 H62        -0.3020    2.6310    3.9860 hc        1 JN3      0.039200
     40 H7         -1.0730    4.7100    2.7320 h1        1 JN3      0.035700
     41 HO7         1.1440    4.2760    3.1810 ho        1 JN3      0.389000
     42 H8         -2.0620    3.6790    0.7880 hc        1 JN3      0.056700
     43 H9          0.8210    2.7290    0.1740 hc        1 JN3      0.062700
     44 H111        0.0570    1.7960   -1.9120 hc        1 JN3      0.030700
     45 H112       -1.6640    2.2470   -1.5910 hc        1 JN3      0.030700
     46 H121       -0.7070    3.7890   -3.2060 hc        1 JN3      0.038200
     47 H122        0.7280    4.1190   -2.1580 hc        1 JN3      0.038200
     48 H14         0.5340    5.1130   -0.0340 hc        1 JN3      0.056700
     49 H151       -0.4380    6.7640    1.3650 hc        1 JN3      0.031700
     50 H152       -2.1310    6.3210    0.9180 hc        1 JN3      0.031700
     51 H161       -0.1920    8.0650   -0.5620 hc        1 JN3      0.078200
     52 H162       -1.9800    7.9080   -0.8040 hc        1 JN3      0.078200
     53 H17         0.3310    6.4730   -2.1740 hc        1 JN3      0.024700
     54 H181       -2.9210    3.8520   -1.0280 hc        1 JN3      0.037033
     55 H182       -2.9400    4.7380   -2.6000 hc        1 JN3      0.037033
     56 H183       -3.1540    5.6520   -1.0490 hc        1 JN3      0.037033
     57 H191       -2.5170    0.8910   -0.3190 hc        1 JN3      0.034367
     58 H192       -2.4180    0.0880    1.3010 hc        1 JN3      0.034367
     59 H193       -2.7460    1.8620    1.1920 hc        1 JN3      0.034367
     60 H20        -2.6320    6.9670   -2.9010 hc        1 JN3      0.088700
     61 H211       -1.8180    5.1540   -4.3090 hc        1 JN3      0.019367
     62 H212       -1.6510    6.6660   -5.2850 hc        1 JN3      0.019367
     63 H213       -0.1900    5.9260   -4.5050 hc        1 JN3      0.019367
     64 H221       -0.8950    8.9620   -2.4850 hc        1 JN3      0.025200
     65 H222       -0.2450    8.4520   -4.0970 hc        1 JN3      0.025200
     66 H231       -2.6520    8.6390   -4.9990 hc        1 JN3      0.022200
     67 H232       -1.9280   10.1890   -4.4160 hc        1 JN3      0.022200
@<TRIPOS>BOND
     1    1    2 1   
     2    1   12 1   
     3    1   29 1   
     4    1   30 1   
     5    2    3 1   
     6    2   31 1   
     7    2   32 1   
     8    3    4 1   
     9    3    5 1   
    10    3   33 1   
    11    4   34 1   
    12    5    6 1   
    13    5   35 1   
    14    5   36 1   
    15    6    7 1   
    16    6   12 1   
    17    6   37 1   
    18    7    8 1   
    19    7   38 1   
    20    7   39 1   
    21    8    9 1   
    22    8   10 1   
    23    8   40 1   
    24    9   41 1   
    25   10   11 1   
    26   10   16 1   
    27   10   42 1   
    28   11   12 1   
    29   11   13 1   
    30   11   43 1   
    31   12   21 1   
    32   13   14 1   
    33   13   44 1   
    34   13   45 1   
    35   14   15 1   
    36   14   46 1   
    37   14   47 1   
    38   15   16 1   
    39   15   19 1   
    40   15   20 1   
    41   16   17 1   
    42   16   48 1   
    43   17   18 1   
    44   17   49 1   
    45   17   50 1   
    46   18   19 1   
    47   18   51 1   
    48   18   52 1   
    49   19   22 1   
    50   19   53 1   
    51   20   54 1   
    52   20   55 1   
    53   20   56 1   
    54   21   57 1   
    55   21   58 1   
    56   21   59 1   
    57   22   23 1   
    58   22   24 1   
    59   22   60 1   
    60   23   61 1   
    61   23   62 1   
    62   23   63 1   
    63   24   25 1   
    64   24   64 1   
    65   24   65 1   
    66   25   27 1   
    67   25   66 1   
    68   25   67 1   
    69   26   27 1   
    70   27   28 1   
@<TRIPOS>SUBSTRUCTURE
     1 JN3         1 TEMP              0 ****  ****    0 ROOT
