@<TRIPOS>MOLECULE
JN3
   67    70     1     0     0
SMALL
bcc


@<TRIPOS>ATOM
      1 C1          1.1850   -6.2160    2.6160 c3        1 JN3     -0.068400
      2 C2          1.5960   -5.6600    3.9590 c3        1 JN3     -0.107400
      3 C3          0.3630   -5.2290    4.7440 c3        1 JN3      0.139100
      4 O3          0.7250   -4.7160    6.0180 oh        1 JN3     -0.605800
      5 C4         -0.4400   -4.2090    3.9480 c3        1 JN3     -0.111400
      6 C5         -0.8220   -4.7300    2.5710 c3        1 JN3     -0.040700
      7 C6         -1.6210   -3.6750    1.8220 c3        1 JN3     -0.068400
      8 C7         -0.7880   -2.5200    1.2760 c3        1 JN3      0.148100
      9 O7         -0.4480   -1.6850    2.3770 oh        1 JN3     -0.613800
     10 C8          0.4270   -3.0260    0.4940 c3        1 JN3     -0.079700
     11 C9          1.2490   -4.0280    1.3170 c3        1 JN3     -0.040700
     12 C10         0.3890   -5.2270    1.7540 c3        1 JN3     -0.037000
     13 C11         2.5210   -4.4520    0.5900 c3        1 JN3     -0.072400
     14 C12         3.3480   -3.3000    0.0410 c3        1 JN3     -0.065400
     15 C13         2.5040   -2.3780   -0.8230 c3        1 JN3     -0.041000
     16 C14         1.3380   -1.8910    0.0750 c3        1 JN3     -0.076700
     17 C15         0.7520   -0.7150   -0.6920 c3        1 JN3     -0.073400
     18 C16         1.9610   -0.0650   -1.3670 c3        1 JN3     -0.101400
     19 C17         3.1580   -1.0280   -1.2150 c3        1 JN3     -0.039700
     20 C18         2.0200   -3.1010   -2.0680 c3        1 JN3     -0.085100
     21 C19        -0.1240   -6.0210    0.5540 c3        1 JN3     -0.088100
     22 C20         4.0350   -1.0280   -2.4620 c3        1 JN3     -0.061700
     23 C21         5.2230   -1.9580   -2.3210 c3        1 JN3     -0.083100
     24 C22         4.5300    0.3830   -2.7820 c3        1 JN3     -0.055400
     25 C23         4.7060    0.5890   -4.2690 c3        1 JN3     -0.197400
     26 O25         2.3140    0.9460   -4.4420 o         1 JN3     -0.854300
     27 C24         3.3710    0.5740   -5.0350 c         1 JN3      0.906600
     28 O26         3.3960    0.1960   -6.2410 o         1 JN3     -0.854300
     29 H11         2.0930   -6.5570    2.0550 hc        1 JN3      0.039200
     30 H12         0.5460   -7.1250    2.7860 hc        1 JN3      0.039200
     31 H21         2.1530   -6.4390    4.5410 hc        1 JN3      0.045200
     32 H22         2.2850   -4.7860    3.8270 hc        1 JN3      0.045200
     33 H3         -0.2730   -6.1270    4.9890 h1        1 JN3      0.064700
     34 HO3         1.2170   -3.9000    5.8670 ho        1 JN3      0.397000
     35 H41         0.1510   -3.2600    3.8480 hc        1 JN3      0.060700
     36 H42        -1.3720   -3.9560    4.5180 hc        1 JN3      0.060700
     37 H5         -1.5000   -5.6200    2.7260 hc        1 JN3      0.034700
     38 H61        -2.1420   -4.1570    0.9540 hc        1 JN3      0.045700
     39 H62        -2.4040   -3.2550    2.5070 hc        1 JN3      0.045700
     40 H7         -1.4280   -1.9140    0.5660 h1        1 JN3      0.033700
     41 HO7         0.0580   -0.9460    2.0190 ho        1 JN3      0.407000
     42 H8          0.0260   -3.5310   -0.4280 hc        1 JN3      0.064700
     43 H9          1.5640   -3.4860    2.2570 hc        1 JN3      0.050700
     44 H111        2.2590   -5.1430   -0.2540 hc        1 JN3      0.033700
     45 H112        3.1690   -5.0260    1.3060 hc        1 JN3      0.033700
     46 H121        3.7890   -2.7150    0.8900 hc        1 JN3      0.038700
     47 H122        4.2000   -3.7180   -0.5560 hc        1 JN3      0.038700
     48 H14         1.8070   -1.4740    1.0160 hc        1 JN3      0.034700
     49 H151        0.2280   -0.0020   -0.0100 hc        1 JN3      0.031700
     50 H152        0.0110   -1.0620   -1.4540 hc        1 JN3      0.031700
     51 H161        1.7600    0.1420   -2.4560 hc        1 JN3      0.082200
     52 H162        2.1970    0.9120   -0.8770 hc        1 JN3      0.082200
     53 H17         3.7910   -0.6930   -0.3470 hc        1 JN3      0.023700
     54 H181        1.3990   -3.9930   -1.8130 hc        1 JN3      0.039033
     55 H182        1.4110   -2.4090   -2.7010 hc        1 JN3      0.039033
     56 H183        2.8920   -3.4540   -2.6710 hc        1 JN3      0.039033
     57 H191       -0.8040   -6.8390    0.8970 hc        1 JN3      0.034033
     58 H192       -0.6910   -5.3720   -0.1530 hc        1 JN3      0.034033
     59 H193        0.7280   -6.4870    0.0020 hc        1 JN3      0.034033
     60 H20         3.4050   -1.3620   -3.3380 hc        1 JN3      0.087700
     61 H211        5.7410   -1.7980   -1.3440 hc        1 JN3      0.020367
     62 H212        4.9090   -3.0270   -2.3820 hc        1 JN3      0.020367
     63 H213        5.9540   -1.7660   -3.1450 hc        1 JN3      0.020367
     64 H221        3.7920    1.1460   -2.4190 hc        1 JN3      0.025700
     65 H222        5.4990    0.5690   -2.2470 hc        1 JN3      0.025700
     66 H231        5.1870    1.5830   -4.4510 hc        1 JN3      0.022700
     67 H232        5.3750   -0.1990   -4.6980 hc        1 JN3      0.022700
@<TRIPOS>BOND
     1    1    2 1   
     2    1   12 1   
     3    1   29 1   
     4    1   30 1   
     5    2    3 1   
     6    2   31 1   
     7    2   32 1   
     8    3    4 1   
     9    3    5 1   
    10    3   33 1   
    11    4   34 1   
    12    5    6 1   
    13    5   35 1   
    14    5   36 1   
    15    6    7 1   
    16    6   12 1   
    17    6   37 1   
    18    7    8 1   
    19    7   38 1   
    20    7   39 1   
    21    8    9 1   
    22    8   10 1   
    23    8   40 1   
    24    9   41 1   
    25   10   11 1   
    26   10   16 1   
    27   10   42 1   
    28   11   12 1   
    29   11   13 1   
    30   11   43 1   
    31   12   21 1   
    32   13   14 1   
    33   13   44 1   
    34   13   45 1   
    35   14   15 1   
    36   14   46 1   
    37   14   47 1   
    38   15   16 1   
    39   15   19 1   
    40   15   20 1   
    41   16   17 1   
    42   16   48 1   
    43   17   18 1   
    44   17   49 1   
    45   17   50 1   
    46   18   19 1   
    47   18   51 1   
    48   18   52 1   
    49   19   22 1   
    50   19   53 1   
    51   20   54 1   
    52   20   55 1   
    53   20   56 1   
    54   21   57 1   
    55   21   58 1   
    56   21   59 1   
    57   22   23 1   
    58   22   24 1   
    59   22   60 1   
    60   23   61 1   
    61   23   62 1   
    62   23   63 1   
    63   24   25 1   
    64   24   64 1   
    65   24   65 1   
    66   25   27 1   
    67   25   66 1   
    68   25   67 1   
    69   26   27 1   
    70   27   28 1   
@<TRIPOS>SUBSTRUCTURE
     1 JN3         1 TEMP              0 ****  ****    0 ROOT
