@<TRIPOS>MOLECULE
JN3
   67    70     1     0     0
SMALL
bcc


@<TRIPOS>ATOM
      1 C1         -0.0170    0.0640    0.1140 c3        1 JN3     -0.067400
      2 C2          1.4860    0.0250    0.2540 c3        1 JN3     -0.111400
      3 C3          1.8670    0.0270    1.7290 c3        1 JN3      0.143100
      4 O3          3.2780    0.0680    1.9130 oh        1 JN3     -0.603800
      5 C4          1.2970    1.2600    2.4170 c3        1 JN3     -0.082400
      6 C5         -0.2130    1.3430    2.2530 c3        1 JN3     -0.042700
      7 C6         -0.7430    2.5810    2.9630 c3        1 JN3     -0.105400
      8 C7         -0.4770    3.8890    2.2240 c3        1 JN3      0.143100
      9 O7          0.9030    4.2390    2.2430 oh        1 JN3     -0.591800
     10 C8         -0.9390    3.8020    0.7670 c3        1 JN3     -0.035700
     11 C9         -0.2980    2.5950    0.0660 c3        1 JN3     -0.046700
     12 C10        -0.6710    1.2830    0.7810 c3        1 JN3     -0.035000
     13 C11        -0.6110    2.5630   -1.4260 c3        1 JN3     -0.069400
     14 C12        -0.3780    3.8830   -2.1440 c3        1 JN3     -0.064400
     15 C13        -1.1160    5.0190   -1.4550 c3        1 JN3     -0.046000
     16 C14        -0.5880    5.0590    0.0020 c3        1 JN3     -0.066700
     17 C15        -1.0720    6.4020    0.5280 c3        1 JN3     -0.068400
     18 C16        -1.0130    7.3280   -0.6880 c3        1 JN3     -0.099400
     19 C17        -0.7660    6.4510   -1.9350 c3        1 JN3     -0.038700
     20 C18        -2.6180    4.8030   -1.5260 c3        1 JN3     -0.085100
     21 C19        -2.1770    1.0280    0.7470 c3        1 JN3     -0.089100
     22 C20        -1.5320    6.9740   -3.1450 c3        1 JN3     -0.061700
     23 C21        -1.2930    6.1250   -4.3780 c3        1 JN3     -0.083100
     24 C22        -1.1540    8.4250   -3.4450 c3        1 JN3     -0.054400
     25 C23        -2.2920    9.1800   -4.0900 c3        1 JN3     -0.196400
     26 O25        -3.2970    9.3690   -1.8900 o         1 JN3     -0.855300
     27 C24        -3.4820    9.4100   -3.1430 c         1 JN3      0.906600
     28 O26        -4.6070    9.6450   -3.6710 o         1 JN3     -0.855300
     29 H11        -0.4440   -0.8630    0.5840 hc        1 JN3      0.038700
     30 H12        -0.2960    0.0370   -0.9710 hc        1 JN3      0.038700
     31 H21         1.9520    0.9100   -0.2540 hc        1 JN3      0.046200
     32 H22         1.8880   -0.8980   -0.2390 hc        1 JN3      0.046200
     33 H3          1.4730   -0.9090    2.2210 h1        1 JN3      0.023700
     34 HO3         3.6580   -0.5610    1.2890 ho        1 JN3      0.394000
     35 H41         1.7880    2.1770    1.9940 hc        1 JN3      0.063200
     36 H42         1.5520    1.2180    3.5080 hc        1 JN3      0.063200
     37 H5         -0.6560    0.4420    2.7700 hc        1 JN3      0.033700
     38 H61        -0.2850    2.6380    3.9860 hc        1 JN3      0.039200
     39 H62        -1.8520    2.4780    3.0950 hc        1 JN3      0.039200
     40 H7         -1.0560    4.7170    2.7320 h1        1 JN3      0.035700
     41 HO7         1.1620    4.2760    3.1710 ho        1 JN3      0.389000
     42 H8         -2.0570    3.6850    0.7940 hc        1 JN3      0.056700
     43 H9          0.8200    2.7250    0.1690 hc        1 JN3      0.062700
     44 H111       -1.6750    2.2480   -1.5840 hc        1 JN3      0.030700
     45 H112        0.0440    1.7900   -1.9130 hc        1 JN3      0.030700
     46 H121       -0.7210    3.7840   -3.2060 hc        1 JN3      0.038200
     47 H122        0.7200    4.1120   -2.1660 hc        1 JN3      0.038200
     48 H14         0.5400    5.1090   -0.0420 hc        1 JN3      0.056700
     49 H151       -2.1160    6.3280    0.9200 hc        1 JN3      0.031700
     50 H152       -0.4200    6.7670    1.3580 hc        1 JN3      0.031700
     51 H161       -1.9680    7.9120   -0.8050 hc        1 JN3      0.078200
     52 H162       -0.1790    8.0630   -0.5730 hc        1 JN3      0.078200
     53 H17         0.3300    6.4670   -2.1840 hc        1 JN3      0.024700
     54 H181       -3.1510    5.6580   -1.0410 hc        1 JN3      0.037033
     55 H182       -2.9470    4.7410   -2.5910 hc        1 JN3      0.037033
     56 H183       -2.9240    3.8570   -1.0180 hc        1 JN3      0.037033
     57 H191       -2.5260    0.8970   -0.3050 hc        1 JN3      0.034367
     58 H192       -2.7450    1.8710    1.2040 hc        1 JN3      0.034367
     59 H193       -2.4220    0.0970    1.3150 hc        1 JN3      0.034367
     60 H20        -2.6340    6.9680   -2.8970 hc        1 JN3      0.087700
     61 H211       -0.2040    5.9170   -4.5120 hc        1 JN3      0.019367
     62 H212       -1.8330    5.1510   -4.3070 hc        1 JN3      0.019367
     63 H213       -1.6660    6.6600   -5.2850 hc        1 JN3      0.019367
     64 H221       -0.2490    8.4440   -4.1090 hc        1 JN3      0.025200
     65 H222       -0.8890    8.9580   -2.4940 hc        1 JN3      0.025200
     66 H231       -1.9280   10.1860   -4.4210 hc        1 JN3      0.022200
     67 H232       -2.6600    8.6380   -4.9980 hc        1 JN3      0.022200
@<TRIPOS>BOND
     1    1    2 1   
     2    1   12 1   
     3    1   29 1   
     4    1   30 1   
     5    2    3 1   
     6    2   31 1   
     7    2   32 1   
     8    3    4 1   
     9    3    5 1   
    10    3   33 1   
    11    4   34 1   
    12    5    6 1   
    13    5   35 1   
    14    5   36 1   
    15    6    7 1   
    16    6   12 1   
    17    6   37 1   
    18    7    8 1   
    19    7   38 1   
    20    7   39 1   
    21    8    9 1   
    22    8   10 1   
    23    8   40 1   
    24    9   41 1   
    25   10   11 1   
    26   10   16 1   
    27   10   42 1   
    28   11   12 1   
    29   11   13 1   
    30   11   43 1   
    31   12   21 1   
    32   13   14 1   
    33   13   44 1   
    34   13   45 1   
    35   14   15 1   
    36   14   46 1   
    37   14   47 1   
    38   15   16 1   
    39   15   19 1   
    40   15   20 1   
    41   16   17 1   
    42   16   48 1   
    43   17   18 1   
    44   17   49 1   
    45   17   50 1   
    46   18   19 1   
    47   18   51 1   
    48   18   52 1   
    49   19   22 1   
    50   19   53 1   
    51   20   54 1   
    52   20   55 1   
    53   20   56 1   
    54   21   57 1   
    55   21   58 1   
    56   21   59 1   
    57   22   23 1   
    58   22   24 1   
    59   22   60 1   
    60   23   61 1   
    61   23   62 1   
    62   23   63 1   
    63   24   25 1   
    64   24   64 1   
    65   24   65 1   
    66   25   27 1   
    67   25   66 1   
    68   25   67 1   
    69   26   27 1   
    70   27   28 1   
@<TRIPOS>SUBSTRUCTURE
     1 JN3         1 TEMP              0 ****  ****    0 ROOT
