@<TRIPOS>MOLECULE
JN4
   50    52     1     0     0
SMALL
bcc


@<TRIPOS>ATOM
      1 C1          3.4570    0.4120    1.8200 c3        1 JN4      0.068000
      2 N2          3.9170   -0.7820    1.1230 n         1 JN4     -0.413800
      3 C3          2.8580   -1.7650    0.9430 c3        1 JN4      0.158300
      4 C4          1.5520   -1.1810    0.5300 cc        1 JN4     -0.255400
      5 C5          1.2680    0.1680    0.6650 cd        1 JN4      0.004700
      6 C6          2.2570    1.1290    1.1910 c3        1 JN4     -0.055100
      7 C7          4.8210   -0.5290    0.0380 c         1 JN4      0.746100
      8 O8          5.1880    0.6370   -0.2380 o         1 JN4     -0.619100
      9 N9          5.3650   -1.6190   -0.6580 n         1 JN4     -0.482100
     10 C10         6.3650   -1.4290   -1.6150 c2        1 JN4     -0.006400
     11 C11         7.0430   -2.4260   -2.2070 c2        1 JN4     -0.315000
     12 S12         0.2830   -2.0430   -0.1150 ss        1 JN4      0.167200
     13 C13        -0.7160   -0.6840   -0.2500 cc        1 JN4      0.106500
     14 C14        -0.0510    0.4780    0.2080 cd        1 JN4     -0.247600
     15 C15        -0.6610    1.7920    0.1830 c         1 JN4      0.694700
     16 O16         0.1450    2.8020    0.6630 os        1 JN4     -0.361200
     17 C17        -0.3620    4.1040    0.6640 c2        1 JN4      0.014100
     18 C18         0.4390    5.0670    1.1250 c2        1 JN4     -0.258000
     19 O19        -1.7940    2.0990   -0.2140 o         1 JN4     -0.585000
     20 N20        -2.0040   -0.7050   -0.7440 n         1 JN4     -0.435100
     21 C21        -2.6340   -1.8460   -1.2310 c         1 JN4      0.660100
     22 C22        -4.0410   -1.6800   -1.7770 c3        1 JN4     -0.099100
     23 C23        -4.9670   -1.0490   -0.8000 ca        1 JN4     -0.106300
     24 C24        -5.1040    0.3430   -0.7460 ca        1 JN4     -0.119000
     25 C25        -5.7290   -1.8500    0.0590 ca        1 JN4     -0.119000
     26 C26        -6.6140   -1.2640    0.9630 ca        1 JN4     -0.124500
     27 C27        -6.7440    0.1240    1.0150 ca        1 JN4     -0.120000
     28 C28        -5.9890    0.9260    0.1600 ca        1 JN4     -0.124500
     29 O29        -2.0470   -2.9450   -1.2400 o         1 JN4     -0.589100
     30 H1          3.1790    0.0710    2.8580 h1        1 JN4      0.071200
     31 H1A         4.3130    1.1400    1.8970 h1        1 JN4      0.071200
     32 H3          3.1570   -2.5620    0.2070 h1        1 JN4      0.061200
     33 H3A         2.7270   -2.2640    1.9500 h1        1 JN4      0.061200
     34 H6          1.7850    1.7940    1.9630 hc        1 JN4      0.083700
     35 H6A         2.6050    1.7910    0.3500 hc        1 JN4      0.083700
     36 HN9         5.2030   -2.5430   -0.3320 hn        1 JN4      0.314500
     37 H10         6.5460   -0.3630   -1.8660 h4        1 JN4      0.170000
     38 H11         7.7950   -2.2040   -2.9710 ha        1 JN4      0.122000
     39 H11A        6.8970   -3.4890   -1.9820 ha        1 JN4      0.122000
     40 H17        -1.3860    4.2310    0.2820 h4        1 JN4      0.166000
     41 H18         1.4550    4.8740    1.4900 ha        1 JN4      0.130500
     42 H18A        0.1010    6.1100    1.1520 ha        1 JN4      0.130500
     43 HN20       -2.5180    0.1580   -0.7130 hn        1 JN4      0.365500
     44 H22        -3.9840   -1.0650   -2.7160 hc        1 JN4      0.087200
     45 H22A       -4.4070   -2.7050   -2.0590 hc        1 JN4      0.087200
     46 H24        -4.5130    0.9850   -1.4190 ha        1 JN4      0.139000
     47 H25        -5.6280   -2.9450    0.0200 ha        1 JN4      0.139000
     48 H26        -7.2080   -1.8990    1.6360 ha        1 JN4      0.137500
     49 H27        -7.4420    0.5850    1.7290 ha        1 JN4      0.136000
     50 H28        -6.0870    2.0210    0.1990 ha        1 JN4      0.137500
@<TRIPOS>BOND
     1    1    2 1   
     2    1    6 1   
     3    1   30 1   
     4    1   31 1   
     5    2    3 1   
     6    2    7 1   
     7    3    4 1   
     8    3   32 1   
     9    3   33 1   
    10    4    5 2   
    11    4   12 1   
    12    5    6 1   
    13    5   14 1   
    14    6   34 1   
    15    6   35 1   
    16    7    8 2   
    17    7    9 1   
    18    9   10 1   
    19    9   36 1   
    20   10   11 2   
    21   10   37 1   
    22   11   38 1   
    23   11   39 1   
    24   12   13 1   
    25   13   14 2   
    26   13   20 1   
    27   14   15 1   
    28   15   16 1   
    29   15   19 2   
    30   16   17 1   
    31   17   18 2   
    32   17   40 1   
    33   18   41 1   
    34   18   42 1   
    35   20   21 1   
    36   20   43 1   
    37   21   22 1   
    38   21   29 2   
    39   22   23 1   
    40   22   44 1   
    41   22   45 1   
    42   23   24 ar  
    43   23   25 ar  
    44   24   28 ar  
    45   24   46 1   
    46   25   26 ar  
    47   25   47 1   
    48   26   27 ar  
    49   26   48 1   
    50   27   28 ar  
    51   27   49 1   
    52   28   50 1   
@<TRIPOS>SUBSTRUCTURE
     1 JN4         1 TEMP              0 ****  ****    0 ROOT
