@<TRIPOS>MOLECULE
JN4
   51    53     1     0     0
SMALL
bcc


@<TRIPOS>ATOM
      1 C1          0.0240    0.5640    0.6340 c3        1 JN4      0.056000
      2 N2          1.2720    0.2120   -0.0640 n         1 JN4     -0.350800
      3 C3          2.3840    0.0260    0.8690 c3        1 JN4      0.148300
      4 C4          2.0490   -0.9250    1.9540 cc        1 JN4     -0.343400
      5 C5          0.7330   -1.1080    2.3620 cd        1 JN4      0.012700
      6 C6         -0.4110   -0.4430    1.7040 c3        1 JN4     -0.062100
      7 C7          1.1040   -0.6000   -1.1740 c         1 JN4      0.628100
      8 O8          0.1650   -0.6030   -1.9750 o         1 JN4     -0.480100
      9 N9          2.2440   -1.5450   -1.6210 ny        1 JN4     -0.559600
     10 C10         3.3380   -0.8090   -2.2360 c2        1 JN4     -0.122000
     11 C11         4.6220   -0.9500   -1.8960 c2        1 JN4     -0.125000
     12 S12         3.1340   -1.7870    2.8760 ss        1 JN4      0.191200
     13 C13         1.9220   -2.4720    3.8460 cc        1 JN4      0.135500
     14 C14         0.6400   -2.0190    3.4530 cd        1 JN4     -0.246600
     15 C15        -0.5790   -2.4580    4.1100 c         1 JN4      0.687700
     16 O16        -1.7280   -1.9110    3.5880 os        1 JN4     -0.376200
     17 C17        -2.9500   -2.2650    4.1760 c2        1 JN4      0.006100
     18 C18        -4.0530   -1.7470    3.6340 c2        1 JN4     -0.242000
     19 O19        -0.6770   -3.2550    5.0510 o         1 JN4     -0.553000
     20 N20         2.1850   -3.3500    4.8690 ns        1 JN4     -0.429100
     21 C21         3.4900   -3.7650    5.1550 c         1 JN4      0.664100
     22 C22         3.7020   -4.7320    6.2990 c3        1 JN4     -0.089100
     23 C23         2.9550   -4.3560    7.5270 ca        1 JN4     -0.124300
     24 C24         1.6490   -4.8180    7.7320 ca        1 JN4     -0.119500
     25 C25         3.5670   -3.5620    8.5040 ca        1 JN4     -0.119500
     26 C26         2.8780   -3.2310    9.6700 ca        1 JN4     -0.120500
     27 C27         1.5760   -3.6900    9.8680 ca        1 JN4     -0.110000
     28 C28         0.9630   -4.4840    8.8980 ca        1 JN4     -0.120500
     29 O29         4.4180   -3.3440    4.4350 o         1 JN4     -0.593100
     30 H1          0.2280    1.5650    1.1110 h1        1 JN4      0.100200
     31 H1A        -0.8000    0.6910   -0.1240 h1        1 JN4      0.100200
     32 H3          2.5710    1.0550    1.3090 h1        1 JN4      0.078700
     33 H3A         3.3250   -0.2690    0.3280 h1        1 JN4      0.078700
     34 H6         -1.0840   -1.2260    1.2570 hc        1 JN4      0.099200
     35 H6A        -1.0280    0.1010    2.4740 hc        1 JN4      0.099200
     36 HN9         1.8360   -2.1750   -2.3300 hn        1 JN4      0.463800
     37 H10         2.9820   -0.1210   -3.0310 hx        1 JN4      0.208000
     38 H11         4.9980   -1.6250   -1.1120 ha        1 JN4      0.167500
     39 H11A        5.3970   -0.3650   -2.4220 ha        1 JN4      0.167500
     40 H17        -2.8950   -2.9420    5.0410 h4        1 JN4      0.176000
     41 H18        -4.0380   -1.0750    2.7680 ha        1 JN4      0.136000
     42 H18A       -5.0420   -1.9800    4.0500 ha        1 JN4      0.136000
     43 HN20        1.4210   -3.6420    5.4560 hn        1 JN4      0.379500
     44 H22         3.3900   -5.7540    5.9460 hc        1 JN4      0.096700
     45 H22A        4.8080   -4.7630    6.5040 hc        1 JN4      0.096700
     46 H24         1.1630   -5.4560    6.9770 ha        1 JN4      0.136500
     47 H25         4.5980   -3.2050    8.3560 ha        1 JN4      0.136500
     48 H26         3.3660   -2.6090   10.4360 ha        1 JN4      0.144500
     49 H27         1.0340   -3.4300   10.7900 ha        1 JN4      0.145000
     50 H28        -0.0630   -4.8520    9.0540 ha        1 JN4      0.144500
     51 H92         2.5680   -2.1030   -0.8250 hn        1 JN4      0.463800
@<TRIPOS>BOND
     1    1    2 1   
     2    1    6 1   
     3    1   30 1   
     4    1   31 1   
     5    2    3 1   
     6    2    7 1   
     7    3    4 1   
     8    3   32 1   
     9    3   33 1   
    10    4    5 2   
    11    4   12 1   
    12    5    6 1   
    13    5   14 1   
    14    6   34 1   
    15    6   35 1   
    16    7    8 2   
    17    7    9 1   
    18    9   10 1   
    19    9   36 1   
    20    9   51 1   
    21   10   11 2   
    22   10   37 1   
    23   11   38 1   
    24   11   39 1   
    25   12   13 1   
    26   13   14 2   
    27   13   20 1   
    28   14   15 1   
    29   15   16 1   
    30   15   19 2   
    31   16   17 1   
    32   17   18 2   
    33   17   40 1   
    34   18   41 1   
    35   18   42 1   
    36   20   21 1   
    37   20   43 1   
    38   21   22 1   
    39   21   29 2   
    40   22   23 1   
    41   22   44 1   
    42   22   45 1   
    43   23   24 ar  
    44   23   25 ar  
    45   24   28 ar  
    46   24   46 1   
    47   25   26 ar  
    48   25   47 1   
    49   26   27 ar  
    50   26   48 1   
    51   27   28 ar  
    52   27   49 1   
    53   28   50 1   
@<TRIPOS>SUBSTRUCTURE
     1 JN4         1 TEMP              0 ****  ****    0 ROOT
