@<TRIPOS>MOLECULE
JN4
   51    53     1     0     0
SMALL
bcc


@<TRIPOS>ATOM
      1 C1          0.0410    0.3950    0.4740 c3        1 JN4      0.056000
      2 N2          1.3110    0.0340   -0.1760 n         1 JN4     -0.350800
      3 C3          2.4040   -0.0840    0.7900 c3        1 JN4      0.148300
      4 C4          2.0610   -0.9870    1.9130 cc        1 JN4     -0.343400
      5 C5          0.7390   -1.1760    2.2990 cd        1 JN4      0.012700
      6 C6         -0.4010   -0.5670    1.5830 c3        1 JN4     -0.062100
      7 C7          1.1850   -0.8340   -1.2480 c         1 JN4      0.628100
      8 O8          0.2670   -0.8950   -2.0690 o         1 JN4     -0.480100
      9 N9          2.3540   -1.7760   -1.6230 n4        1 JN4     -0.559600
     10 C10         3.4480   -1.0480   -2.2480 c2        1 JN4     -0.122000
     11 C11         4.7260   -1.1460   -1.8720 c2        1 JN4     -0.125000
     12 S12         3.1390   -1.7810    2.9010 ss        1 JN4      0.191200
     13 C13         1.9170   -2.4410    3.8760 cc        1 JN4      0.135500
     14 C14         0.6370   -2.0340    3.4320 cd        1 JN4     -0.246600
     15 C15        -0.5890   -2.4640    4.0810 c         1 JN4      0.687700
     16 O16        -1.7350   -1.9660    3.5050 os        1 JN4     -0.376200
     17 C17        -2.9650   -2.3160    4.0820 c2        1 JN4      0.006100
     18 C18        -4.0640   -1.8460    3.4890 c2        1 JN4     -0.242000
     19 O19        -0.6950   -3.2150    5.0580 o         1 JN4     -0.553000
     20 N20         2.1710   -3.2620    4.9470 n         1 JN4     -0.429100
     21 C21         3.4770   -3.6370    5.2850 c         1 JN4      0.664100
     22 C22         3.6790   -4.5410    6.4790 c3        1 JN4     -0.089100
     23 C23         2.8980   -4.1170    7.6710 ca        1 JN4     -0.124300
     24 C24         1.5950   -4.5910    7.8700 ca        1 JN4     -0.119500
     25 C25         3.4750   -3.2650    8.6190 ca        1 JN4     -0.119500
     26 C26         2.7540   -2.8880    9.7520 ca        1 JN4     -0.120500
     27 C27         1.4560   -3.3590    9.9440 ca        1 JN4     -0.110000
     28 C28         0.8780   -4.2120    9.0030 ca        1 JN4     -0.120500
     29 O29         4.4140   -3.2340    4.5650 o         1 JN4     -0.593100
     30 H1          0.2150    1.4220    0.9060 h1        1 JN4      0.100200
     31 H1A        -0.7660    0.4690   -0.3080 h1        1 JN4      0.100200
     32 H3          2.5610    0.9690    1.1830 h1        1 JN4      0.078700
     33 H3A         3.3630   -0.3880    0.2860 h1        1 JN4      0.078700
     34 H6         -1.0470    0.0010    2.3100 hc        1 JN4      0.099200
     35 H6A        -1.0480   -1.3840    1.1590 hc        1 JN4      0.099200
     36 HN9         2.6700   -2.2890   -0.7940 hn        1 JN4      0.463800
     37 H10         3.0980   -0.4070   -3.0840 hx        1 JN4      0.208000
     38 H11         5.0960   -1.7750   -1.0480 ha        1 JN4      0.167500
     39 H11A        5.5020   -0.5720   -2.4080 ha        1 JN4      0.167500
     40 H17        -2.9180   -2.9480    4.9810 h4        1 JN4      0.176000
     41 H18        -4.0400   -1.2180    2.5920 ha        1 JN4      0.136000
     42 H18A       -5.0570   -2.0780    3.8930 ha        1 JN4      0.136000
     43 HN20        1.3990   -3.5390    5.5300 hn        1 JN4      0.379500
     44 H22         3.3920   -5.5850    6.1720 hc        1 JN4      0.096700
     45 H22A        4.7800   -4.5420    6.7100 hc        1 JN4      0.096700
     46 H24         1.1370   -5.2740    7.1380 ha        1 JN4      0.136500
     47 H25         4.5030   -2.8970    8.4760 ha        1 JN4      0.136500
     48 H26         3.2140   -2.2200   10.4960 ha        1 JN4      0.144500
     49 H27         0.8890   -3.0620   10.8400 ha        1 JN4      0.145000
     50 H28        -0.1450   -4.5880    9.1540 ha        1 JN4      0.144500
     51 H92         1.9760   -2.4470   -2.3100 hn        1 JN4      0.463800
@<TRIPOS>BOND
     1    1    2 1   
     2    1    6 1   
     3    1   30 1   
     4    1   31 1   
     5    2    3 1   
     6    2    7 1   
     7    3    4 1   
     8    3   32 1   
     9    3   33 1   
    10    4    5 2   
    11    4   12 1   
    12    5    6 1   
    13    5   14 1   
    14    6   34 1   
    15    6   35 1   
    16    7    8 2   
    17    7    9 1   
    18    9   10 1   
    19    9   36 1   
    20    9   51 1   
    21   10   11 2   
    22   10   37 1   
    23   11   38 1   
    24   11   39 1   
    25   12   13 1   
    26   13   14 2   
    27   13   20 1   
    28   14   15 1   
    29   15   16 1   
    30   15   19 2   
    31   16   17 1   
    32   17   18 2   
    33   17   40 1   
    34   18   41 1   
    35   18   42 1   
    36   20   21 1   
    37   20   43 1   
    38   21   22 1   
    39   21   29 2   
    40   22   23 1   
    41   22   44 1   
    42   22   45 1   
    43   23   24 ar  
    44   23   25 ar  
    45   24   28 ar  
    46   24   46 1   
    47   25   26 ar  
    48   25   47 1   
    49   26   27 ar  
    50   26   48 1   
    51   27   28 ar  
    52   27   49 1   
    53   28   50 1   
@<TRIPOS>SUBSTRUCTURE
     1 JN4         1 TEMP              0 ****  ****    0 ROOT
