@<TRIPOS>MOLECULE
JN4
   50    45     1     0     0
SMALL
bcc


@<TRIPOS>ATOM
      1 C1         -1.0960   -1.6490   -3.7410 c3        1 JN4     -0.048000
      2 N2          0.3100   -1.6400   -3.7350 n         1 JN4     -0.272000
      3 C3          0.9560   -1.5650   -2.5220 c3        1 JN4      0.035000
      4 C4          0.2760   -0.6640   -1.4350 c2        1 JN4     -0.518000
      5 C5         -1.0760   -0.1060   -1.7490 c1        1 JN4      0.012000
      6 C6         -1.7550   -0.5910   -3.0280 c2        1 JN4     -0.141000
      7 C7          1.0430   -1.7080   -4.9470 c2        1 JN4      0.373000
      8 O8          0.4560   -1.7750   -6.0090 o         1 JN4     -0.380000
      9 N9          2.4600   -1.7590   -4.9170 n         1 JN4     -0.326000
     10 C10         3.2100   -1.2980   -6.0290 c2        1 JN4     -0.009000
     11 C11         3.9530   -2.1640   -6.7480 c1        1 JN4     -0.315000
     12 S12         0.6840   -0.1550   -0.0300 ss        1 JN4      0.707000
     13 C13        -0.4910    0.7480    0.5090 c1        1 JN4     -0.156000
     14 C14        -1.5480    0.7800   -0.5190 c1        1 JN4     -0.227000
     15 C15        -2.8520    1.5450   -0.4270 c1        1 JN4      0.395000
     16 O16        -4.0280    0.8820   -0.0420 os        1 JN4     -0.227000
     17 C17        -5.1640    1.7100   -0.0120 c2        1 JN4     -0.030000
     18 C18        -6.3910    1.1730   -0.1460 c1        1 JN4     -0.258000
     19 O19        -2.8860    2.7240   -0.7170 o         1 JN4     -0.396000
     20 N20        -0.4990    1.4630    1.7350 n2        1 JN4     -0.289000
     21 C21         0.4620    1.1640    2.7360 c2        1 JN4      0.304000
     22 C22         0.5020    1.9770    4.0110 c3        1 JN4     -0.135000
     23 C23         1.2120    1.1890    5.0890 c2        1 JN4     -0.099000
     24 C24         0.4830    0.3860    5.9520 c2        1 JN4     -0.124000
     25 C25         2.5780    1.3420    5.2720 c1        1 JN4     -0.114000
     26 C26         3.2140    0.6910    6.3180 c1        1 JN4     -0.124000
     27 C27         2.4850   -0.1130    7.1800 c1        1 JN4     -0.124000
     28 C28         1.1190   -0.2650    6.9970 c1        1 JN4     -0.121000
     29 O29         1.2900    0.2970    2.5430 o         1 JN4     -0.350000
     30 H1         -1.3930   -1.6140   -4.6750 h1        1 JN4      0.110500
     31 H1A        -1.3940   -2.5020   -3.3580 h1        1 JN4      0.110500
     32 H3          0.9880   -2.4740   -2.1590 h1        1 JN4      0.100500
     33 H3A         1.8420   -1.1840   -2.6950 h1        1 JN4      0.100500
     34 H6         -1.8420    0.1740   -3.6330 ha        1 JN4      0.123000
     35 H6A        -2.6550   -0.8980   -2.7940 ha        1 JN4      0.123000
     36 HN9         2.8870   -2.1150   -4.1940 hn        1 JN4      0.228000
     37 H10         3.1890   -0.3530   -6.2750 h4        1 JN4      0.170000
     38 H11         3.9740   -3.1100   -6.5020 DU        1 JN4      0.122000
     39 H11A        4.4700   -1.8460   -7.5150 ha        1 JN4      0.130000
     40 H17        -5.0630    2.6730    0.1060 h4        1 JN4      0.166000
     41 H18        -6.4930    0.2080   -0.2650 DU        1 JN4      0.122000
     42 H18A       -7.1810    1.7490   -0.1260 ha        1 JN4      0.131000
     43 HN20       -1.1340    2.0990    1.8880 hn        1 JN4      0.279000
     44 H22         0.9820    2.8140    3.8490 hc        1 JN4      0.126500
     45 H22A       -0.4110    2.1760    4.3000 hc        1 JN4      0.126500
     46 H24        -0.4790    0.2780    5.8240 ha        1 JN4      0.140000
     47 H25         3.0910    1.9080    4.6650 ha        1 JN4      0.138000
     48 H26         4.1750    0.7980    6.4460 ha        1 JN4      0.136000
     49 H27         2.9330   -0.5710    7.9160 ha        1 JN4      0.136000
     50 H28         0.6060   -0.8310    7.6040 ha        1 JN4      0.139000
@<TRIPOS>BOND
     1    1    2 1   
     2    1    6 1   
     3    1   30 1   
     4    1   31 1   
     5    2    3 1   
     6    2    7 1   
     7    3    4 1   
     8    3   32 1   
     9    3   33 1   
    10    4    5 1   
    11    4   12 1   
    12    5   14 1   
    13    6   34 1   
    14    6   35 1   
    15    7    8 1   
    16    7    9 1   
    17    9   10 1   
    18    9   36 1   
    19   10   11 1   
    20   10   37 1   
    21   11   39 1   
    22   12   13 1   
    23   13   14 1   
    24   15   16 1   
    25   15   19 1   
    26   16   17 1   
    27   17   18 1   
    28   17   40 1   
    29   18   42 1   
    30   20   21 1   
    31   20   43 1   
    32   21   22 1   
    33   21   29 1   
    34   22   23 1   
    35   22   44 1   
    36   22   45 1   
    37   23   24 1   
    38   23   25 1   
    39   24   28 1   
    40   24   46 1   
    41   25   47 1   
    42   26   27 1   
    43   26   48 1   
    44   27   49 1   
    45   28   50 1   
@<TRIPOS>SUBSTRUCTURE
     1 JN4         1 TEMP              0 ****  ****    0 ROOT
