@<TRIPOS>MOLECULE
JN4
   52    54     1     0     0
SMALL
bcc


@<TRIPOS>ATOM
      1 C1          0.1870    0.0990    0.5310 c3        1 JN4      0.069000
      2 N2          1.5330   -0.0780   -0.0240 n         1 JN4     -0.402800
      3 C3          2.5850   -0.1550    0.9760 c3        1 JN4      0.162300
      4 C4          2.2090   -0.9660    2.1730 cc        1 JN4     -0.221400
      5 C5          0.8840   -1.3260    2.4400 cd        1 JN4     -0.012300
      6 C6         -0.2300   -0.9700    1.5400 c3        1 JN4     -0.063100
      7 C7          1.6050   -0.6860   -1.2670 c         1 JN4      0.631100
      8 O8          0.6630   -1.0690   -1.9660 o         1 JN4     -0.463100
      9 N9          2.9520   -0.7790   -1.9960 n4        1 JN4     -0.539600
     10 C10         3.5190    0.5380   -2.2630 c2        1 JN4     -0.152000
     11 C11         3.6420    1.0580   -3.4890 c2        1 JN4     -0.077000
     12 S12         3.2490   -1.4830    3.3410 ss        1 JN4      0.307200
     13 C13         2.0490   -2.2050    4.2600 cc        1 JN4     -0.078500
     14 C14         0.7810   -2.0570    3.6540 cd        1 JN4     -0.106600
     15 C15        -0.4540   -2.5900    4.2410 c         1 JN4      0.675700
     16 O16        -1.5630   -2.4320    3.4770 os        1 JN4     -0.346200
     17 C17        -2.7920   -2.9010    4.0010 c2        1 JN4     -0.022900
     18 C18        -3.7590   -3.1480    3.1170 c2        1 JN4     -0.185000
     19 O19        -0.5290   -3.1510    5.3440 o         1 JN4     -0.567000
     20 N20         2.2680   -2.8920    5.5050 n4        1 JN4     -0.533200
     21 C21         2.7870   -4.3330    5.3660 c         1 JN4      0.566100
     22 C22         2.3720   -5.2530    6.4820 c3        1 JN4     -0.088100
     23 C23         2.2440   -4.5790    7.7980 ca        1 JN4     -0.189300
     24 C24         1.0090   -4.0480    8.1990 ca        1 JN4     -0.124500
     25 C25         3.3320   -4.5500    8.6790 ca        1 JN4     -0.124500
     26 C26         3.1890   -3.9830    9.9450 ca        1 JN4     -0.115000
     27 C27         1.9610   -3.4500   10.3400 ca        1 JN4     -0.084000
     28 C28         0.8720   -3.4840    9.4650 ca        1 JN4     -0.115000
     29 O29         3.4640   -4.5760    4.3850 o         1 JN4     -0.420100
     30 H1          0.2060    1.1110    1.0330 h1        1 JN4      0.108700
     31 H1A        -0.5670    0.1320   -0.3080 h1        1 JN4      0.108700
     32 H3          3.5440   -0.5520    0.5420 h1        1 JN4      0.083200
     33 H3A         2.7720    0.9140    1.3100 h1        1 JN4      0.083200
     34 H6         -0.5940   -1.8970    1.0160 hc        1 JN4      0.112200
     35 H6A        -1.1040   -0.5750    2.1330 hc        1 JN4      0.112200
     36 HN9         3.6220   -1.3320   -1.4530 hn        1 JN4      0.467300
     37 H10         3.8280    1.0640   -1.3390 hx        1 JN4      0.191000
     38 H11         3.3300    0.5620   -4.4240 ha        1 JN4      0.180000
     39 H11A        4.0900    2.0610   -3.6190 ha        1 JN4      0.180000
     40 H17        -2.8360   -2.9880    5.0950 h4        1 JN4      0.182000
     41 H18        -3.6280   -3.0490    2.0320 ha        1 JN4      0.152500
     42 H18A       -4.7580   -3.4580    3.4580 ha        1 JN4      0.152500
     43 HN20        1.3660   -2.9410    6.0330 hn        1 JN4      0.489300
     44 H22         3.1420   -6.0770    6.5260 hc        1 JN4      0.134200
     45 H22A        1.3890   -5.7190    6.1740 hc        1 JN4      0.134200
     46 H24         0.1330   -4.1080    7.5300 ha        1 JN4      0.149000
     47 H25         4.2950   -4.9970    8.3870 ha        1 JN4      0.149000
     48 H26         4.0440   -3.9730   10.6410 ha        1 JN4      0.163000
     49 H27         1.8450   -3.0160   11.3470 ha        1 JN4      0.166000
     50 H28        -0.1030   -3.0820    9.7840 ha        1 JN4      0.163000
     51 H92         2.7610   -1.2760   -2.8840 hn        1 JN4      0.467300
     52 H202        2.9380   -2.3660    6.0810 hn        1 JN4      0.489300
@<TRIPOS>BOND
     1    1    2 1   
     2    1    6 1   
     3    1   30 1   
     4    1   31 1   
     5    2    3 1   
     6    2    7 1   
     7    3    4 1   
     8    3   32 1   
     9    3   33 1   
    10    4    5 2   
    11    4   12 1   
    12    5    6 1   
    13    5   14 1   
    14    6   34 1   
    15    6   35 1   
    16    7    8 2   
    17    7    9 1   
    18    9   10 1   
    19    9   36 1   
    20    9   51 1   
    21   10   11 2   
    22   10   37 1   
    23   11   38 1   
    24   11   39 1   
    25   12   13 1   
    26   13   14 2   
    27   13   20 1   
    28   14   15 1   
    29   15   16 1   
    30   15   19 2   
    31   16   17 1   
    32   17   18 2   
    33   17   40 1   
    34   18   41 1   
    35   18   42 1   
    36   20   21 1   
    37   20   43 1   
    38   20   52 1   
    39   21   22 1   
    40   21   29 2   
    41   22   23 1   
    42   22   44 1   
    43   22   45 1   
    44   23   24 ar  
    45   23   25 ar  
    46   24   28 ar  
    47   24   46 1   
    48   25   26 ar  
    49   25   47 1   
    50   26   27 ar  
    51   26   48 1   
    52   27   28 ar  
    53   27   49 1   
    54   28   50 1   
@<TRIPOS>SUBSTRUCTURE
     1 JN4         1 TEMP              0 ****  ****    0 ROOT
