@<TRIPOS>MOLECULE
JN5
   44    47     1     0     0
SMALL
bcc


@<TRIPOS>ATOM
      1 C1W         0.5410   -0.0450    1.4320 ca        1 JN5     -0.072000
      2 C1X         1.3670   -0.1670    2.5490 ca        1 JN5     -0.233300
      3 C1Y         0.7840   -0.5040    3.7860 ca        1 JN5      0.424200
      4 N1Z        -0.5360   -0.7190    3.9460 nb        1 JN5     -0.644000
      5 C2A        -1.3220   -0.6020    2.8610 ca        1 JN5      0.409200
      6 C1V        -0.8360   -0.2610    1.5800 ca        1 JN5     -0.249600
      7 C1U        -1.7620   -0.1710    0.4250 c3        1 JN5     -0.043100
      8 C1T        -2.5330    1.1470    0.5100 c3        1 JN5      0.106800
      9 N1S        -3.5380    1.2820   -0.5930 n4        1 JN5     -0.738700
     10 C2         -4.2740    2.5780   -0.4780 ca        1 JN5      0.693900
     11 N3         -5.4220    2.5550    0.2700 nb        1 JN5     -0.666000
     12 N1         -3.7190    3.6520   -1.1270 nb        1 JN5     -0.660000
     13 C6         -4.4020    4.8080   -1.0060 ca        1 JN5      0.454200
     14 C5         -5.5960    4.9100   -0.2660 ca        1 JN5     -0.254600
     15 C4         -6.0790    3.7390    0.3640 ca        1 JN5      0.478600
     16 C1J        -7.3800    3.7800    1.1490 c3        1 JN5     -0.044200
     17 C1K        -7.3770    4.9370    2.0300 c1        1 JN5      0.177700
     18 N1L        -7.3880    5.8500    2.7480 n1        1 JN5     -0.286800
     19 C1I        -8.5460    3.8240    0.2090 cc        1 JN5      0.283200
     20 N1G        -8.5460    4.4970   -0.9370 nd        1 JN5     -0.521100
     21 C1E        -9.7880    4.3450   -1.5620 ca        1 JN5      0.073400
     22 C1C       -10.1720    4.9170   -2.7940 ca        1 JN5     -0.069000
     23 C1A       -11.4460    4.6720   -3.2740 ca        1 JN5     -0.119000
     24 C1B       -12.3540    3.8690   -2.5580 ca        1 JN5     -0.096000
     25 C1D       -12.0000    3.2980   -1.3470 ca        1 JN5     -0.089000
     26 C1F       -10.7200    3.5260   -0.8340 ca        1 JN5     -0.089100
     27 S1H       -10.0030    2.9860    0.5930 ss        1 JN5      0.058900
     28 H1W         0.9670    0.2090    0.4500 ha        1 JN5      0.143000
     29 H1X         2.4530   -0.0100    2.4700 ha        1 JN5      0.164000
     30 H1Y         1.4030   -0.6120    4.6970 h4        1 JN5      0.045100
     31 H2A        -2.3960   -0.8010    3.0260 h4        1 JN5      0.020100
     32 H1U        -2.4730   -1.0410    0.4460 hc        1 JN5      0.071700
     33 H1UA       -1.1850   -0.2220   -0.5380 hc        1 JN5      0.071700
     34 H1T        -1.8220    2.0200    0.4390 hx        1 JN5      0.118700
     35 H1TA       -3.0860    1.2080    1.4920 hx        1 JN5      0.118700
     36 HN1S       -4.2110    0.5060   -0.5460 hn        1 JN5      0.471300
     37 H6         -3.9640    5.6810   -1.5330 h4        1 JN5      0.076100
     38 H5         -6.1480    5.8620   -0.1950 ha        1 JN5      0.211000
     39 H1J        -7.4780    2.8520    1.7950 hc        1 JN5      0.123700
     40 H1C        -9.4660    5.5500   -3.3520 ha        1 JN5      0.155000
     41 H1A       -11.7630    5.1140   -4.2320 ha        1 JN5      0.151000
     42 H1B       -13.3610    3.6980   -2.9710 ha        1 JN5      0.152000
     43 H1D       -12.7170    2.6750   -0.7900 ha        1 JN5      0.152000
     44 H1S2       -3.0580    1.2500   -1.5040 hn        1 JN5      0.471300
@<TRIPOS>BOND
     1    1    2 ar  
     2    1    6 ar  
     3    1   28 1   
     4    2    3 ar  
     5    2   29 1   
     6    3    4 ar  
     7    3   30 1   
     8    4    5 ar  
     9    5    6 ar  
    10    5   31 1   
    11    6    7 1   
    12    7    8 1   
    13    7   32 1   
    14    7   33 1   
    15    8    9 1   
    16    8   34 1   
    17    8   35 1   
    18    9   10 1   
    19    9   36 1   
    20    9   44 1   
    21   10   11 ar  
    22   10   12 ar  
    23   11   15 ar  
    24   12   13 ar  
    25   13   14 ar  
    26   13   37 1   
    27   14   15 ar  
    28   14   38 1   
    29   15   16 1   
    30   16   17 1   
    31   16   19 1   
    32   16   39 1   
    33   17   18 3   
    34   19   20 2   
    35   19   27 1   
    36   20   21 1   
    37   21   22 ar  
    38   21   26 ar  
    39   22   23 ar  
    40   22   40 1   
    41   23   24 ar  
    42   23   41 1   
    43   24   25 ar  
    44   24   42 1   
    45   25   26 ar  
    46   25   43 1   
    47   26   27 1   
@<TRIPOS>SUBSTRUCTURE
     1 JN5         1 TEMP              0 ****  ****    0 ROOT
