@<TRIPOS>MOLECULE
JN5
   43    46     1     0     0
SMALL
bcc


@<TRIPOS>ATOM
      1 C1W        -0.1470    0.2910   -0.0530 ca        1 JN5     -0.089000
      2 C1X         1.2320    0.3030   -0.2620 ca        1 JN5     -0.243300
      3 C1Y         2.0800    0.0930    0.8410 ca        1 JN5      0.395200
      4 N1Z         1.6290   -0.1200    2.0920 nb        1 JN5     -0.661000
      5 C2A         0.2960   -0.1280    2.2780 ca        1 JN5      0.402200
      6 C1V        -0.6400    0.0720    1.2400 ca        1 JN5     -0.200600
      7 C1U        -2.0980    0.0340    1.5140 c3        1 JN5     -0.045100
      8 C1T        -2.6810    1.4520    1.4660 c3        1 JN5      0.211800
      9 N1S        -4.1020    1.4680    1.7160 nu        1 JN5     -0.837900
     10 C2         -4.8280    2.6560    1.5920 ca        1 JN5      0.878900
     11 N3         -6.2150    2.5370    1.5380 nb        1 JN5     -0.744000
     12 N1         -4.1410    3.8710    1.5930 nb        1 JN5     -0.735000
     13 C6         -4.8970    4.9740    1.5770 ca        1 JN5      0.470200
     14 C5         -6.3050    4.9560    1.5450 ca        1 JN5     -0.411600
     15 C4         -6.9190    3.6880    1.5210 ca        1 JN5      0.462600
     16 C1J        -8.4330    3.5800    1.4720 c3        1 JN5     -0.061200
     17 C1K        -9.0470    4.6370    2.2600 c1        1 JN5      0.214700
     18 N1L        -9.5560    5.4620    2.9010 n1        1 JN5     -0.344800
     19 C1I        -8.9240    3.6360    0.0550 cc        1 JN5      0.348200
     20 N1G       -10.0960    3.1460   -0.3190 nd        1 JN5     -0.506100
     21 C1E       -10.2740    3.3490   -1.6950 ca        1 JN5      0.079400
     22 C1C       -11.4020    2.9620   -2.4470 ca        1 JN5     -0.068000
     23 C1A       -11.4250    3.2360   -3.8030 ca        1 JN5     -0.132000
     24 C1B       -10.3510    3.8870   -4.4340 ca        1 JN5     -0.114000
     25 C1D        -9.2330    4.2770   -3.7140 ca        1 JN5     -0.092000
     26 C1F        -9.1790    4.0160   -2.3420 ca        1 JN5     -0.092100
     27 S1H        -7.9760    4.3610   -1.2100 ss        1 JN5      0.000900
     28 H1W        -0.8420    0.4500   -0.8910 ha        1 JN5      0.138000
     29 H1X         1.6510    0.4720   -1.2620 ha        1 JN5      0.145000
     30 H1Y         3.1780    0.0950    0.7200 h4        1 JN5      0.024100
     31 H2A        -0.0430   -0.3060    3.3150 h4        1 JN5      0.025100
     32 H1U        -2.2890   -0.4230    2.5210 hc        1 JN5      0.058200
     33 H1UA       -2.6030   -0.6150    0.7480 hc        1 JN5      0.058200
     34 H1T        -2.1770    2.0850    2.2520 h1        1 JN5      0.059700
     35 H1TA       -2.4440    1.9060    0.4600 h1        1 JN5      0.059700
     36 HN1S       -4.5990    0.6270    1.5160 hn        1 JN5      0.436800
     37 H6         -4.3430    5.9320    1.5880 h4        1 JN5      0.033100
     38 H5         -6.8880    5.8840    1.5440 ha        1 JN5      0.166000
     39 H1J        -8.7550    2.5880    1.9290 hc        1 JN5      0.136700
     40 H1C       -12.2430    2.4530   -1.9520 ha        1 JN5      0.154000
     41 H1A       -12.2990    2.9400   -4.4040 ha        1 JN5      0.139000
     42 H1B       -10.4030    4.0900   -5.5140 ha        1 JN5      0.138000
     43 H1D        -8.3950    4.7870   -4.2120 ha        1 JN5      0.141000
@<TRIPOS>BOND
     1    1    2 ar  
     2    1    6 ar  
     3    1   28 1   
     4    2    3 ar  
     5    2   29 1   
     6    3    4 ar  
     7    3   30 1   
     8    4    5 ar  
     9    5    6 ar  
    10    5   31 1   
    11    6    7 1   
    12    7    8 1   
    13    7   32 1   
    14    7   33 1   
    15    8    9 1   
    16    8   34 1   
    17    8   35 1   
    18    9   10 1   
    19    9   36 1   
    20   10   11 ar  
    21   10   12 ar  
    22   11   15 ar  
    23   12   13 ar  
    24   13   14 ar  
    25   13   37 1   
    26   14   15 ar  
    27   14   38 1   
    28   15   16 1   
    29   16   17 1   
    30   16   19 1   
    31   16   39 1   
    32   17   18 3   
    33   19   20 2   
    34   19   27 1   
    35   20   21 1   
    36   21   22 ar  
    37   21   26 ar  
    38   22   23 ar  
    39   22   40 1   
    40   23   24 ar  
    41   23   41 1   
    42   24   25 ar  
    43   24   42 1   
    44   25   26 ar  
    45   25   43 1   
    46   26   27 1   
@<TRIPOS>SUBSTRUCTURE
     1 JN5         1 TEMP              0 ****  ****    0 ROOT
