@<TRIPOS>MOLECULE
JN5
   43    46     1     0     0
SMALL
bcc


@<TRIPOS>ATOM
      1 C1W        -5.9010    1.8220   -0.4980 ca        1 JN5     -0.089000
      2 C1X        -7.0860    2.0820   -1.1860 ca        1 JN5     -0.243300
      3 C1Y        -8.2070    1.2730   -0.9240 ca        1 JN5      0.395200
      4 N1Z        -8.1960    0.2570   -0.0410 nb        1 JN5     -0.661000
      5 C2A        -7.0460    0.0170    0.6150 ca        1 JN5      0.402200
      6 C1V        -5.8660    0.7690    0.4250 ca        1 JN5     -0.200600
      7 C1U        -4.6360    0.4590    1.1950 c3        1 JN5     -0.045100
      8 C1T        -3.6030   -0.2230    0.2880 c3        1 JN5      0.211800
      9 N1S        -2.3810   -0.5370    0.9890 nh        1 JN5     -0.837900
     10 C2         -1.2810   -1.0490    0.2960 ca        1 JN5      0.878900
     11 N3         -0.0590   -1.0300    0.9650 nb        1 JN5     -0.744000
     12 N1         -1.4770   -1.5970   -0.9720 nb        1 JN5     -0.735000
     13 C6         -0.4060   -2.1650   -1.5390 ca        1 JN5      0.470200
     14 C5          0.8640   -2.2160   -0.9340 ca        1 JN5     -0.411600
     15 C4          0.9810   -1.6170    0.3370 ca        1 JN5      0.462600
     16 C1J         2.3200   -1.6170    1.0530 c3        1 JN5     -0.061200
     17 C1K         3.0370   -2.8560    0.7980 c1        1 JN5      0.214700
     18 N1L         3.6180   -3.8470    0.6230 n1        1 JN5     -0.344800
     19 C1I         3.1480   -0.4390    0.6280 cc        1 JN5      0.348200
     20 N1G         4.1300    0.0530    1.3690 nd        1 JN5     -0.506100
     21 C1E         4.7170    1.1420    0.7080 ca        1 JN5      0.079400
     22 C1C         5.7930    1.9160    1.1890 ca        1 JN5     -0.068000
     23 C1A         6.2600    2.9630    0.4140 ca        1 JN5     -0.132000
     24 C1B         5.6820    3.2610   -0.8330 ca        1 JN5     -0.114000
     25 C1D         4.6250    2.5130   -1.3250 ca        1 JN5     -0.092000
     26 C1F         4.1310    1.4480   -0.5670 ca        1 JN5     -0.092100
     27 S1H         2.8750    0.3680   -0.8880 ss        1 JN5      0.000900
     28 H1W        -5.0040    2.4330   -0.6750 ha        1 JN5      0.138000
     29 H1X        -7.1480    2.8990   -1.9170 ha        1 JN5      0.145000
     30 H1Y        -9.1650    1.4450   -1.4470 h4        1 JN5      0.024100
     31 H2A        -7.0690   -0.8230    1.3330 h4        1 JN5      0.025100
     32 H1U        -4.2110    1.4110    1.6150 hc        1 JN5      0.058200
     33 H1UA       -4.8820   -0.2110    2.0620 hc        1 JN5      0.058200
     34 H1T        -4.0400   -1.1850   -0.1090 h1        1 JN5      0.059700
     35 H1TA       -3.4000    0.4500   -0.5960 h1        1 JN5      0.059700
     36 HN1S       -2.1750    0.0160    1.7940 hn        1 JN5      0.436800
     37 H6         -0.5750   -2.6050   -2.5400 h4        1 JN5      0.033100
     38 H5          1.7130   -2.7010   -1.4280 ha        1 JN5      0.166000
     39 H1J         2.1470   -1.5520    2.1770 hc        1 JN5      0.136700
     40 H1C         6.2450    1.6820    2.1640 ha        1 JN5      0.154000
     41 H1A         7.0990    3.5770    0.7760 ha        1 JN5      0.139000
     42 H1B         6.0800    4.1010   -1.4230 ha        1 JN5      0.138000
     43 H1D         4.1780    2.7500   -2.3020 ha        1 JN5      0.141000
@<TRIPOS>BOND
     1    1    2 ar  
     2    1    6 ar  
     3    1   28 1   
     4    2    3 ar  
     5    2   29 1   
     6    3    4 ar  
     7    3   30 1   
     8    4    5 ar  
     9    5    6 ar  
    10    5   31 1   
    11    6    7 1   
    12    7    8 1   
    13    7   32 1   
    14    7   33 1   
    15    8    9 1   
    16    8   34 1   
    17    8   35 1   
    18    9   10 1   
    19    9   36 1   
    20   10   11 ar  
    21   10   12 ar  
    22   11   15 ar  
    23   12   13 ar  
    24   13   14 ar  
    25   13   37 1   
    26   14   15 ar  
    27   14   38 1   
    28   15   16 1   
    29   16   17 1   
    30   16   19 1   
    31   16   39 1   
    32   17   18 3   
    33   19   20 2   
    34   19   27 1   
    35   20   21 1   
    36   21   22 ar  
    37   21   26 ar  
    38   22   23 ar  
    39   22   40 1   
    40   23   24 ar  
    41   23   41 1   
    42   24   25 ar  
    43   24   42 1   
    44   25   26 ar  
    45   25   43 1   
    46   26   27 1   
@<TRIPOS>SUBSTRUCTURE
     1 JN5         1 TEMP              0 ****  ****    0 ROOT
