@<TRIPOS>MOLECULE
JN7
   55    52     1     0     0
SMALL
bcc


@<TRIPOS>ATOM
      1 C1          1.7430   -1.2650   -1.7890 c3        1 JN7     -0.137000
      2 C2          3.1870   -1.2170   -1.8250 c3        1 JN7     -0.045000
      3 N3          3.8560   -1.1810   -0.5830 n         1 JN7     -0.248000
      4 C4          3.4770   -0.2100    0.3300 c3        1 JN7      0.032000
      5 C5          1.9560    0.1340    0.3720 c2        1 JN7     -0.506000
      6 C6          1.0700   -0.4920   -0.6760 c2        1 JN7     -0.004000
      7 S7          1.0640    1.0270    1.2770 ss        1 JN7      0.715000
      8 C8         -0.4140    0.9230    0.7400 c1        1 JN7     -0.162000
      9 C9         -0.4120    0.0090   -0.4370 c1        1 JN7     -0.223000
     10 C10         5.1110   -1.8890   -0.4110 c2        1 JN7      0.377000
     11 O11         5.2640   -2.6530    0.5530 o         1 JN7     -0.372000
     12 O12         6.1810   -1.6290   -1.2710 os        1 JN7     -0.240000
     13 C13         7.2590   -2.5050   -1.1120 c2        1 JN7     -0.016000
     14 C14         8.4270   -2.0500   -0.6640 c1        1 JN7     -0.260000
     15 C15        -1.5660   -0.3670   -1.3350 c1        1 JN7      0.388000
     16 N16        -1.5590    1.6280    1.2690 n2        1 JN7     -0.287000
     17 C17        -1.3580    2.7730    2.1740 c2        1 JN7      0.302000
     18 C18        -2.5890    3.6130    2.6590 c3        1 JN7     -0.100000
     19 C19        -2.1150    4.9250    3.2130 c2        1 JN7     -0.413000
     20 S20        -0.7310    5.1900    3.8960 ss        1 JN7      0.587000
     21 C21        -0.7540    6.6240    4.4450 c1        1 JN7     -0.438000
     22 C22        -2.0520    7.2040    4.1280 c1        1 JN7     -0.152000
     23 C23        -2.9080    6.1150    3.3450 c1        1 JN7     -0.144000
     24 O24        -0.2140    3.1260    2.4760 o         1 JN7     -0.350000
     25 O25        -2.3770   -1.5570   -1.0310 os        1 JN7     -0.270000
     26 O26        -1.8530    0.3350   -2.2750 o         1 JN7     -0.407000
     27 C27        -3.0000   -2.1560   -2.1840 c3        1 JN7      0.036000
     28 C28        -2.9300   -3.8380   -2.0750 c3        1 JN7     -0.171000
     29 C29        -3.9590   -4.2090   -1.2650 c3        1 JN7     -0.157000
     30 C30        -5.0630   -3.0470   -1.4330 c3        1 JN7     -0.157000
     31 C31        -4.3090   -1.8360   -2.2190 c3        1 JN7     -0.171000
     32 H1          1.4730   -2.2020   -1.7130 hc        1 JN7      0.117000
     33 H1A         1.4070   -0.9190   -2.6460 hc        1 JN7      0.117000
     34 H2          3.4530   -0.4080   -2.3400 h1        1 JN7      0.109500
     35 H2A         3.5020   -2.0030   -2.3120 h1        1 JN7      0.109500
     36 H4          3.7150   -0.5410    1.2080 h1        1 JN7      0.119500
     37 H4A         3.9400    0.5990    0.0890 h1        1 JN7      0.119500
     38 H13         7.1570   -3.4280   -1.3230 h4        1 JN7      0.157000
     39 H14         8.5320   -1.0930   -0.4450 DU        1 JN7      0.161750
     40 H14A        9.1930   -2.6720   -0.5510 ha        1 JN7      0.128000
     41 HN16       -2.4040    1.2980    1.1290 hn        1 JN7      0.280000
     42 H18        -3.1840    3.7760    1.9110 hc        1 JN7      0.128000
     43 H18A       -3.0790    3.1070    3.3710 hc        1 JN7      0.128000
     44 H21        -0.0240    7.0710    4.9240 DU        1 JN7      0.161750
     45 H22        -2.3400    8.0880    4.3520 DU        1 JN7      0.161750
     46 H23        -3.8230    6.2360    3.0100 DU        1 JN7      0.161750
     47 H27        -2.5560   -1.8530   -3.0010 h1        1 JN7      0.117000
     48 H28        -2.0970   -4.1080   -1.6920 hc        1 JN7      0.095750
     49 H28A       -3.0370   -4.2360   -2.9590 hc        1 JN7      0.095750
     50 H29        -4.3350   -5.0910   -1.5600 hc        1 JN7      0.083250
     51 H29A       -3.6530   -4.2620   -0.3220 hc        1 JN7      0.083250
     52 H30        -5.3640   -2.7430   -0.5590 hc        1 JN7      0.083250
     53 H30A       -5.8190   -3.3700   -1.9550 hc        1 JN7      0.083250
     54 H31        -4.4640   -0.9790   -1.7600 hc        1 JN7      0.095750
     55 H31A       -4.6220   -1.7880   -3.1480 hc        1 JN7      0.095750
@<TRIPOS>BOND
     1    1    2 1   
     2    1    6 1   
     3    1   32 1   
     4    1   33 1   
     5    2    3 1   
     6    2   34 1   
     7    2   35 1   
     8    3    4 1   
     9    3   10 1   
    10    4    5 1   
    11    4   36 1   
    12    4   37 1   
    13    5    6 1   
    14    5    7 1   
    15    6    9 1   
    16    7    8 1   
    17    8    9 1   
    18   10   11 1   
    19   10   12 1   
    20   12   13 1   
    21   13   14 1   
    22   13   38 1   
    23   14   40 1   
    24   15   25 1   
    25   15   26 1   
    26   16   17 1   
    27   16   41 1   
    28   17   18 1   
    29   17   24 1   
    30   18   19 1   
    31   18   42 1   
    32   18   43 1   
    33   19   20 1   
    34   19   23 1   
    35   20   21 1   
    36   21   22 1   
    37   22   23 1   
    38   25   27 1   
    39   27   28 1   
    40   27   31 1   
    41   27   47 1   
    42   28   29 1   
    43   28   48 1   
    44   28   49 1   
    45   29   30 1   
    46   29   50 1   
    47   29   51 1   
    48   30   31 1   
    49   30   52 1   
    50   30   53 1   
    51   31   54 1   
    52   31   55 1   
@<TRIPOS>SUBSTRUCTURE
     1 JN7         1 TEMP              0 ****  ****    0 ROOT
