@<TRIPOS>MOLECULE
JN7
   55    58     1     0     0
SMALL
bcc


@<TRIPOS>ATOM
      1 C1         -2.3590    0.7680   -1.2520 c3        1 JN7     -0.052100
      2 C2         -3.5100    0.0540   -1.9680 c3        1 JN7      0.069000
      3 N3         -3.8670   -1.2520   -1.4320 n         1 JN7     -0.390800
      4 C4         -2.7500   -2.1800   -1.3290 c3        1 JN7      0.161300
      5 C5         -1.4980   -1.5490   -0.8310 cc        1 JN7     -0.245400
      6 C6         -1.3120   -0.1770   -0.8140 cd        1 JN7     -0.009300
      7 S7         -0.1760   -2.3810   -0.2550 ss        1 JN7      0.170200
      8 C8          0.7170   -0.9750    0.0450 cc        1 JN7      0.101500
      9 C9         -0.0260    0.1780   -0.3000 cd        1 JN7     -0.243600
     10 C10        -4.8690   -1.2650   -0.4570 c         1 JN7      0.728100
     11 O11        -5.7410   -0.4030   -0.2700 o         1 JN7     -0.571000
     12 O12        -4.9230   -2.4350    0.2930 os        1 JN7     -0.372200
     13 C13        -6.0360   -2.6010    1.1230 c2        1 JN7      0.027100
     14 C14        -6.0710   -3.7090    1.8670 c2        1 JN7     -0.266000
     15 C15         0.4820    1.5260   -0.1270 c         1 JN7      0.687700
     16 N16         1.9960   -0.9510    0.5610 n         1 JN7     -0.433100
     17 C17         2.7160   -2.0810    0.9280 c         1 JN7      0.658100
     18 C18         4.0980   -1.8580    1.5210 c3        1 JN7     -0.064100
     19 C19         4.9660   -1.0250    0.6770 cc        1 JN7     -0.150400
     20 S20         6.1640   -1.6730   -0.3090 ss        1 JN7      0.047200
     21 C21         6.6810   -0.1880   -0.8540 cc        1 JN7     -0.167100
     22 C22         5.9530    0.8430   -0.2980 cd        1 JN7     -0.152000
     23 C23         4.9530    0.3570    0.5980 cd        1 JN7     -0.144000
     24 O24         2.2310   -3.2220    0.8060 o         1 JN7     -0.590100
     25 O25        -0.3800    2.5170   -0.5110 os        1 JN7     -0.430900
     26 O26         1.5900    1.8630    0.3220 o         1 JN7     -0.596000
     27 C27         0.0570    3.8840   -0.3750 c3        1 JN7      0.147100
     28 C28        -0.6580    4.6720   -1.4780 c3        1 JN7     -0.091900
     29 C29        -1.2700    5.8970   -0.8170 c3        1 JN7     -0.078400
     30 C30        -1.3060    5.6390    0.6830 c3        1 JN7     -0.078400
     31 C31        -0.3980    4.4540    0.9720 c3        1 JN7     -0.091900
     32 H1         -1.9230    1.5360   -1.9480 hc        1 JN7      0.079700
     33 H1A        -2.7430    1.3250   -0.3540 hc        1 JN7      0.079700
     34 H2         -4.4210    0.7160   -1.9510 h1        1 JN7      0.075200
     35 H2A        -3.2170   -0.1270   -3.0420 h1        1 JN7      0.075200
     36 H4         -3.0330   -3.0560   -0.6790 h1        1 JN7      0.077200
     37 H4A        -2.5710   -2.5650   -2.3780 h1        1 JN7      0.077200
     38 H13        -6.7930   -1.8030    1.0930 h4        1 JN7      0.172000
     39 H14        -5.2780   -4.4650    1.8520 ha        1 JN7      0.130500
     40 H14A       -6.9170   -3.9040    2.5360 ha        1 JN7      0.130500
     41 HN16        2.4370   -0.0510    0.6330 hn        1 JN7      0.366500
     42 H18         3.9700   -1.3830    2.5330 hc        1 JN7      0.088700
     43 H18A        4.5540   -2.8750    1.6780 hc        1 JN7      0.088700
     44 H21         7.4970   -0.0710   -1.5650 h4        1 JN7      0.174000
     45 H22         6.1030    1.9050   -0.5030 ha        1 JN7      0.159000
     46 H23         4.2720    1.0190    1.1410 ha        1 JN7      0.166000
     47 H27         1.1730    3.9360   -0.4850 h1        1 JN7      0.077700
     48 H28         0.0640    4.9600   -2.2800 hc        1 JN7      0.055950
     49 H28A       -1.4520    4.0340   -1.9450 hc        1 JN7      0.055950
     50 H29        -0.6500    6.8030   -1.0380 hc        1 JN7      0.044450
     51 H29A       -2.2970    6.0910   -1.2140 hc        1 JN7      0.044450
     52 H30        -0.9710    6.5440    1.2490 hc        1 JN7      0.044450
     53 H30A       -2.3520    5.4110    1.0110 hc        1 JN7      0.044450
     54 H31        -0.9380    3.6690    1.5590 hc        1 JN7      0.055950
     55 H31A        0.4940    4.7690    1.5690 hc        1 JN7      0.055950
@<TRIPOS>BOND
     1    1    2 1   
     2    1    6 1   
     3    1   32 1   
     4    1   33 1   
     5    2    3 1   
     6    2   34 1   
     7    2   35 1   
     8    3    4 1   
     9    3   10 1   
    10    4    5 1   
    11    4   36 1   
    12    4   37 1   
    13    5    6 2   
    14    5    7 1   
    15    6    9 1   
    16    7    8 1   
    17    8    9 2   
    18    8   16 1   
    19    9   15 1   
    20   10   11 2   
    21   10   12 1   
    22   12   13 1   
    23   13   14 2   
    24   13   38 1   
    25   14   39 1   
    26   14   40 1   
    27   15   25 1   
    28   15   26 2   
    29   16   17 1   
    30   16   41 1   
    31   17   18 1   
    32   17   24 2   
    33   18   19 1   
    34   18   42 1   
    35   18   43 1   
    36   19   20 1   
    37   19   23 2   
    38   20   21 1   
    39   21   22 2   
    40   21   44 1   
    41   22   23 1   
    42   22   45 1   
    43   23   46 1   
    44   25   27 1   
    45   27   28 1   
    46   27   31 1   
    47   27   47 1   
    48   28   29 1   
    49   28   48 1   
    50   28   49 1   
    51   29   30 1   
    52   29   50 1   
    53   29   51 1   
    54   30   31 1   
    55   30   52 1   
    56   30   53 1   
    57   31   54 1   
    58   31   55 1   
@<TRIPOS>SUBSTRUCTURE
     1 JN7         1 TEMP              0 ****  ****    0 ROOT
