@<TRIPOS>MOLECULE
JN7
   56    59     1     0     0
SMALL
bcc


@<TRIPOS>ATOM
      1 C1         -0.1070    0.7430   -0.3180 c3        1 JN7     -0.063100
      2 C2          1.3630    0.3470   -0.5080 c3        1 JN7      0.066000
      3 N3          2.1530    0.3000    0.7110 n         1 JN7     -0.393800
      4 C4          2.1260    1.5230    1.4860 c3        1 JN7      0.143300
      5 C5          0.7510    2.0960    1.6330 cc        1 JN7     -0.162400
      6 C6         -0.2850    1.7330    0.7630 cd        1 JN7     -0.025300
      7 S7          0.2790    3.1870    2.7630 ss        1 JN7      0.279200
      8 C8         -1.2990    3.2620    2.2050 cc        1 JN7     -0.130500
      9 C9         -1.4880    2.4080    1.0930 cd        1 JN7     -0.104600
     10 C10         2.2060   -0.9380    1.3750 c         1 JN7      0.726100
     11 O11         1.9810   -2.0480    0.8750 o         1 JN7     -0.540000
     12 O12         2.6190   -0.8560    2.6940 os        1 JN7     -0.382200
     13 C13         2.9800   -2.0620    3.3160 c2        1 JN7      0.018100
     14 C14         3.3700   -1.9830    4.5890 c2        1 JN7     -0.246000
     15 C15        -2.7780    2.2500    0.4150 c         1 JN7      0.674700
     16 N16        -2.3370    4.0780    2.7690 n4        1 JN7     -0.507200
     17 C17        -2.2920    5.5550    2.4030 c         1 JN7      0.546100
     18 C18        -3.4990    6.3490    2.8320 c3        1 JN7     -0.054100
     19 C19        -4.2790    5.7390    3.9120 cc        1 JN7     -0.263400
     20 S20        -5.9090    5.3890    3.7940 ss        1 JN7      0.166200
     21 C21        -6.0370    4.8790    5.3610 cc        1 JN7     -0.157100
     22 C22        -4.8330    4.9730    6.0390 cd        1 JN7     -0.148000
     23 C23        -3.8080    5.4840    5.1990 cd        1 JN7     -0.161000
     24 O24        -1.3160    5.9710    1.8020 o         1 JN7     -0.405100
     25 O25        -2.7820    1.3930   -0.6260 os        1 JN7     -0.401900
     26 O26        -3.8290    2.8310    0.7450 o         1 JN7     -0.600000
     27 C27        -4.0350    1.1730   -1.3330 c3        1 JN7      0.146100
     28 C28        -4.1540    2.1580   -2.4970 c3        1 JN7     -0.093400
     29 C29        -4.4500    1.3310   -3.7390 c3        1 JN7     -0.080900
     30 C30        -4.0680   -0.1100   -3.4290 c3        1 JN7     -0.080900
     31 C31        -3.9370   -0.2390   -1.9180 c3        1 JN7     -0.093400
     32 H1         -0.7280   -0.1660   -0.0830 hc        1 JN7      0.093200
     33 H1A        -0.4980    1.1570   -1.2880 hc        1 JN7      0.093200
     34 H2          1.8650    1.1030   -1.1780 h1        1 JN7      0.091200
     35 H2A         1.4080   -0.6620   -1.0100 h1        1 JN7      0.091200
     36 H4          2.5950    1.3540    2.4980 h1        1 JN7      0.098700
     37 H4A         2.7610    2.2750    0.9250 h1        1 JN7      0.098700
     38 H13         2.9100   -2.9690    2.6960 h4        1 JN7      0.181000
     39 H14         3.4180   -1.0400    5.1460 ha        1 JN7      0.136500
     40 H14A        3.6720   -2.8860    5.1340 ha        1 JN7      0.136500
     41 HN16       -3.2610    3.7200    2.4400 hn        1 JN7      0.484300
     42 H18        -3.1170    7.3660    3.1470 hc        1 JN7      0.126700
     43 H18A       -4.1280    6.5010    1.9060 hc        1 JN7      0.126700
     44 H21        -6.9720    4.5230    5.8010 h4        1 JN7      0.199000
     45 H22        -4.6800    4.7060    7.0890 ha        1 JN7      0.178000
     46 H23        -2.7930    5.6870    5.5510 ha        1 JN7      0.155000
     47 H27        -4.8840    1.2740   -0.6070 h1        1 JN7      0.082700
     48 H28        -4.9670    2.9000   -2.3000 hc        1 JN7      0.061450
     49 H28A       -3.1960    2.7240   -2.6180 hc        1 JN7      0.061450
     50 H29        -3.8760    1.7170   -4.6180 hc        1 JN7      0.056450
     51 H29A       -5.5380    1.3970   -3.9950 hc        1 JN7      0.056450
     52 H30        -4.8410   -0.8180   -3.8200 hc        1 JN7      0.056450
     53 H30A       -3.0980   -0.3700   -3.9240 hc        1 JN7      0.056450
     54 H31        -2.9610   -0.7110   -1.6380 hc        1 JN7      0.061450
     55 H31A       -4.7550   -0.8730   -1.4960 hc        1 JN7      0.061450
     56 H162       -2.3220    4.0090    3.7960 hn        1 JN7      0.484300
@<TRIPOS>BOND
     1    1    2 1   
     2    1    6 1   
     3    1   32 1   
     4    1   33 1   
     5    2    3 1   
     6    2   34 1   
     7    2   35 1   
     8    3    4 1   
     9    3   10 1   
    10    4    5 1   
    11    4   36 1   
    12    4   37 1   
    13    5    6 2   
    14    5    7 1   
    15    6    9 1   
    16    7    8 1   
    17    8    9 2   
    18    8   16 1   
    19    9   15 1   
    20   10   11 2   
    21   10   12 1   
    22   12   13 1   
    23   13   14 2   
    24   13   38 1   
    25   14   39 1   
    26   14   40 1   
    27   15   25 1   
    28   15   26 2   
    29   16   17 1   
    30   16   41 1   
    31   16   56 1   
    32   17   18 1   
    33   17   24 2   
    34   18   19 1   
    35   18   42 1   
    36   18   43 1   
    37   19   20 1   
    38   19   23 2   
    39   20   21 1   
    40   21   22 2   
    41   21   44 1   
    42   22   23 1   
    43   22   45 1   
    44   23   46 1   
    45   25   27 1   
    46   27   28 1   
    47   27   31 1   
    48   27   47 1   
    49   28   29 1   
    50   28   48 1   
    51   28   49 1   
    52   29   30 1   
    53   29   50 1   
    54   29   51 1   
    55   30   31 1   
    56   30   52 1   
    57   30   53 1   
    58   31   54 1   
    59   31   55 1   
@<TRIPOS>SUBSTRUCTURE
     1 JN7         1 TEMP              0 ****  ****    0 ROOT
