@<TRIPOS>MOLECULE
JN7
   55    58     1     0     0
SMALL
bcc


@<TRIPOS>ATOM
      1 C1          0.0430    1.0000   -0.1360 c3        1 JN7     -0.052100
      2 C2          1.5450    0.7190   -0.2660 c3        1 JN7      0.069000
      3 N3          2.2050    0.2620    0.9480 n         1 JN7     -0.390800
      4 C4          2.0030    1.1300    2.0990 c3        1 JN7      0.161300
      5 C5          0.6080    1.6330    2.2250 cc        1 JN7     -0.245400
      6 C6         -0.2960    1.5830    1.1770 cd        1 JN7     -0.009300
      7 S7         -0.0380    2.3170    3.5970 ss        1 JN7      0.170200
      8 C8         -1.5490    2.5880    2.8840 cc        1 JN7      0.101500
      9 C9         -1.5640    2.1300    1.5460 cd        1 JN7     -0.243600
     10 C10         2.2720   -1.1230    1.1300 c         1 JN7      0.728100
     11 O11         2.1990   -1.9960    0.2510 o         1 JN7     -0.571000
     12 O12         2.5550   -1.5160    2.4330 os        1 JN7     -0.372200
     13 C13         2.8570   -2.8670    2.6330 c2        1 JN7      0.027100
     14 C14         3.0950   -3.2500    3.8890 c2        1 JN7     -0.266000
     15 C15        -2.7390    2.2060    0.6970 c         1 JN7      0.687700
     16 N16        -2.6250    3.1730    3.5180 ns        1 JN7     -0.433100
     17 C17        -2.6230    3.5960    4.8420 c         1 JN7      0.658100
     18 C18        -3.9190    4.1790    5.3830 c3        1 JN7     -0.064100
     19 C19        -4.4520    5.2740    4.5620 cc        1 JN7     -0.150400
     20 S20        -4.2640    6.8930    4.9780 ss        1 JN7      0.047200
     21 C21        -5.1210    7.4490    3.6630 cc        1 JN7     -0.167100
     22 C22        -5.5730    6.4150    2.8720 cd        1 JN7     -0.152000
     23 C23        -5.1860    5.1440    3.3960 cd        1 JN7     -0.144000
     24 O24        -1.6120    3.4670    5.5570 o         1 JN7     -0.590100
     25 O25        -2.5730    1.6880   -0.5580 os        1 JN7     -0.430900
     26 O26        -3.8520    2.6730    0.9880 o         1 JN7     -0.595000
     27 C27        -3.7080    1.6970   -1.4470 c3        1 JN7      0.148100
     28 C28        -3.7220    2.9820   -2.2780 c3        1 JN7     -0.092900
     29 C29        -3.9070    2.5640   -3.7270 c3        1 JN7     -0.078900
     30 C30        -3.5430    1.0880   -3.8250 c3        1 JN7     -0.078900
     31 C31        -3.5050    0.5240   -2.4130 c3        1 JN7     -0.092900
     32 H1         -0.2640    1.6980   -0.9600 hc        1 JN7      0.079200
     33 H1A        -0.5460    0.0530   -0.2770 hc        1 JN7      0.079200
     34 H2          2.0710    1.6720   -0.5590 h1        1 JN7      0.075200
     35 H2A         1.7060   -0.0450   -1.0790 h1        1 JN7      0.075200
     36 H4          2.3160    0.6000    3.0430 h1        1 JN7      0.077200
     37 H4A         2.6960    2.0120    1.9460 h1        1 JN7      0.077200
     38 H13         2.8720   -3.5030    1.7360 h4        1 JN7      0.172000
     39 H14         3.0590   -2.5620    4.7420 ha        1 JN7      0.130500
     40 H14A        3.3430   -4.2940    4.1150 ha        1 JN7      0.130500
     41 HN16       -3.4460    3.3340    2.9600 hn        1 JN7      0.366500
     42 H18        -3.7040    4.5340    6.4290 hc        1 JN7      0.088700
     43 H18A       -4.6720    3.3460    5.4550 hc        1 JN7      0.088700
     44 H21        -5.2900    8.5090    3.4740 h4        1 JN7      0.174000
     45 H22        -6.1550    6.5290    1.9540 ha        1 JN7      0.159000
     46 H23        -5.4500    4.1990    2.9120 ha        1 JN7      0.166000
     47 H27        -4.6510    1.5850   -0.8500 h1        1 JN7      0.076700
     48 H28        -4.5450    3.6580   -1.9390 hc        1 JN7      0.057200
     49 H28A       -2.7550    3.5300   -2.1440 hc        1 JN7      0.057200
     50 H29        -3.2640    3.1790   -4.4040 hc        1 JN7      0.044200
     51 H29A       -4.9700    2.7210   -4.0420 hc        1 JN7      0.044200
     52 H30        -2.5440    0.9670   -4.3150 hc        1 JN7      0.044200
     53 H30A       -4.2890    0.5380   -4.4510 hc        1 JN7      0.044200
     54 H31        -4.3140   -0.2330   -2.2600 hc        1 JN7      0.057200
     55 H31A       -2.5260    0.0210   -2.2080 hc        1 JN7      0.057200
@<TRIPOS>BOND
     1    1    2 1   
     2    1    6 1   
     3    1   32 1   
     4    1   33 1   
     5    2    3 1   
     6    2   34 1   
     7    2   35 1   
     8    3    4 1   
     9    3   10 1   
    10    4    5 1   
    11    4   36 1   
    12    4   37 1   
    13    5    6 2   
    14    5    7 1   
    15    6    9 1   
    16    7    8 1   
    17    8    9 2   
    18    8   16 1   
    19    9   15 1   
    20   10   11 2   
    21   10   12 1   
    22   12   13 1   
    23   13   14 2   
    24   13   38 1   
    25   14   39 1   
    26   14   40 1   
    27   15   25 1   
    28   15   26 2   
    29   16   17 1   
    30   16   41 1   
    31   17   18 1   
    32   17   24 2   
    33   18   19 1   
    34   18   42 1   
    35   18   43 1   
    36   19   20 1   
    37   19   23 2   
    38   20   21 1   
    39   21   22 2   
    40   21   44 1   
    41   22   23 1   
    42   22   45 1   
    43   23   46 1   
    44   25   27 1   
    45   27   28 1   
    46   27   31 1   
    47   27   47 1   
    48   28   29 1   
    49   28   48 1   
    50   28   49 1   
    51   29   30 1   
    52   29   50 1   
    53   29   51 1   
    54   30   31 1   
    55   30   52 1   
    56   30   53 1   
    57   31   54 1   
    58   31   55 1   
@<TRIPOS>SUBSTRUCTURE
     1 JN7         1 TEMP              0 ****  ****    0 ROOT
