@<TRIPOS>MOLECULE
JN7
   55    58     1     0     0
SMALL
bcc


@<TRIPOS>ATOM
      1 C1          0.1600    1.3840   -0.2040 c3        1 JN7     -0.052100
      2 C2          1.6680    1.1260   -0.3000 c3        1 JN7      0.069000
      3 N3          2.2720    0.5030    0.8700 n         1 JN7     -0.390800
      4 C4          2.0090    1.2020    2.1190 c3        1 JN7      0.161300
      5 C5          0.6090    1.6900    2.2440 cc        1 JN7     -0.245400
      6 C6         -0.2430    1.7900    1.1570 cd        1 JN7     -0.009300
      7 S7         -0.1050    2.1820    3.6640 ss        1 JN7      0.170200
      8 C8         -1.5780    2.5600    2.9220 cc        1 JN7      0.101500
      9 C9         -1.5270    2.2920    1.5350 cd        1 JN7     -0.243600
     10 C10         2.3410   -0.8930    0.8590 c         1 JN7      0.728100
     11 O11         2.3180   -1.6350   -0.1360 o         1 JN7     -0.571000
     12 O12         2.5620   -1.4650    2.1070 os        1 JN7     -0.372200
     13 C13         2.8630   -2.8300    2.1310 c2        1 JN7      0.027100
     14 C14         3.0430   -3.3860    3.3310 c2        1 JN7     -0.266000
     15 C15        -2.6570    2.5000    0.6470 c         1 JN7      0.687700
     16 N16        -2.6840    3.0590    3.5780 n         1 JN7     -0.433100
     17 C17        -2.7460    3.2960    4.9460 c         1 JN7      0.658100
     18 C18        -4.0660    3.8070    5.5010 c3        1 JN7     -0.064100
     19 C19        -4.5610    5.0070    4.8130 cc        1 JN7     -0.150400
     20 S20        -4.3950    6.5530    5.4550 ss        1 JN7      0.047200
     21 C21        -5.1890    7.2890    4.1900 cc        1 JN7     -0.167100
     22 C22        -5.6020    6.3750    3.2440 cd        1 JN7     -0.152000
     23 C23        -5.2390    5.0420    3.6070 cd        1 JN7     -0.144000
     24 O24        -1.7700    3.0640    5.6840 o         1 JN7     -0.590100
     25 O25        -2.4240    2.1810   -0.6620 os        1 JN7     -0.430900
     26 O26        -3.7840    2.9270    0.9480 o         1 JN7     -0.596000
     27 C27        -3.4980    2.3680   -1.6060 c3        1 JN7      0.147100
     28 C28        -2.8330    2.6780   -2.9520 c3        1 JN7     -0.091900
     29 C29        -3.4810    1.7670   -3.9820 c3        1 JN7     -0.078400
     30 C30        -4.1860    0.6480   -3.2270 c3        1 JN7     -0.078400
     31 C31        -4.2910    1.0680   -1.7680 c3        1 JN7     -0.091900
     32 H1         -0.4130    0.4610   -0.4920 hc        1 JN7      0.079700
     33 H1A        -0.1150    2.1820   -0.9460 hc        1 JN7      0.079700
     34 H2          1.8740    0.4830   -1.2020 h1        1 JN7      0.075200
     35 H2A         2.2010    2.1110   -0.4300 h1        1 JN7      0.075200
     36 H4          2.2740    0.5430    2.9950 h1        1 JN7      0.077200
     37 H4A         2.7070    2.0930    2.1280 h1        1 JN7      0.077200
     38 H13         2.9270   -3.3340    1.1550 h4        1 JN7      0.172000
     39 H14         2.9600   -2.8240    4.2690 ha        1 JN7      0.130500
     40 H14A        3.2870   -4.4500    3.4210 ha        1 JN7      0.130500
     41 HN16       -3.4770    3.2990    3.0100 hn        1 JN7      0.366500
     42 H18        -3.9020    4.0140    6.5950 hc        1 JN7      0.088700
     43 H18A       -4.8210    2.9760    5.4220 hc        1 JN7      0.088700
     44 H21        -5.3490    8.3650    4.1390 h4        1 JN7      0.174000
     45 H22        -6.1390    6.6160    2.3240 ha        1 JN7      0.159000
     46 H23        -5.4780    4.1730    2.9860 ha        1 JN7      0.166000
     47 H27        -4.1570    3.2090   -1.2650 h1        1 JN7      0.078700
     48 H28        -2.9740    3.7550   -3.2150 hc        1 JN7      0.055950
     49 H28A       -1.7320    2.4830   -2.8850 hc        1 JN7      0.055950
     50 H29        -4.2190    2.3430   -4.5960 hc        1 JN7      0.044450
     51 H29A       -2.7150    1.3530   -4.6840 hc        1 JN7      0.044450
     52 H30        -3.6020   -0.3030   -3.3120 hc        1 JN7      0.044450
     53 H30A       -5.1990    0.4560   -3.6590 hc        1 JN7      0.044450
     54 H31        -5.3570    1.2380   -1.4770 hc        1 JN7      0.055950
     55 H31A       -3.8770    0.2770   -1.0940 hc        1 JN7      0.055950
@<TRIPOS>BOND
     1    1    2 1   
     2    1    6 1   
     3    1   32 1   
     4    1   33 1   
     5    2    3 1   
     6    2   34 1   
     7    2   35 1   
     8    3    4 1   
     9    3   10 1   
    10    4    5 1   
    11    4   36 1   
    12    4   37 1   
    13    5    6 2   
    14    5    7 1   
    15    6    9 1   
    16    7    8 1   
    17    8    9 2   
    18    8   16 1   
    19    9   15 1   
    20   10   11 2   
    21   10   12 1   
    22   12   13 1   
    23   13   14 2   
    24   13   38 1   
    25   14   39 1   
    26   14   40 1   
    27   15   25 1   
    28   15   26 2   
    29   16   17 1   
    30   16   41 1   
    31   17   18 1   
    32   17   24 2   
    33   18   19 1   
    34   18   42 1   
    35   18   43 1   
    36   19   20 1   
    37   19   23 2   
    38   20   21 1   
    39   21   22 2   
    40   21   44 1   
    41   22   23 1   
    42   22   45 1   
    43   23   46 1   
    44   25   27 1   
    45   27   28 1   
    46   27   31 1   
    47   27   47 1   
    48   28   29 1   
    49   28   48 1   
    50   28   49 1   
    51   29   30 1   
    52   29   50 1   
    53   29   51 1   
    54   30   31 1   
    55   30   52 1   
    56   30   53 1   
    57   31   54 1   
    58   31   55 1   
@<TRIPOS>SUBSTRUCTURE
     1 JN7         1 TEMP              0 ****  ****    0 ROOT
