@<TRIPOS>MOLECULE
JN8
   59    62     1     0     0
SMALL
bcc


@<TRIPOS>ATOM
      1 C1          0.1230   -0.9240    0.8580 cc        1 JN8      0.010700
      2 C2          1.4310   -0.4370    1.1400 cc        1 JN8     -0.244600
      3 C3          1.4900    0.1430    2.4290 cd        1 JN8      0.133500
      4 S4         -0.0210    0.0720    3.1990 ss        1 JN8      0.189200
      5 C5         -0.7550   -0.6770    1.9090 cd        1 JN8     -0.353400
      6 C6         -2.1520   -1.1660    1.8490 c3        1 JN8      0.139300
      7 N7         -2.6410   -1.2600    0.4710 n         1 JN8     -0.352800
      8 C8         -1.7430   -2.0720   -0.3660 c3        1 JN8      0.052000
      9 C9         -0.2890   -1.5870   -0.3960 c3        1 JN8     -0.063100
     10 N10         2.6060    0.6990    3.0050 ns        1 JN8     -0.427100
     11 C11         2.5610    1.2870    4.2710 c         1 JN8      0.661100
     12 C12         3.8360    1.8790    4.8360 c3        1 JN8     -0.051100
     13 C13         5.0080    1.0100    4.6770 cc        1 JN8     -0.182400
     14 C14         5.7850    0.8920    3.5350 cd        1 JN8     -0.142000
     15 C15         6.8750   -0.0070    3.7290 cd        1 JN8     -0.151000
     16 C16         6.8790   -0.5250    5.0090 cc        1 JN8     -0.158100
     17 S17         5.6180    0.0600    5.9180 ss        1 JN8      0.076200
     18 O18         1.4670    1.3330    4.8690 o         1 JN8     -0.593100
     19 C19         2.5850   -0.5090    0.2550 c         1 JN8      0.680700
     20 O20         2.3490   -1.1350   -0.9350 os        1 JN8     -0.441900
     21 C24        -3.1740   -0.1460   -0.1750 c         1 JN8      0.618100
     22 C27         3.4580   -1.2860   -1.8510 c3        1 JN8      0.146100
     23 C28         3.4730   -0.1290   -2.8530 c3        1 JN8     -0.090900
     24 N28        -3.4190    1.1370    0.6420 ny        1 JN8     -0.673800
     25 C29         3.2630   -0.7230   -4.2380 c3        1 JN8     -0.080400
     26 O29        -3.5950   -0.1000   -1.3330 o         1 JN8     -0.470100
     27 C30         3.3340   -2.2380   -4.1060 c3        1 JN8     -0.080400
     28 C31         3.1910   -2.5780   -2.6310 c3        1 JN8     -0.090900
     29 O31         3.7190   -0.0650    0.4810 o         1 JN8     -0.566000
     30 C32        -4.0360    3.5570    0.5690 c3        1 JN8     -0.137100
     31 C33        -3.7920    2.2940   -0.2280 c3        1 JN8      0.114800
     32 H6         -2.8450   -0.5510    2.4870 h1        1 JN8      0.080200
     33 H6A        -2.2030   -2.2260    2.2510 h1        1 JN8      0.080200
     34 H8         -2.1540   -2.1100   -1.4150 h1        1 JN8      0.099700
     35 H8A        -1.7920   -3.1110    0.0720 h1        1 JN8      0.099700
     36 H9         -0.1310   -0.8780   -1.2560 hc        1 JN8      0.098700
     37 H9A         0.3800   -2.4720   -0.5940 hc        1 JN8      0.098700
     38 HN10        3.4830    0.6150    2.5170 hn        1 JN8      0.381500
     39 H12         3.6410    2.0960    5.9240 hc        1 JN8      0.097700
     40 H12A        4.0090    2.8660    4.3190 hc        1 JN8      0.097700
     41 H14         5.6120    1.4200    2.5930 ha        1 JN8      0.159000
     42 H15         7.6050   -0.2400    2.9510 ha        1 JN8      0.166000
     43 H16         7.6150   -1.2300    5.3980 h4        1 JN8      0.183000
     44 H27         4.4170   -1.3390   -1.2700 h1        1 JN8      0.086700
     45 H28         2.6690    0.6090   -2.6070 hc        1 JN8      0.055950
     46 H28A        4.4530    0.4070   -2.7940 hc        1 JN8      0.055950
     47 HN28       -2.5650    1.3650    1.1640 hn        1 JN8      0.454800
     48 H29         2.2650   -0.4160   -4.6430 hc        1 JN8      0.050450
     49 H29A        4.0390   -0.3510   -4.9520 hc        1 JN8      0.050450
     50 H30         4.3150   -2.6140   -4.4940 hc        1 JN8      0.050450
     51 H30A        2.5290   -2.7300   -4.7070 hc        1 JN8      0.050450
     52 H31         3.9160   -3.3710   -2.3250 hc        1 JN8      0.055950
     53 H31A        2.1600   -2.9530   -2.4060 hc        1 JN8      0.055950
     54 H32        -3.1240    3.8780    1.1300 hc        1 JN8      0.078033
     55 H32A       -4.8830    3.4380    1.2880 hc        1 JN8      0.078033
     56 H32B       -4.3050    4.3700   -0.1530 hc        1 JN8      0.078033
     57 H33        -4.7180    2.0040   -0.8070 hx        1 JN8      0.116700
     58 H33A       -2.9540    2.4440   -0.9690 hx        1 JN8      0.116700
     59 H282       -4.1730    0.9660    1.3150 hn        1 JN8      0.454800
@<TRIPOS>BOND
     1    1    2 1   
     2    1    5 2   
     3    1    9 1   
     4    2    3 2   
     5    2   19 1   
     6    3    4 1   
     7    3   10 1   
     8    4    5 1   
     9    5    6 1   
    10    6    7 1   
    11    6   32 1   
    12    6   33 1   
    13    7    8 1   
    14    7   21 1   
    15    8    9 1   
    16    8   34 1   
    17    8   35 1   
    18    9   36 1   
    19    9   37 1   
    20   10   11 1   
    21   10   38 1   
    22   11   12 1   
    23   11   18 2   
    24   12   13 1   
    25   12   39 1   
    26   12   40 1   
    27   13   14 2   
    28   13   17 1   
    29   14   15 1   
    30   14   41 1   
    31   15   16 2   
    32   15   42 1   
    33   16   17 1   
    34   16   43 1   
    35   19   20 1   
    36   19   29 2   
    37   20   22 1   
    38   21   24 1   
    39   21   26 2   
    40   22   23 1   
    41   22   28 1   
    42   22   44 1   
    43   23   25 1   
    44   23   45 1   
    45   23   46 1   
    46   24   31 1   
    47   24   47 1   
    48   24   59 1   
    49   25   27 1   
    50   25   48 1   
    51   25   49 1   
    52   27   28 1   
    53   27   50 1   
    54   27   51 1   
    55   28   52 1   
    56   28   53 1   
    57   30   31 1   
    58   30   54 1   
    59   30   55 1   
    60   30   56 1   
    61   31   57 1   
    62   31   58 1   
@<TRIPOS>SUBSTRUCTURE
     1 JN8         1 TEMP              0 ****  ****    0 ROOT
