@<TRIPOS>MOLECULE
JN8
   58    54     1     0     0
SMALL
bcc


@<TRIPOS>ATOM
      1 C1         -1.0390   -0.4620   -0.1880 c1        1 JN8     -0.115500
      2 C2          0.5360   -0.4230   -0.2190 c1        1 JN8     -0.115500
      3 C3          1.0240   -0.3350    1.1720 c1        1 JN8     -0.332000
      4 S4         -0.2210   -0.3150    2.1170 ss        1 JN8      0.725000
      5 C5         -1.4810   -0.3950    1.2330 c1        1 JN8     -0.332000
      6 C6         -3.0230   -0.4960    1.5200 c2        1 JN8      0.048000
      7 N7         -3.8520   -0.4390    0.4320 n         1 JN8     -0.308000
      8 C8         -3.4480   -1.0930   -0.7500 c3        1 JN8     -0.028000
      9 C9         -2.1180   -0.7560   -1.2570 c2        1 JN8     -0.121000
     10 N10         2.3950   -0.4150    1.5920 n2        1 JN8     -0.283000
     11 C11         2.7150   -0.5640    3.0060 c2        1 JN8      0.300000
     12 C12         4.1500   -0.5340    3.4530 c3        1 JN8     -0.101000
     13 C13         4.2320   -0.7950    5.0010 c2        1 JN8     -0.410000
     14 C14         5.4410   -1.0360    5.7580 c1        1 JN8     -0.154000
     15 C15         5.0490   -1.1970    7.2840 c1        1 JN8     -0.155000
     16 C16         3.6170   -1.0490    7.4040 c1        1 JN8     -0.439000
     17 S17         3.0460   -0.7920    5.9890 ss        1 JN8      0.606000
     18 O18         1.8290   -0.6200    3.8210 o         1 JN8     -0.348000
     19 C19         1.4160   -0.5080   -1.4860 c1        1 JN8      0.384000
     20 O20         2.0820    0.6350   -1.9560 os        1 JN8     -0.302000
     21 C24        -5.0900    0.2710    0.4920 c2        1 JN8      0.369000
     22 C27         2.2300    0.6750   -3.4090 c3        1 JN8      0.043000
     23 C28         3.7160    0.1720   -3.8400 c3        1 JN8     -0.172000
     24 N28        -5.9720    0.2760   -0.6390 n         1 JN8     -0.355000
     25 C29         4.2420    1.2330   -4.8150 c3        1 JN8     -0.157000
     26 O29        -5.4140    0.8240    1.5060 o         1 JN8     -0.401000
     27 C30         3.1670    1.9900   -5.1190 c3        1 JN8     -0.157000
     28 C31         2.1520    1.8850   -3.8330 c3        1 JN8     -0.172000
     29 O31         1.5290   -1.6240   -2.1160 o         1 JN8     -0.365000
     30 C32        -8.0590    0.7440   -1.8180 c3        1 JN8     -0.224000
     31 C33        -7.3910    0.5420   -0.4530 c3        1 JN8     -0.032000
     32 H6         -3.2680    0.2410    2.1330 h4        1 JN8      0.114000
     33 H6A        -3.1950   -1.3710    1.9950 h4        1 JN8      0.114000
     34 H8         -3.4390   -2.0800   -0.5500 h1        1 JN8      0.080000
     35 H8A        -4.1210   -0.8330   -1.4800 h1        1 JN8      0.080000
     36 H9         -2.2130    0.0400   -1.7840 ha        1 JN8      0.120000
     37 H9A        -1.8020   -1.5310   -1.7730 ha        1 JN8      0.120000
     38 HN10        3.0430   -0.3550    0.9970 hn        1 JN8      0.267000
     39 H12         4.6540   -1.2330    2.9770 hc        1 JN8      0.127000
     40 H12A        4.5350    0.3370    3.2500 hc        1 JN8      0.127000
     41 H14         6.3500   -1.0900    5.3880 DU        1 JN8      0.162333
     42 H15         5.6710   -1.3680    8.0180 DU        1 JN8      0.162333
     43 H16         3.0680   -1.1040    8.2870 DU        1 JN8      0.162333
     44 H27         1.5270    0.1060   -3.8450 h1        1 JN8      0.112000
     45 H28         3.6660   -0.6620   -4.2650 hc        1 JN8      0.095000
     46 H28A        4.3030    0.1160   -3.0460 hc        1 JN8      0.095000
     47 HN28       -5.6370    0.1830   -1.4710 hn        1 JN8      0.208000
     48 H29         4.6040    0.8030   -5.6300 hc        1 JN8      0.083750
     49 H29A        4.9000    1.7540   -4.4050 hc        1 JN8      0.083750
     50 H30         2.7300    1.6450   -5.9170 hc        1 JN8      0.083750
     51 H30A        3.4400    2.9280   -5.2610 hc        1 JN8      0.083750
     52 H31         2.4300    2.4970   -3.1380 hc        1 JN8      0.095000
     53 H31A        1.2490    2.0820   -4.1070 hc        1 JN8      0.095000
     54 H32        -9.0880    0.7720   -1.6970 hc        1 JN8      0.081667
     55 H32A       -7.7460    1.6060   -2.2190 hc        1 JN8      0.081667
     56 H32B       -7.8200    0.0020   -2.4110 hc        1 JN8      0.081667
     57 H33        -7.8040   -0.2100   -0.0010 h1        1 JN8      0.092000
     58 H33A       -7.5000    1.3250    0.0720 h1        1 JN8      0.092000
@<TRIPOS>BOND
     1    1    2 1   
     2    1    5 1   
     3    2    3 1   
     4    3    4 1   
     5    4    5 1   
     6    6    7 1   
     7    6   32 1   
     8    6   33 1   
     9    7    8 1   
    10    7   21 1   
    11    8    9 1   
    12    8   34 1   
    13    8   35 1   
    14    9   36 1   
    15    9   37 1   
    16   10   11 1   
    17   10   38 1   
    18   11   12 1   
    19   11   18 1   
    20   12   13 1   
    21   12   39 1   
    22   12   40 1   
    23   13   14 1   
    24   13   17 1   
    25   14   15 1   
    26   15   16 1   
    27   16   17 1   
    28   19   20 1   
    29   19   29 1   
    30   20   22 1   
    31   21   24 1   
    32   21   26 1   
    33   22   23 1   
    34   22   28 1   
    35   22   44 1   
    36   23   25 1   
    37   23   45 1   
    38   23   46 1   
    39   24   31 1   
    40   24   47 1   
    41   25   27 1   
    42   25   48 1   
    43   25   49 1   
    44   27   28 1   
    45   27   50 1   
    46   27   51 1   
    47   28   52 1   
    48   28   53 1   
    49   30   31 1   
    50   30   54 1   
    51   30   55 1   
    52   30   56 1   
    53   31   57 1   
    54   31   58 1   
@<TRIPOS>SUBSTRUCTURE
     1 JN8         1 TEMP              0 ****  ****    0 ROOT
