@<TRIPOS>MOLECULE
JN8
   59    62     1     0     0
SMALL
bcc


@<TRIPOS>ATOM
      1 C1          0.1360   -0.9390    0.8550 cc        1 JN8      0.010700
      2 C2          1.4350   -0.4330    1.1400 cc        1 JN8     -0.244600
      3 C3          1.4810    0.1490    2.4290 cd        1 JN8      0.133500
      4 S4         -0.0310    0.0580    3.1940 ss        1 JN8      0.189200
      5 C5         -0.7500   -0.7040    1.9020 cd        1 JN8     -0.353400
      6 C6         -2.1400   -1.2140    1.8380 c3        1 JN8      0.139300
      7 N7         -2.6220   -1.3160    0.4590 n         1 JN8     -0.352800
      8 C8         -1.7090   -2.1160   -0.3750 c3        1 JN8      0.052000
      9 C9         -0.2630   -1.6090   -0.4000 c3        1 JN8     -0.063100
     10 N10         2.5870    0.7220    3.0080 n         1 JN8     -0.427100
     11 C11         2.5280    1.3120    4.2740 c         1 JN8      0.661100
     12 C12         3.7920    1.9230    4.8430 c3        1 JN8     -0.051100
     13 C13         4.9770    1.0700    4.6900 cc        1 JN8     -0.182400
     14 C14         5.7600    0.9610    3.5510 cd        1 JN8     -0.142000
     15 C15         6.8620    0.0770    3.7520 cd        1 JN8     -0.151000
     16 C16         6.8690   -0.4390    5.0320 cc        1 JN8     -0.158100
     17 S17         5.5950    0.1300    5.9360 ss        1 JN8      0.076200
     18 O18         1.4310    1.3420    4.8680 o         1 JN8     -0.593100
     19 C19         2.5930   -0.4890    0.2600 c         1 JN8      0.680700
     20 O20         2.3710   -1.1190   -0.9300 os        1 JN8     -0.441900
     21 C24        -3.1700   -0.2110   -0.1910 c         1 JN8      0.618100
     22 C27         3.4860   -1.2550   -1.8420 c3        1 JN8      0.146100
     23 C28         3.4870   -0.0980   -2.8450 c3        1 JN8     -0.090900
     24 N28        -3.4370    1.0690    0.6240 n4        1 JN8     -0.673800
     25 C29         3.2900   -0.6960   -4.2300 c3        1 JN8     -0.080400
     26 O29        -3.5860   -0.1720   -1.3500 o         1 JN8     -0.470100
     27 C30         3.3820   -2.2100   -4.0970 c3        1 JN8     -0.080400
     28 C31         3.2400   -2.5510   -2.6220 c3        1 JN8     -0.090900
     29 O31         3.7200   -0.0280    0.4900 o         1 JN8     -0.566000
     30 C32        -4.0910    3.4790    0.5470 c3        1 JN8     -0.137100
     31 C33        -3.8260    2.2190   -0.2480 c3        1 JN8      0.114800
     32 H6         -2.8430   -0.6090    2.4730 h1        1 JN8      0.080200
     33 H6A        -2.1760   -2.2740    2.2400 h1        1 JN8      0.080200
     34 H8         -2.1160   -2.1600   -1.4250 h1        1 JN8      0.099700
     35 H8A        -1.7440   -3.1540    0.0640 h1        1 JN8      0.099700
     36 H9          0.4200   -2.4840   -0.5950 hc        1 JN8      0.098700
     37 H9A        -0.1110   -0.8990   -1.2600 hc        1 JN8      0.098700
     38 HN10        3.4670    0.6500    2.5240 hn        1 JN8      0.381500
     39 H12         3.5900    2.1390    5.9290 hc        1 JN8      0.097700
     40 H12A        3.9530    2.9100    4.3250 hc        1 JN8      0.097700
     41 H14         5.5840    1.4850    2.6080 ha        1 JN8      0.159000
     42 H15         7.5980   -0.1470    2.9770 ha        1 JN8      0.166000
     43 H16         7.6120   -1.1320    5.4260 h4        1 JN8      0.183000
     44 H27         4.4420   -1.2940   -1.2570 h1        1 JN8      0.086700
     45 H28         4.4610    0.4500   -2.7830 hc        1 JN8      0.055950
     46 H28A        2.6740    0.6290   -2.6020 hc        1 JN8      0.055950
     47 HN28       -2.5880    1.3110    1.1490 hn        1 JN8      0.454800
     48 H29         2.2890   -0.4030   -4.6380 hc        1 JN8      0.050450
     49 H29A        4.0630   -0.3130   -4.9420 hc        1 JN8      0.050450
     50 H30         4.3700   -2.5720   -4.4810 hc        1 JN8      0.050450
     51 H30A        2.5860   -2.7130   -4.7000 hc        1 JN8      0.050450
     52 H31         3.9750   -3.3330   -2.3130 hc        1 JN8      0.055950
     53 H31A        2.2130   -2.9410   -2.4000 hc        1 JN8      0.055950
     54 H32        -4.9370    3.3480    1.2640 hc        1 JN8      0.078033
     55 H32A       -3.1860    3.8150    1.1090 hc        1 JN8      0.078033
     56 H32B       -4.3710    4.2870   -0.1760 hc        1 JN8      0.078033
     57 H33        -4.7460    1.9140   -0.8290 hx        1 JN8      0.116700
     58 H33A       -2.9890    2.3810   -0.9870 hx        1 JN8      0.116700
     59 H282       -4.1890    0.8870    1.2950 hn        1 JN8      0.454800
@<TRIPOS>BOND
     1    1    2 1   
     2    1    5 2   
     3    1    9 1   
     4    2    3 2   
     5    2   19 1   
     6    3    4 1   
     7    3   10 1   
     8    4    5 1   
     9    5    6 1   
    10    6    7 1   
    11    6   32 1   
    12    6   33 1   
    13    7    8 1   
    14    7   21 1   
    15    8    9 1   
    16    8   34 1   
    17    8   35 1   
    18    9   36 1   
    19    9   37 1   
    20   10   11 1   
    21   10   38 1   
    22   11   12 1   
    23   11   18 2   
    24   12   13 1   
    25   12   39 1   
    26   12   40 1   
    27   13   14 2   
    28   13   17 1   
    29   14   15 1   
    30   14   41 1   
    31   15   16 2   
    32   15   42 1   
    33   16   17 1   
    34   16   43 1   
    35   19   20 1   
    36   19   29 2   
    37   20   22 1   
    38   21   24 1   
    39   21   26 2   
    40   22   23 1   
    41   22   28 1   
    42   22   44 1   
    43   23   25 1   
    44   23   45 1   
    45   23   46 1   
    46   24   31 1   
    47   24   47 1   
    48   24   59 1   
    49   25   27 1   
    50   25   48 1   
    51   25   49 1   
    52   27   28 1   
    53   27   50 1   
    54   27   51 1   
    55   28   52 1   
    56   28   53 1   
    57   30   31 1   
    58   30   54 1   
    59   30   55 1   
    60   30   56 1   
    61   31   57 1   
    62   31   58 1   
@<TRIPOS>SUBSTRUCTURE
     1 JN8         1 TEMP              0 ****  ****    0 ROOT
