@<TRIPOS>MOLECULE
JN8
   60    63     1     0     0
SMALL
bcc


@<TRIPOS>ATOM
      1 C1          0.3390   -0.2550    0.6840 cc        1 JN8     -0.014300
      2 C2          1.6970   -0.1660    1.0930 cc        1 JN8     -0.104600
      3 C3          1.7890    0.1070    2.4740 cd        1 JN8     -0.077500
      4 S4          0.2690    0.2460    3.1680 ss        1 JN8      0.299200
      5 C5         -0.5310   -0.0370    1.7570 cd        1 JN8     -0.223400
      6 C6         -2.0140   -0.1170    1.6010 c3        1 JN8      0.159300
      7 N7         -2.4550   -0.0820    0.2150 n         1 JN8     -0.401800
      8 C8         -1.6280   -0.8870   -0.6920 c3        1 JN8      0.066000
      9 C9         -0.1410   -0.5360   -0.6820 c3        1 JN8     -0.063100
     10 N10         3.0320    0.2440    3.1850 n4        1 JN8     -0.529200
     11 C11         3.4280    1.6840    3.5330 c         1 JN8      0.560100
     12 C12         4.9130    1.9260    3.6320 c3        1 JN8     -0.041100
     13 C13         5.6870    0.7650    4.0720 cc        1 JN8     -0.286400
     14 C14         6.1510   -0.2500    3.2340 cd        1 JN8     -0.143000
     15 C15         6.9680   -1.1750    3.9370 cd        1 JN8     -0.151000
     16 C16         7.1070   -0.8130    5.2680 cc        1 JN8     -0.141100
     17 S17         6.2890    0.5780    5.6230 ss        1 JN8      0.153200
     18 O18         2.5200    2.4810    3.6840 o         1 JN8     -0.424100
     19 C19         2.8700   -0.3460    0.2240 c         1 JN8      0.671700
     20 O20         2.5940   -0.5380   -1.0800 os        1 JN8     -0.412900
     21 C24        -3.0870    1.0150   -0.3570 c         1 JN8      0.622100
     22 C27         3.7140   -0.7280   -2.0000 c3        1 JN8      0.148100
     23 C28         3.2050   -0.2610   -3.3660 c3        1 JN8     -0.093400
     24 N28        -4.0990    1.8140    0.4580 n4        1 JN8     -0.663800
     25 C29         3.2790   -1.4570   -4.3050 c3        1 JN8     -0.082400
     26 O29        -3.0450    1.3630   -1.5410 o         1 JN8     -0.460100
     27 C30         4.0340   -2.5640   -3.5840 c3        1 JN8     -0.082400
     28 C31         4.0530   -2.2150   -2.1030 c3        1 JN8     -0.093400
     29 O31         4.0470   -0.3180    0.6220 o         1 JN8     -0.580000
     30 C32        -6.3860    1.8160    1.4730 c3        1 JN8     -0.143100
     31 C33        -5.3030    0.9930    0.8110 c3        1 JN8      0.115800
     32 H6         -2.5000    0.6940    2.2120 h1        1 JN8      0.083700
     33 H6A        -2.3670   -1.1160    2.0090 h1        1 JN8      0.083700
     34 H8         -1.7710   -1.9540   -0.3490 h1        1 JN8      0.107700
     35 H8A        -2.0240   -0.7940   -1.7450 h1        1 JN8      0.107700
     36 H9          0.0670    0.3540   -1.3400 hc        1 JN8      0.113200
     37 H9A         0.4300   -1.3990   -1.1300 hc        1 JN8      0.113200
     38 HN10        2.9940   -0.2960    4.0590 hn        1 JN8      0.490800
     39 H12         5.2490    2.2610    2.6040 hc        1 JN8      0.132200
     40 H12A        5.0470    2.8020    4.3320 hc        1 JN8      0.132200
     41 H14         5.9570   -0.3200    2.1570 ha        1 JN8      0.174000
     42 H15         7.4370   -2.0460    3.4710 ha        1 JN8      0.184000
     43 H16         7.7010   -1.3650    6.0030 h4        1 JN8      0.205000
     44 H27         4.5820   -0.1190   -1.6370 h1        1 JN8      0.087700
     45 H28         2.1570    0.1240   -3.2860 hc        1 JN8      0.061700
     46 H28A        3.8480    0.5780   -3.7340 hc        1 JN8      0.061700
     47 HN28       -3.6770    2.1990    1.3060 hn        1 JN8      0.464800
     48 H29         2.2480   -1.8010   -4.5750 hc        1 JN8      0.061950
     49 H29A        3.7960   -1.1790   -5.2580 hc        1 JN8      0.061950
     50 H30         5.0820   -2.6370   -3.9740 hc        1 JN8      0.061950
     51 H30A        3.5480   -3.5570   -3.7520 hc        1 JN8      0.061950
     52 H31         5.0550   -2.4190   -1.6510 hc        1 JN8      0.061700
     53 H31A        3.2960   -2.8210   -1.5440 hc        1 JN8      0.061700
     54 H32        -6.0420    2.2660    2.4360 hc        1 JN8      0.088367
     55 H32A       -6.7600    2.6300    0.8030 hc        1 JN8      0.088367
     56 H32B       -7.2480    1.1340    1.6960 hc        1 JN8      0.088367
     57 H33        -5.6900    0.5370   -0.1470 hx        1 JN8      0.111700
     58 H33A       -4.9640    0.1640    1.4960 hx        1 JN8      0.111700
     59 H102        3.8070   -0.1540    2.6020 hn        1 JN8      0.490800
     60 H282       -4.3990    2.6030   -0.1400 hn        1 JN8      0.464800
@<TRIPOS>BOND
     1    1    2 1   
     2    1    5 2   
     3    1    9 1   
     4    2    3 2   
     5    2   19 1   
     6    3    4 1   
     7    3   10 1   
     8    4    5 1   
     9    5    6 1   
    10    6    7 1   
    11    6   32 1   
    12    6   33 1   
    13    7    8 1   
    14    7   21 1   
    15    8    9 1   
    16    8   34 1   
    17    8   35 1   
    18    9   36 1   
    19    9   37 1   
    20   10   11 1   
    21   10   38 1   
    22   10   59 1   
    23   11   12 1   
    24   11   18 2   
    25   12   13 1   
    26   12   39 1   
    27   12   40 1   
    28   13   14 2   
    29   13   17 1   
    30   14   15 1   
    31   14   41 1   
    32   15   16 2   
    33   15   42 1   
    34   16   17 1   
    35   16   43 1   
    36   19   20 1   
    37   19   29 2   
    38   20   22 1   
    39   21   24 1   
    40   21   26 2   
    41   22   23 1   
    42   22   28 1   
    43   22   44 1   
    44   23   25 1   
    45   23   45 1   
    46   23   46 1   
    47   24   31 1   
    48   24   47 1   
    49   24   60 1   
    50   25   27 1   
    51   25   48 1   
    52   25   49 1   
    53   27   28 1   
    54   27   50 1   
    55   27   51 1   
    56   28   52 1   
    57   28   53 1   
    58   30   31 1   
    59   30   54 1   
    60   30   55 1   
    61   30   56 1   
    62   31   57 1   
    63   31   58 1   
@<TRIPOS>SUBSTRUCTURE
     1 JN8         1 TEMP              0 ****  ****    0 ROOT
