@<TRIPOS>MOLECULE
JN8
   58    61     1     0     0
SMALL
bcc


@<TRIPOS>ATOM
      1 C1          1.1080    0.0450   -0.9120 cc        1 JN8      0.000700
      2 C2         -0.1960   -0.0470   -0.3320 cc        1 JN8     -0.243600
      3 C3         -0.6930    1.2340    0.0050 cd        1 JN8      0.103500
      4 S4          0.4300    2.4380   -0.3840 ss        1 JN8      0.155200
      5 C5          1.5440    1.3570   -0.9850 cd        1 JN8     -0.248400
      6 C6          2.8680    1.7250   -1.5590 c3        1 JN8      0.159300
      7 N7          3.7980    0.6110   -1.6700 n         1 JN8     -0.415800
      8 C8          3.1580   -0.6020   -2.1610 c3        1 JN8      0.068000
      9 C9          1.9440   -1.0860   -1.3600 c3        1 JN8     -0.053100
     10 N10        -1.9280    1.4630    0.5760 n         1 JN8     -0.433100
     11 C11        -2.4100    2.7140    0.9390 c         1 JN8      0.659100
     12 C12        -3.7800    2.7610    1.5990 c3        1 JN8     -0.064100
     13 C13        -4.8260    2.0880    0.8190 cc        1 JN8     -0.149400
     14 C14        -5.0700    0.7260    0.7740 cd        1 JN8     -0.144000
     15 C15        -6.1860    0.4170   -0.0620 cd        1 JN8     -0.152000
     16 C16        -6.7400    1.5550   -0.6100 cc        1 JN8     -0.167100
     17 S17        -5.9340    2.9290   -0.1270 ss        1 JN8      0.044200
     18 O18        -1.7330    3.7440    0.7610 o         1 JN8     -0.591100
     19 C19        -0.9390   -1.2710   -0.0910 c         1 JN8      0.688700
     20 O20        -0.3010   -2.4160   -0.4810 os        1 JN8     -0.427900
     21 C24         4.7610    0.4020   -0.6260 c         1 JN8      0.729100
     22 C27        -0.9800   -3.6700   -0.2760 c3        1 JN8      0.148100
     23 C28        -0.6190   -4.2530    1.0930 c3        1 JN8     -0.092400
     24 N28         5.4120    1.5050   -0.0540 n         1 JN8     -0.545900
     25 C29        -0.2210   -5.7010    0.8590 c3        1 JN8     -0.077900
     26 O29         5.0610   -0.7580   -0.2560 o         1 JN8     -0.630100
     27 C30         0.1080   -5.8500   -0.6200 c3        1 JN8     -0.077900
     28 C31        -0.4420   -4.6300   -1.3440 c3        1 JN8     -0.092400
     29 O31        -2.0660   -1.3820    0.4200 o         1 JN8     -0.599000
     30 C32         7.1470    2.5040    1.3960 c3        1 JN8     -0.106100
     31 C33         6.5820    1.2480    0.7550 c3        1 JN8      0.085000
     32 H6          2.7090    2.0990   -2.6160 h1        1 JN8      0.060200
     33 H6A         3.3090    2.5720   -0.9650 h1        1 JN8      0.060200
     34 H8          2.8340   -0.3720   -3.2160 h1        1 JN8      0.069200
     35 H8A         3.9230   -1.4290   -2.1920 h1        1 JN8      0.069200
     36 H9          2.2860   -1.6650   -0.4580 hc        1 JN8      0.081200
     37 H9A         1.3430   -1.7900   -1.9960 hc        1 JN8      0.081200
     38 HN10       -2.5230    0.6620    0.6990 hn        1 JN8      0.366500
     39 H12        -3.6910    2.2890    2.6170 hc        1 JN8      0.088700
     40 H12A       -4.0310    3.8480    1.7490 hc        1 JN8      0.088700
     41 H14        -4.4950   -0.0410    1.3000 ha        1 JN8      0.166000
     42 H15        -6.5370   -0.6030   -0.2330 ha        1 JN8      0.159000
     43 H16        -7.5990    1.5790   -1.2790 h4        1 JN8      0.174000
     44 H27        -2.0870   -3.5170   -0.3770 h1        1 JN8      0.075700
     45 H28         0.2320   -3.6750    1.5360 hc        1 JN8      0.056950
     46 H28A       -1.4860   -4.1740    1.7920 hc        1 JN8      0.056950
     47 HN28        5.4160    2.3620   -0.5590 hn        1 JN8      0.297500
     48 H29         0.6560   -5.9790    1.4940 hc        1 JN8      0.044200
     49 H29A       -1.0640   -6.3830    1.1380 hc        1 JN8      0.044200
     50 H30         1.2160   -5.9160   -0.7650 hc        1 JN8      0.044200
     51 H30A       -0.3380   -6.7890   -1.0320 hc        1 JN8      0.044200
     52 H31        -1.2660   -4.9140   -2.0430 hc        1 JN8      0.056950
     53 H31A        0.3580   -4.1270   -1.9460 hc        1 JN8      0.056950
     54 H32         8.0310    2.2170    2.0160 hc        1 JN8      0.042700
     55 H32A        7.4790    3.2410    0.6260 hc        1 JN8      0.042700
     56 H32B        6.3940    2.9960    2.0570 hc        1 JN8      0.042700
     57 H33         6.2850    0.5110    1.5560 h1        1 JN8      0.052700
     58 H33A        7.3860    0.7550    0.1340 h1        1 JN8      0.052700
@<TRIPOS>BOND
     1    1    2 1   
     2    1    5 2   
     3    1    9 1   
     4    2    3 2   
     5    2   19 1   
     6    3    4 1   
     7    3   10 1   
     8    4    5 1   
     9    5    6 1   
    10    6    7 1   
    11    6   32 1   
    12    6   33 1   
    13    7    8 1   
    14    7   21 1   
    15    8    9 1   
    16    8   34 1   
    17    8   35 1   
    18    9   36 1   
    19    9   37 1   
    20   10   11 1   
    21   10   38 1   
    22   11   12 1   
    23   11   18 2   
    24   12   13 1   
    25   12   39 1   
    26   12   40 1   
    27   13   14 2   
    28   13   17 1   
    29   14   15 1   
    30   14   41 1   
    31   15   16 2   
    32   15   42 1   
    33   16   17 1   
    34   16   43 1   
    35   19   20 1   
    36   19   29 2   
    37   20   22 1   
    38   21   24 1   
    39   21   26 2   
    40   22   23 1   
    41   22   28 1   
    42   22   44 1   
    43   23   25 1   
    44   23   45 1   
    45   23   46 1   
    46   24   31 1   
    47   24   47 1   
    48   25   27 1   
    49   25   48 1   
    50   25   49 1   
    51   27   28 1   
    52   27   50 1   
    53   27   51 1   
    54   28   52 1   
    55   28   53 1   
    56   30   31 1   
    57   30   54 1   
    58   30   55 1   
    59   30   56 1   
    60   31   57 1   
    61   31   58 1   
@<TRIPOS>SUBSTRUCTURE
     1 JN8         1 TEMP              0 ****  ****    0 ROOT
