@<TRIPOS>MOLECULE
JNF
   44    47     1     0     0
SMALL
bcc


@<TRIPOS>ATOM
      1 C01        -2.2120    1.8800    0.6770 c3        1 JNF      0.194100
      2 N02        -2.3400    0.4480    0.5480 nh        1 JNF     -0.736300
      3 C03        -1.2120   -0.2760    0.1040 ca        1 JNF      0.884900
      4 N04        -0.0050    0.4070    0.0050 nb        1 JNF     -0.749000
      5 C05         1.0930   -0.3210   -0.3120 ca        1 JNF      0.579100
      6 C06         2.3520    0.3980   -0.4390 cc        1 JNF     -0.278900
      7 N07         3.6220   -0.0830   -0.0950 na        1 JNF      0.036700
      8 C08         4.5530    0.9610   -0.4250 cc        1 JNF     -0.024300
      9 C09         5.9450    0.7470   -0.1680 cc        1 JNF     -0.093000
     10 C10         6.3470   -0.4310    0.4040 cd        1 JNF     -0.119000
     11 C11         5.3960   -1.4330    0.7480 cd        1 JNF     -0.166000
     12 C12         4.0540   -1.2440    0.5010 cc        1 JNF     -0.073300
     13 N13         3.8970    2.0440   -0.9520 nd        1 JNF     -0.290600
     14 C14         2.5630    1.7100   -0.9520 cd        1 JNF      0.076600
     15 C15         1.0320   -1.7110   -0.5570 ca        1 JNF     -0.436600
     16 C16        -0.2340   -2.3120   -0.4490 ca        1 JNF      0.468200
     17 N17        -1.3490   -1.6460   -0.1300 nb        1 JNF     -0.749000
     18 C18        -3.6780   -0.0590    0.2450 c3        1 JNF      0.212500
     19 C19        -4.3120    0.5890   -1.0000 c3        1 JNF     -0.089900
     20 C20        -5.6490   -0.0540   -1.3020 c3        1 JNF     -0.076400
     21 C21        -6.5920    0.0430   -0.1200 c3        1 JNF     -0.079400
     22 C22        -5.9660   -0.5430    1.1280 c3        1 JNF     -0.076400
     23 C23        -4.6360    0.1120    1.4410 c3        1 JNF     -0.089900
     24 H01        -1.9880    2.3750   -0.3070 h1        1 JNF      0.046367
     25 H01A       -3.1730    2.2980    1.0780 h1        1 JNF      0.046367
     26 H01B       -1.3890    2.1220    1.4000 h1        1 JNF      0.046367
     27 H09         6.6460    1.5490   -0.4380 ha        1 JNF      0.166000
     28 H10         7.4100   -0.6200    0.6110 ha        1 JNF      0.145000
     29 H11         5.7350   -2.3650    1.2200 ha        1 JNF      0.152000
     30 H12         3.2800   -1.9830    0.7700 h4        1 JNF      0.172000
     31 H14         1.7920    2.3940   -1.3120 h4        1 JNF      0.193000
     32 H15         1.9110   -2.2890   -0.8570 ha        1 JNF      0.151000
     33 H16        -0.3660   -3.3940   -0.6350 h4        1 JNF      0.024100
     34 H18        -3.6150   -1.1710    0.0490 h1        1 JNF      0.094700
     35 H19        -4.4510    1.6880   -0.8290 hc        1 JNF      0.046700
     36 H19A       -3.6310    0.4640   -1.8810 hc        1 JNF      0.046700
     37 H20        -6.1090    0.4500   -2.1910 hc        1 JNF      0.043700
     38 H20A       -5.4940   -1.1330   -1.5690 hc        1 JNF      0.043700
     39 H21        -6.8540    1.1180    0.0620 hc        1 JNF      0.040700
     40 H21A       -7.5440   -0.5010   -0.3550 hc        1 JNF      0.040700
     41 H22        -6.6590   -0.4010    1.9980 hc        1 JNF      0.043700
     42 H22A       -5.8200   -1.6470    0.9920 hc        1 JNF      0.043700
     43 H23        -4.1900   -0.3600    2.3540 hc        1 JNF      0.046700
     44 H23A       -4.8010    1.1970    1.6620 hc        1 JNF      0.046700
@<TRIPOS>BOND
     1    1    2 1   
     2    1   24 1   
     3    1   25 1   
     4    1   26 1   
     5    2    3 1   
     6    2   18 1   
     7    3    4 ar  
     8    3   17 ar  
     9    4    5 ar  
    10    5    6 1   
    11    5   15 ar  
    12    6    7 1   
    13    6   14 2   
    14    7    8 1   
    15    7   12 1   
    16    8    9 1   
    17    8   13 2   
    18    9   10 2   
    19    9   27 1   
    20   10   11 1   
    21   10   28 1   
    22   11   12 2   
    23   11   29 1   
    24   12   30 1   
    25   13   14 1   
    26   14   31 1   
    27   15   16 ar  
    28   15   32 1   
    29   16   17 ar  
    30   16   33 1   
    31   18   19 1   
    32   18   23 1   
    33   18   34 1   
    34   19   20 1   
    35   19   35 1   
    36   19   36 1   
    37   20   21 1   
    38   20   37 1   
    39   20   38 1   
    40   21   22 1   
    41   21   39 1   
    42   21   40 1   
    43   22   23 1   
    44   22   41 1   
    45   22   42 1   
    46   23   43 1   
    47   23   44 1   
@<TRIPOS>SUBSTRUCTURE
     1 JNF         1 TEMP              0 ****  ****    0 ROOT
