@<TRIPOS>MOLECULE
JNF
   45    48     1     0     0
SMALL
bcc


@<TRIPOS>ATOM
      1 C01         0.0850   -1.6810    0.6940 c3        1 JNF      0.094100
      2 N02         0.7950   -0.5290    0.0890 n4        1 JNF     -0.665100
      3 C03         1.4560   -0.9200   -1.2030 ca        1 JNF      0.729900
      4 N04         1.1310   -0.1370   -2.2740 nb        1 JNF     -0.710000
      5 C05         1.7160   -0.4740   -3.4680 ca        1 JNF      0.612100
      6 C06         1.3640    0.3150   -4.6130 cc        1 JNF     -0.358900
      7 N07         2.1040    0.5030   -5.7950 na        1 JNF      0.057700
      8 C08         1.2960    1.3190   -6.6490 cc        1 JNF      0.009700
      9 C09         1.7930    1.6940   -7.9320 cc        1 JNF     -0.087000
     10 C10         3.0510    1.2870   -8.3050 cd        1 JNF     -0.094000
     11 C11         3.8510    0.5180   -7.4210 cd        1 JNF     -0.137000
     12 C12         3.3740    0.1460   -6.1780 cc        1 JNF     -0.090300
     13 N13         0.0940    1.6330   -6.0350 nd        1 JNF     -0.271600
     14 C14         0.1380    1.0450   -4.8110 cd        1 JNF      0.123600
     15 C15         2.5960   -1.5890   -3.5460 ca        1 JNF     -0.351600
     16 C16         2.8610   -2.3040   -2.3720 ca        1 JNF      0.463200
     17 N17         2.3090   -1.9930   -1.1770 nb        1 JNF     -0.693000
     18 C18         1.7960    0.1360    1.0230 c3        1 JNF      0.140500
     19 C19         2.5250   -0.8410    1.9480 c3        1 JNF     -0.098400
     20 C20         3.5680   -0.0810    2.7480 c3        1 JNF     -0.078400
     21 C21         2.9410    1.0370    3.5530 c3        1 JNF     -0.090400
     22 C22         2.1430    1.9710    2.6700 c3        1 JNF     -0.078400
     23 C23         1.1020    1.2220    1.8590 c3        1 JNF     -0.098400
     24 H01         0.8060   -2.5040    0.9480 hx        1 JNF      0.105367
     25 H01A       -0.4260   -1.3280    1.6300 hx        1 JNF      0.105367
     26 H01B       -0.6750   -2.0680   -0.0380 hx        1 JNF      0.105367
     27 H09         1.1470    2.3060   -8.5810 ha        1 JNF      0.186000
     28 H10         3.4590    1.5600   -9.2920 ha        1 JNF      0.167000
     29 H11         4.8660    0.2170   -7.7210 ha        1 JNF      0.170000
     30 H12         3.9850   -0.4200   -5.4560 h4        1 JNF      0.168000
     31 H14        -0.6850    1.1260   -4.0950 h4        1 JNF      0.195000
     32 H15         3.0240   -1.9130   -4.5040 ha        1 JNF      0.181000
     33 H16         3.5390   -3.1810   -2.3620 h4        1 JNF      0.062100
     34 H18         2.5590    0.6350    0.3490 hx        1 JNF      0.107700
     35 H19         3.0270   -1.6520    1.3600 hc        1 JNF      0.066200
     36 H19A        1.7960   -1.3190    2.6550 hc        1 JNF      0.066200
     37 H20         4.0840   -0.8000    3.4370 hc        1 JNF      0.065450
     38 H20A        4.3450    0.3370    2.0560 hc        1 JNF      0.065450
     39 H21         2.2740    0.6040    4.3450 hc        1 JNF      0.064200
     40 H21A        3.7470    1.6170    4.0760 hc        1 JNF      0.064200
     41 H22         1.6220    2.7380    3.3030 hc        1 JNF      0.065450
     42 H22A        2.8340    2.5220    1.9770 hc        1 JNF      0.065450
     43 H23         0.3530    0.7540    2.5510 hc        1 JNF      0.066200
     44 H23A        0.5630    1.9500    1.1970 hc        1 JNF      0.066200
     45 H021        0.0860    0.1890   -0.1410 hn        1 JNF      0.465800
@<TRIPOS>BOND
     1    1    2 1   
     2    1   24 1   
     3    1   25 1   
     4    1   26 1   
     5    2    3 1   
     6    2   18 1   
     7    2   45 1   
     8    3    4 ar  
     9    3   17 ar  
    10    4    5 ar  
    11    5    6 1   
    12    5   15 ar  
    13    6    7 1   
    14    6   14 2   
    15    7    8 1   
    16    7   12 1   
    17    8    9 1   
    18    8   13 2   
    19    9   10 2   
    20    9   27 1   
    21   10   11 1   
    22   10   28 1   
    23   11   12 2   
    24   11   29 1   
    25   12   30 1   
    26   13   14 1   
    27   14   31 1   
    28   15   16 ar  
    29   15   32 1   
    30   16   17 ar  
    31   16   33 1   
    32   18   19 1   
    33   18   23 1   
    34   18   34 1   
    35   19   20 1   
    36   19   35 1   
    37   19   36 1   
    38   20   21 1   
    39   20   37 1   
    40   20   38 1   
    41   21   22 1   
    42   21   39 1   
    43   21   40 1   
    44   22   23 1   
    45   22   41 1   
    46   22   42 1   
    47   23   43 1   
    48   23   44 1   
@<TRIPOS>SUBSTRUCTURE
     1 JNF         1 TEMP              0 ****  ****    0 ROOT
