@<TRIPOS>MOLECULE
JNF
   44    47     1     0     0
SMALL
bcc


@<TRIPOS>ATOM
      1 C01         0.1380    0.5880   -0.1110 c3        1 JNF      0.194100
      2 N02         1.5780    0.5330   -0.0360 nh        1 JNF     -0.736300
      3 C03         2.2830    0.1450   -1.1960 ca        1 JNF      0.884900
      4 N04         1.5630    0.0310   -2.3810 nb        1 JNF     -0.749000
      5 C05         2.2680   -0.2300   -3.5090 ca        1 JNF      0.579100
      6 C06         1.5110   -0.3720   -4.7450 cc        1 JNF     -0.278900
      7 N07         1.9290    0.0180   -6.0240 na        1 JNF      0.036700
      8 C08         0.8710   -0.3490   -6.9240 cc        1 JNF     -0.024300
      9 C09         1.0220   -0.0570   -8.3180 cc        1 JNF     -0.093000
     10 C10         2.1550    0.5790   -8.7490 cd        1 JNF     -0.119000
     11 C11         3.1720    0.9580   -7.8270 cd        1 JNF     -0.166000
     12 C12         3.0430    0.6790   -6.4850 cc        1 JNF     -0.073300
     13 N13        -0.1610   -0.9410   -6.2410 nd        1 JNF     -0.290600
     14 C14         0.2200   -0.9470   -4.9200 cd        1 JNF      0.076600
     15 C15         3.6690   -0.4050   -3.5010 ca        1 JNF     -0.436600
     16 C16         4.3080   -0.2880   -2.2540 ca        1 JNF      0.468200
     17 N17         3.6670   -0.0220   -1.1110 nb        1 JNF     -0.749000
     18 C18         2.1480    0.2360    1.2780 c3        1 JNF      0.212500
     19 C19         1.5890   -1.0510    1.9110 c3        1 JNF     -0.089900
     20 C20         2.2950   -1.3390    3.2200 c3        1 JNF     -0.076400
     21 C21         2.1700   -0.1800    4.1860 c3        1 JNF     -0.079400
     22 C22         2.6660    1.1080    3.5630 c3        1 JNF     -0.076400
     23 C23         1.9490    1.4060    2.2620 c3        1 JNF     -0.089900
     24 H01        -0.2660    0.9500    0.8700 h1        1 JNF      0.046367
     25 H01A       -0.1710    1.3120   -0.9120 h1        1 JNF      0.046367
     26 H01B       -0.3140   -0.4160   -0.3370 h1        1 JNF      0.046367
     27 H09         0.2100   -0.3560   -8.9960 ha        1 JNF      0.166000
     28 H10         2.2960    0.8140   -9.8150 ha        1 JNF      0.145000
     29 H11         4.0670    1.4820   -8.1890 ha        1 JNF      0.152000
     30 H12         3.7950    0.9710   -5.7310 h4        1 JNF      0.172000
     31 H14        -0.4180   -1.3540   -4.1320 h4        1 JNF      0.193000
     32 H15         4.2300   -0.6610   -4.4040 ha        1 JNF      0.151000
     33 H16         5.4020   -0.4210   -2.1630 h4        1 JNF      0.024100
     34 H18         3.2660    0.1010    1.1730 h1        1 JNF      0.094700
     35 H19         1.7360   -1.9140    1.2110 hc        1 JNF      0.046700
     36 H19A        0.4880   -0.9420    2.0920 hc        1 JNF      0.046700
     37 H20         1.8550   -2.2620    3.6810 hc        1 JNF      0.043700
     38 H20A        3.3800   -1.5470    3.0230 hc        1 JNF      0.043700
     39 H21         1.0970   -0.0590    4.4890 hc        1 JNF      0.040700
     40 H21A        2.7590   -0.4000    5.1150 hc        1 JNF      0.040700
     41 H22         2.5030    1.9580    4.2760 hc        1 JNF      0.043700
     42 H22A        3.7700    1.0330    3.3760 hc        1 JNF      0.043700
     43 H23         0.8600    1.5670    2.4690 hc        1 JNF      0.046700
     44 H23A        2.3560    2.3500    1.8150 hc        1 JNF      0.046700
@<TRIPOS>BOND
     1    1    2 1   
     2    1   24 1   
     3    1   25 1   
     4    1   26 1   
     5    2    3 1   
     6    2   18 1   
     7    3    4 ar  
     8    3   17 ar  
     9    4    5 ar  
    10    5    6 1   
    11    5   15 ar  
    12    6    7 1   
    13    6   14 2   
    14    7    8 1   
    15    7   12 1   
    16    8    9 1   
    17    8   13 2   
    18    9   10 2   
    19    9   27 1   
    20   10   11 1   
    21   10   28 1   
    22   11   12 2   
    23   11   29 1   
    24   12   30 1   
    25   13   14 1   
    26   14   31 1   
    27   15   16 ar  
    28   15   32 1   
    29   16   17 ar  
    30   16   33 1   
    31   18   19 1   
    32   18   23 1   
    33   18   34 1   
    34   19   20 1   
    35   19   35 1   
    36   19   36 1   
    37   20   21 1   
    38   20   37 1   
    39   20   38 1   
    40   21   22 1   
    41   21   39 1   
    42   21   40 1   
    43   22   23 1   
    44   22   41 1   
    45   22   42 1   
    46   23   43 1   
    47   23   44 1   
@<TRIPOS>SUBSTRUCTURE
     1 JNF         1 TEMP              0 ****  ****    0 ROOT
