@<TRIPOS>MOLECULE
JNF
   44    39     1     0     0
SMALL
bcc


@<TRIPOS>ATOM
      1 C01        -2.3880   -0.9630    1.0420 c3        1 JNF     -0.088000
      2 N02        -0.9570   -1.0340    1.0990 n3        1 JNF     -0.220000
      3 C03        -0.1750   -1.0680   -0.1350 c2        1 JNF      0.161000
      4 N04        -0.4500   -0.1860   -1.1420 n1        1 JNF     -0.220000
      5 C05         0.2110   -0.2660   -2.3010 c1        1 JNF      0.140000
      6 C06        -0.0730    0.6150   -3.3180 c1        1 JNF     -0.143000
      7 N07         0.6230    1.7440   -3.6020 n2        1 JNF     -0.039000
      8 C08        -0.0030    2.3770   -4.6290 c1        1 JNF      0.000000
      9 C09         0.5600    3.5470   -5.1850 c1        1 JNF     -0.106750
     10 C10         1.7330    4.0410   -4.6900 c1        1 JNF     -0.106750
     11 C11         2.3640    3.3990   -3.6510 c1        1 JNF     -0.106750
     12 C12         1.8060    2.2440   -3.1020 c1        1 JNF     -0.106750
     13 N13        -1.1100    1.6220   -4.9870 n1        1 JNF     -0.150000
     14 C14        -1.1550    0.5470   -4.1890 c1        1 JNF     -0.063000
     15 C15         1.1720   -1.2430   -2.4820 c1        1 JNF     -0.305000
     16 C16         1.4460   -2.1230   -1.4770 c1        1 JNF      0.002000
     17 N17         0.7810   -2.0390   -0.3130 n2        1 JNF     -0.223000
     18 C18        -0.3830   -1.0950    2.1960 c3        1 JNF      0.014000
     19 C19        -0.9960   -2.2230    3.1260 c3        1 JNF     -0.169500
     20 C20        -0.3260   -2.3000    4.4960 c3        1 JNF     -0.152500
     21 C21         0.3380   -1.1580    4.7890 c3        1 JNF     -0.159000
     22 C22        -0.0960    0.1000    4.4980 c3        1 JNF     -0.152500
     23 C23        -0.7640    0.1580    3.1460 c3        1 JNF     -0.169500
     24 H01        -2.7380   -1.7820    0.6560 h1        1 JNF      0.086667
     25 H01A       -2.7520   -0.8470    1.9610 h1        1 JNF      0.086667
     26 H01B       -2.6550   -0.2020    0.4880 h1        1 JNF      0.086667
     27 H09         0.1050    4.0080   -5.9330 ha        1 JNF      0.158500
     28 H10         2.1140    4.8290   -5.0630 ha        1 JNF      0.158500
     29 H11         3.2000    3.7500   -3.2970 ha        1 JNF      0.158500
     30 H12         2.2400    1.8040   -2.3890 ha        1 JNF      0.158500
     31 H14        -1.8950   -0.1310   -4.1570 DU        1 JNF      0.194000
     32 H15         1.6650   -1.3030   -3.3460 ha        1 JNF      0.152000
     33 H16         2.1420   -2.8300   -1.6060 ha        1 JNF      0.161000
     34 H18         0.6050   -1.1960    2.0980 h1        1 JNF      0.131000
     35 H19        -1.9680   -2.0370    3.2560 hc        1 JNF      0.086500
     36 H19A       -0.8990   -3.0770    2.6830 hc        1 JNF      0.086500
     37 H20         0.3100   -3.0530    4.5020 hc        1 JNF      0.080250
     38 H20A       -1.0150   -2.4570    5.1840 hc        1 JNF      0.080250
     39 H21         1.2000   -1.2410    4.3800 hc        1 JNF      0.081500
     40 H21A        0.4810   -1.1740    5.7540 hc        1 JNF      0.081500
     41 H22        -0.7240    0.3770    5.1700 hc        1 JNF      0.080250
     42 H22A        0.6660    0.7100    4.5020 hc        1 JNF      0.080250
     43 H23        -1.7470    0.1700    3.2770 hc        1 JNF      0.086500
     44 H23A       -0.4930    0.9900    2.6950 hc        1 JNF      0.086500
@<TRIPOS>BOND
     1    1    2 1   
     2    1   24 1   
     3    1   25 1   
     4    1   26 1   
     5    2    3 1   
     6    2   18 1   
     7    3    4 1   
     8    3   17 1   
     9    5   15 1   
    10    6    7 1   
    11    6   14 1   
    12    7    8 1   
    13    9   10 1   
    14    9   27 1   
    15   10   28 1   
    16   11   12 1   
    17   11   29 1   
    18   12   30 1   
    19   13   14 1   
    20   15   32 1   
    21   16   17 1   
    22   16   33 1   
    23   18   19 1   
    24   18   23 1   
    25   18   34 1   
    26   19   20 1   
    27   19   35 1   
    28   19   36 1   
    29   20   21 1   
    30   20   37 1   
    31   20   38 1   
    32   21   22 1   
    33   21   39 1   
    34   21   40 1   
    35   22   23 1   
    36   22   41 1   
    37   22   42 1   
    38   23   43 1   
    39   23   44 1   
@<TRIPOS>SUBSTRUCTURE
     1 JNF         1 TEMP              0 ****  ****    0 ROOT
