@<TRIPOS>MOLECULE
JNF
   44    47     1     0     0
SMALL
bcc


@<TRIPOS>ATOM
      1 C01         0.1370    0.5750   -0.1080 c3        1 JNF      0.194100
      2 N02         1.5780    0.5290   -0.0350 nh        1 JNF     -0.736300
      3 C03         2.2840    0.1480   -1.1970 ca        1 JNF      0.884900
      4 N04         1.5630    0.0300   -2.3800 nb        1 JNF     -0.749000
      5 C05         2.2670   -0.2240   -3.5100 ca        1 JNF      0.579100
      6 C06         1.5100   -0.3720   -4.7440 cc        1 JNF     -0.278900
      7 N07         1.9220    0.0220   -6.0230 na        1 JNF      0.036700
      8 C08         0.8660   -0.3520   -6.9230 cc        1 JNF     -0.024300
      9 C09         1.0120   -0.0580   -8.3160 cc        1 JNF     -0.093000
     10 C10         2.1390    0.5880   -8.7490 cd        1 JNF     -0.119000
     11 C11         3.1540    0.9740   -7.8290 cd        1 JNF     -0.166000
     12 C12         3.0300    0.6930   -6.4860 cc        1 JNF     -0.073300
     13 N13        -0.1600   -0.9540   -6.2380 nd        1 JNF     -0.290600
     14 C14         0.2230   -0.9570   -4.9180 cd        1 JNF      0.076600
     15 C15         3.6700   -0.3880   -3.5040 ca        1 JNF     -0.436600
     16 C16         4.3100   -0.2670   -2.2580 ca        1 JNF      0.468200
     17 N17         3.6700   -0.0080   -1.1140 nb        1 JNF     -0.749000
     18 C18         2.1510    0.2330    1.2780 c3        1 JNF      0.212500
     19 C19         1.6000   -1.0580    1.9100 c3        1 JNF     -0.089900
     20 C20         2.3090   -1.3450    3.2170 c3        1 JNF     -0.076400
     21 C21         2.1800   -0.1880    4.1860 c3        1 JNF     -0.079400
     22 C22         2.6690    1.1040    3.5630 c3        1 JNF     -0.076400
     23 C23         1.9480    1.4000    2.2640 c3        1 JNF     -0.089900
     24 H01        -0.2680    0.9340    0.8750 h1        1 JNF      0.046367
     25 H01A       -0.3080   -0.4320   -0.3330 h1        1 JNF      0.046367
     26 H01B       -0.1780    1.2970   -0.9080 h1        1 JNF      0.046367
     27 H09         0.2010   -0.3630   -8.9930 ha        1 JNF      0.166000
     28 H10         2.2760    0.8250   -9.8150 ha        1 JNF      0.145000
     29 H11         4.0440    1.5060   -8.1910 ha        1 JNF      0.152000
     30 H12         3.7810    0.9910   -5.7330 h4        1 JNF      0.172000
     31 H14        -0.4100   -1.3700   -4.1290 h4        1 JNF      0.193000
     32 H15         4.2320   -0.6390   -4.4090 ha        1 JNF      0.151000
     33 H16         5.4060   -0.3910   -2.1690 h4        1 JNF      0.024100
     34 H18         3.2700    0.1030    1.1710 h1        1 JNF      0.094700
     35 H19         1.7500   -1.9190    1.2090 hc        1 JNF      0.046700
     36 H19A        0.4990   -0.9550    2.0930 hc        1 JNF      0.046700
     37 H20         3.3950   -1.5460    3.0180 hc        1 JNF      0.043450
     38 H20A        1.8750   -2.2700    3.6780 hc        1 JNF      0.043450
     39 H21         1.1070   -0.0730    4.4910 hc        1 JNF      0.040700
     40 H21A        2.7720   -0.4060    5.1130 hc        1 JNF      0.040700
     41 H22         2.5020    1.9520    4.2780 hc        1 JNF      0.043450
     42 H22A        3.7720    1.0350    3.3750 hc        1 JNF      0.043450
     43 H23         0.8580    1.5550    2.4730 hc        1 JNF      0.046700
     44 H23A        2.3490    2.3470    1.8190 hc        1 JNF      0.046700
@<TRIPOS>BOND
     1    1    2 1   
     2    1   24 1   
     3    1   25 1   
     4    1   26 1   
     5    2    3 1   
     6    2   18 1   
     7    3    4 ar  
     8    3   17 ar  
     9    4    5 ar  
    10    5    6 1   
    11    5   15 ar  
    12    6    7 1   
    13    6   14 2   
    14    7    8 1   
    15    7   12 1   
    16    8    9 1   
    17    8   13 2   
    18    9   10 2   
    19    9   27 1   
    20   10   11 1   
    21   10   28 1   
    22   11   12 2   
    23   11   29 1   
    24   12   30 1   
    25   13   14 1   
    26   14   31 1   
    27   15   16 ar  
    28   15   32 1   
    29   16   17 ar  
    30   16   33 1   
    31   18   19 1   
    32   18   23 1   
    33   18   34 1   
    34   19   20 1   
    35   19   35 1   
    36   19   36 1   
    37   20   21 1   
    38   20   37 1   
    39   20   38 1   
    40   21   22 1   
    41   21   39 1   
    42   21   40 1   
    43   22   23 1   
    44   22   41 1   
    45   22   42 1   
    46   23   43 1   
    47   23   44 1   
@<TRIPOS>SUBSTRUCTURE
     1 JNF         1 TEMP              0 ****  ****    0 ROOT
