@<TRIPOS>MOLECULE
JNH
   51    53     1     0     0
SMALL
bcc


@<TRIPOS>ATOM
      1 N1          0.0770   -0.2260    0.0190 n         1 JNH     -0.436800
      2 C1          1.5100   -0.0350   -0.2250 c3        1 JNH      0.080700
      3 C2          2.1740    0.2100    1.1530 c3        1 JNH     -0.088400
      4 C3          1.0750    0.1010    2.2020 c3        1 JNH     -0.094400
      5 C4         -0.2310   -0.1810    1.4480 c3        1 JNH      0.071000
      6 C5         -0.8460   -0.0540   -0.9720 c         1 JNH      0.652100
      7 C6         -2.3460    0.0530   -0.6320 c3        1 JNH      0.056500
      8 O1         -0.4980   -0.0460   -2.1830 o         1 JNH     -0.682100
      9 N2         -3.0880    0.7150   -1.7570 nz        1 JNH     -0.837600
     10 C7         -2.9100   -1.3560   -0.3520 c3        1 JNH     -0.034100
     11 C8         -7.1810   -1.3370    0.1400 cp        1 JNH      0.048000
     12 C9         -6.3370   -0.9720    1.2020 ca        1 JNH     -0.116500
     13 C10        -4.9550   -0.9670    1.0400 ca        1 JNH     -0.123500
     14 C11        -4.3850   -1.3170   -0.1900 ca        1 JNH     -0.211300
     15 C12        -5.2210   -1.6870   -1.2530 ca        1 JNH     -0.123500
     16 C13        -6.6020   -1.6950   -1.0910 ca        1 JNH     -0.116500
     17 C14       -11.4110   -1.3930    0.6430 ca        1 JNH     -0.089000
     18 C15       -10.8560   -0.9730   -0.5670 ca        1 JNH     -0.122500
     19 C16        -9.4740   -0.9560   -0.7360 ca        1 JNH     -0.102500
     20 C17        -8.6290   -1.3530    0.3120 cp        1 JNH     -0.099000
     21 C18        -9.1930   -1.7730    1.5270 ca        1 JNH     -0.102500
     22 C19       -10.5770   -1.7950    1.6870 ca        1 JNH     -0.122500
     23 C20         2.2190   -1.2360   -0.8940 c3        1 JNH      0.086800
     24 N3          1.9530   -1.3580   -2.3530 nz        1 JNH     -0.836600
     25 H1          1.6440    0.8760   -0.8830 h1        1 JNH      0.088700
     26 H21         2.9850   -0.5340    1.3550 hc        1 JNH      0.091700
     27 H22         2.6380    1.2300    1.1620 hc        1 JNH      0.091700
     28 H31         0.9890    1.0500    2.7900 hc        1 JNH      0.096200
     29 H32         1.2900   -0.7260    2.9260 hc        1 JNH      0.096200
     30 H41        -0.6630   -1.1750    1.7560 h1        1 JNH      0.072200
     31 H42        -0.9860    0.6230    1.6650 h1        1 JNH      0.072200
     32 H6         -2.5070    0.7000    0.2840 hx        1 JNH      0.133700
     33 HN21       -2.7010    0.4050   -2.6590 hn        1 JNH      0.478133
     34 HN22       -4.0870    0.4430   -1.7000 hn        1 JNH      0.478133
     35 H71        -2.6220   -2.0510   -1.1860 hc        1 JNH      0.088700
     36 H72        -2.4240   -1.7280    0.5910 hc        1 JNH      0.088700
     37 H12        -4.7880   -2.0230   -2.2080 ha        1 JNH      0.131500
     38 H13        -7.2520   -2.0110   -1.9250 ha        1 JNH      0.167500
     39 H14       -12.5050   -1.4100    0.7720 ha        1 JNH      0.156000
     40 H15       -11.5130   -0.6560   -1.3920 ha        1 JNH      0.152000
     41 H16        -9.0460   -0.6200   -1.6920 ha        1 JNH      0.131500
     42 H18        -8.5440   -2.1030    2.3520 ha        1 JNH      0.131500
     43 H19       -11.0120   -2.1320    2.6410 ha        1 JNH      0.152000
     44 H201        1.9200   -2.2060   -0.3990 hx        1 JNH      0.127700
     45 H202        3.3340   -1.0950   -0.7650 hx        1 JNH      0.127700
     46 HN31        2.5110   -2.1220   -2.7490 hn        1 JNH      0.470133
     47 HN32        2.1920   -0.4810   -2.8320 hn        1 JNH      0.470133
     48 H9         -6.7750   -0.6940    2.1750 ha        1 JNH      0.167500
     49 H23        -3.0040    1.7320   -1.6920 hn        1 JNH      0.478133
     50 H33         0.9530   -1.5390   -2.5230 hn        1 JNH      0.470133
     51 H10        -4.3110   -0.7010    1.8920 ha        1 JNH      0.131500
@<TRIPOS>BOND
     1    1    2 1   
     2    1    5 1   
     3    1    6 1   
     4    2    3 1   
     5    2   23 1   
     6    2   25 1   
     7    3    4 1   
     8    3   26 1   
     9    3   27 1   
    10    4    5 1   
    11    4   28 1   
    12    4   29 1   
    13    5   30 1   
    14    5   31 1   
    15    6    7 1   
    16    6    8 2   
    17    7    9 1   
    18    7   10 1   
    19    7   32 1   
    20    9   33 1   
    21    9   34 1   
    22    9   49 1   
    23   10   14 1   
    24   10   35 1   
    25   10   36 1   
    26   11   12 ar  
    27   11   16 ar  
    28   11   20 1   
    29   12   13 ar  
    30   12   48 1   
    31   13   14 ar  
    32   13   51 1   
    33   14   15 ar  
    34   15   16 ar  
    35   15   37 1   
    36   16   38 1   
    37   17   18 ar  
    38   17   22 ar  
    39   17   39 1   
    40   18   19 ar  
    41   18   40 1   
    42   19   20 ar  
    43   19   41 1   
    44   20   21 ar  
    45   21   22 ar  
    46   21   42 1   
    47   22   43 1   
    48   23   24 1   
    49   23   44 1   
    50   23   45 1   
    51   24   46 1   
    52   24   47 1   
    53   24   50 1   
@<TRIPOS>SUBSTRUCTURE
     1 JNH         1 TEMP              0 ****  ****    0 ROOT
