@<TRIPOS>MOLECULE
JNH
   51    53     1     0     0
SMALL
bcc


@<TRIPOS>ATOM
      1 N1          0.0770   -0.2230    0.0230 n         1 JNH     -0.436800
      2 C1          1.5100   -0.0320   -0.2210 c3        1 JNH      0.080700
      3 C2          2.1730    0.2150    1.1580 c3        1 JNH     -0.088400
      4 C3          1.0740    0.1050    2.2060 c3        1 JNH     -0.094400
      5 C4         -0.2320   -0.1780    1.4510 c3        1 JNH      0.071000
      6 C5         -0.8450   -0.0520   -0.9700 c         1 JNH      0.652100
      7 C6         -2.3460    0.0540   -0.6300 c3        1 JNH      0.056500
      8 O1         -0.4970   -0.0450   -2.1800 o         1 JNH     -0.682100
      9 N2         -3.0880    0.7150   -1.7560 n4        1 JNH     -0.837600
     10 C7         -2.9090   -1.3560   -0.3510 c3        1 JNH     -0.034100
     11 C8         -7.1810   -1.3400    0.1360 cp        1 JNH      0.048000
     12 C9         -6.3380   -0.9760    1.2000 ca        1 JNH     -0.116500
     13 C10        -4.9560   -0.9680    1.0390 ca        1 JNH     -0.123500
     14 C11        -4.3840   -1.3170   -0.1900 ca        1 JNH     -0.211300
     15 C12        -5.2200   -1.6880   -1.2540 ca        1 JNH     -0.123500
     16 C13        -6.6000   -1.6970   -1.0940 ca        1 JNH     -0.116500
     17 C14       -11.4110   -1.4020    0.6340 ca        1 JNH     -0.089000
     18 C15       -10.8560   -0.9800   -0.5750 ca        1 JNH     -0.122500
     19 C16        -9.4730   -0.9610   -0.7420 ca        1 JNH     -0.102500
     20 C17        -8.6290   -1.3590    0.3070 cp        1 JNH     -0.099000
     21 C18        -9.1940   -1.7800    1.5200 ca        1 JNH     -0.102500
     22 C19       -10.5780   -1.8030    1.6790 ca        1 JNH     -0.122500
     23 C20         2.2200   -1.2330   -0.8880 c3        1 JNH      0.086800
     24 N3          1.9550   -1.3560   -2.3470 n4        1 JNH     -0.836600
     25 H1          1.6440    0.8780   -0.8790 h1        1 JNH      0.088700
     26 H21         2.9850   -0.5280    1.3610 hc        1 JNH      0.091700
     27 H22         2.6360    1.2350    1.1660 hc        1 JNH      0.091700
     28 H31         0.9860    1.0530    2.7950 hc        1 JNH      0.096200
     29 H32         1.2880   -0.7220    2.9290 hc        1 JNH      0.096200
     30 H41        -0.6650   -1.1710    1.7590 h1        1 JNH      0.072200
     31 H42        -0.9870    0.6270    1.6680 h1        1 JNH      0.072200
     32 H6         -2.5080    0.7010    0.2860 hx        1 JNH      0.133700
     33 HN21       -4.0860    0.4420   -1.7000 hn        1 JNH      0.478133
     34 HN22       -3.0040    1.7330   -1.6920 hn        1 JNH      0.478133
     35 H71        -2.4240   -1.7270    0.5930 hc        1 JNH      0.088700
     36 H72        -2.6190   -2.0500   -1.1850 hc        1 JNH      0.088700
     37 H12        -4.7850   -2.0230   -2.2090 ha        1 JNH      0.131500
     38 H13        -7.2480   -2.0130   -1.9290 ha        1 JNH      0.167500
     39 H14       -12.5050   -1.4200    0.7630 ha        1 JNH      0.156000
     40 H15       -11.5120   -0.6620   -1.4000 ha        1 JNH      0.152000
     41 H16        -9.0450   -0.6240   -1.6970 ha        1 JNH      0.131500
     42 H18        -8.5450   -2.1100    2.3460 ha        1 JNH      0.131500
     43 H19       -11.0140   -2.1420    2.6320 ha        1 JNH      0.152000
     44 H201        1.9210   -2.2020   -0.3920 hx        1 JNH      0.127700
     45 H202        3.3350   -1.0910   -0.7580 hx        1 JNH      0.127700
     46 HN31        0.9550   -1.5380   -2.5180 hn        1 JNH      0.470467
     47 HN32        2.5140   -2.1200   -2.7430 hn        1 JNH      0.470467
     48 H9         -6.7780   -0.6990    2.1730 ha        1 JNH      0.167500
     49 H23        -2.6990    0.4060   -2.6580 hn        1 JNH      0.478133
     50 H33         2.1930   -0.4800   -2.8270 hn        1 JNH      0.470467
     51 H10        -4.3130   -0.7030    1.8920 ha        1 JNH      0.131500
@<TRIPOS>BOND
     1    1    2 1   
     2    1    5 1   
     3    1    6 1   
     4    2    3 1   
     5    2   23 1   
     6    2   25 1   
     7    3    4 1   
     8    3   26 1   
     9    3   27 1   
    10    4    5 1   
    11    4   28 1   
    12    4   29 1   
    13    5   30 1   
    14    5   31 1   
    15    6    7 1   
    16    6    8 2   
    17    7    9 1   
    18    7   10 1   
    19    7   32 1   
    20    9   33 1   
    21    9   34 1   
    22    9   49 1   
    23   10   14 1   
    24   10   35 1   
    25   10   36 1   
    26   11   12 ar  
    27   11   16 ar  
    28   11   20 1   
    29   12   13 ar  
    30   12   48 1   
    31   13   14 ar  
    32   13   51 1   
    33   14   15 ar  
    34   15   16 ar  
    35   15   37 1   
    36   16   38 1   
    37   17   18 ar  
    38   17   22 ar  
    39   17   39 1   
    40   18   19 ar  
    41   18   40 1   
    42   19   20 ar  
    43   19   41 1   
    44   20   21 ar  
    45   21   22 ar  
    46   21   42 1   
    47   22   43 1   
    48   23   24 1   
    49   23   44 1   
    50   23   45 1   
    51   24   46 1   
    52   24   47 1   
    53   24   50 1   
@<TRIPOS>SUBSTRUCTURE
     1 JNH         1 TEMP              0 ****  ****    0 ROOT
