@<TRIPOS>MOLECULE
JNH
   51    53     1     0     0
SMALL
bcc


@<TRIPOS>ATOM
      1 N1          0.0760   -0.2230    0.0210 n         1 JNH     -0.436800
      2 C1          1.5100   -0.0320   -0.2220 c3        1 JNH      0.080700
      3 C2          2.1720    0.2180    1.1560 c3        1 JNH     -0.088400
      4 C3          1.0720    0.1110    2.2040 c3        1 JNH     -0.094400
      5 C4         -0.2330   -0.1750    1.4500 c3        1 JNH      0.071000
      6 C5         -0.8450   -0.0540   -0.9720 c         1 JNH      0.652100
      7 C6         -2.3470    0.0520   -0.6330 c3        1 JNH      0.056500
      8 O1         -0.4970   -0.0500   -2.1810 o         1 JNH     -0.682100
      9 N2         -3.0880    0.7100   -1.7600 n4        1 JNH     -0.837600
     10 C7         -2.9090   -1.3570   -0.3500 c3        1 JNH     -0.034100
     11 C8         -7.1810   -1.3400    0.1380 cp        1 JNH      0.048000
     12 C9         -6.3380   -0.9720    1.2000 ca        1 JNH     -0.116500
     13 C10        -4.9560   -0.9650    1.0390 ca        1 JNH     -0.123500
     14 C11        -4.3840   -1.3180   -0.1890 ca        1 JNH     -0.211300
     15 C12        -5.2190   -1.6930   -1.2520 ca        1 JNH     -0.123500
     16 C13        -6.6000   -1.7020   -1.0910 ca        1 JNH     -0.116500
     17 C14       -11.4110   -1.4000    0.6360 ca        1 JNH     -0.089000
     18 C15       -10.8560   -0.9820   -0.5740 ca        1 JNH     -0.122500
     19 C16        -9.4730   -0.9640   -0.7410 ca        1 JNH     -0.102500
     20 C17        -8.6290   -1.3580    0.3080 cp        1 JNH     -0.099000
     21 C18        -9.1940   -1.7740    1.5240 ca        1 JNH     -0.102500
     22 C19       -10.5780   -1.7970    1.6830 ca        1 JNH     -0.122500
     23 C20         2.2200   -1.2340   -0.8870 c3        1 JNH      0.086800
     24 N3          1.9560   -1.3590   -2.3450 n4        1 JNH     -0.836600
     25 H1          1.6430    0.8780   -0.8820 h1        1 JNH      0.088700
     26 H21         2.6350    1.2380    1.1630 hc        1 JNH      0.091700
     27 H22         2.9830   -0.5250    1.3610 hc        1 JNH      0.091700
     28 H31         0.9840    1.0610    2.7900 hc        1 JNH      0.096200
     29 H32         1.2870   -0.7140    2.9300 hc        1 JNH      0.096200
     30 H41        -0.9890    0.6300    1.6640 h1        1 JNH      0.072200
     31 H42        -0.6640   -1.1680    1.7600 h1        1 JNH      0.072200
     32 H6         -2.5090    0.7020    0.2820 hx        1 JNH      0.133700
     33 HN21       -4.0860    0.4370   -1.7040 hn        1 JNH      0.478133
     34 HN22       -2.6990    0.3980   -2.6620 hn        1 JNH      0.478133
     35 H71        -2.4230   -1.7260    0.5950 hc        1 JNH      0.088700
     36 H72        -2.6190   -2.0540   -1.1810 hc        1 JNH      0.088700
     37 H12        -4.7850   -2.0310   -2.2050 ha        1 JNH      0.131500
     38 H13        -7.2480   -2.0210   -1.9250 ha        1 JNH      0.167500
     39 H14       -12.5050   -1.4170    0.7650 ha        1 JNH      0.156000
     40 H15       -11.5120   -0.6680   -1.4010 ha        1 JNH      0.152000
     41 H16        -9.0450   -0.6310   -1.6980 ha        1 JNH      0.131500
     42 H18        -8.5450   -2.1020    2.3510 ha        1 JNH      0.131500
     43 H19       -11.0140   -2.1320    2.6370 ha        1 JNH      0.152000
     44 H201        3.3350   -1.0910   -0.7570 hx        1 JNH      0.127700
     45 H202        1.9210   -2.2020   -0.3900 hx        1 JNH      0.127700
     46 HN31        2.5150   -2.1240   -2.7400 hn        1 JNH      0.470467
     47 HN32        0.9570   -1.5420   -2.5170 hn        1 JNH      0.470467
     48 H9         -6.7780   -0.6910    2.1720 ha        1 JNH      0.167500
     49 H23        -3.0040    1.7280   -1.6980 hn        1 JNH      0.478133
     50 H33         2.1950   -0.4840   -2.8270 hn        1 JNH      0.470467
     51 H10        -4.3120   -0.6970    1.8910 ha        1 JNH      0.131500
@<TRIPOS>BOND
     1    1    2 1   
     2    1    5 1   
     3    1    6 1   
     4    2    3 1   
     5    2   23 1   
     6    2   25 1   
     7    3    4 1   
     8    3   26 1   
     9    3   27 1   
    10    4    5 1   
    11    4   28 1   
    12    4   29 1   
    13    5   30 1   
    14    5   31 1   
    15    6    7 1   
    16    6    8 2   
    17    7    9 1   
    18    7   10 1   
    19    7   32 1   
    20    9   33 1   
    21    9   34 1   
    22    9   49 1   
    23   10   14 1   
    24   10   35 1   
    25   10   36 1   
    26   11   12 ar  
    27   11   16 ar  
    28   11   20 1   
    29   12   13 ar  
    30   12   48 1   
    31   13   14 ar  
    32   13   51 1   
    33   14   15 ar  
    34   15   16 ar  
    35   15   37 1   
    36   16   38 1   
    37   17   18 ar  
    38   17   22 ar  
    39   17   39 1   
    40   18   19 ar  
    41   18   40 1   
    42   19   20 ar  
    43   19   41 1   
    44   20   21 ar  
    45   21   22 ar  
    46   21   42 1   
    47   22   43 1   
    48   23   24 1   
    49   23   44 1   
    50   23   45 1   
    51   24   46 1   
    52   24   47 1   
    53   24   50 1   
@<TRIPOS>SUBSTRUCTURE
     1 JNH         1 TEMP              0 ****  ****    0 ROOT
