@<TRIPOS>MOLECULE
JNH
   49    51     1     0     0
SMALL
bcc


@<TRIPOS>ATOM
      1 N1         -3.9400   -0.5140   -0.1490 n         1 JNH     -0.450800
      2 C1         -5.3790   -0.2850    0.0010 c3        1 JNH      0.048700
      3 C2         -6.1010   -1.2940   -0.9150 c3        1 JNH     -0.086400
      4 C3         -5.0200   -2.1420   -1.5750 c3        1 JNH     -0.090400
      5 C4         -3.6720   -1.6240   -1.0490 c3        1 JNH      0.082000
      6 C5         -3.0370    0.5060    0.0680 c         1 JNH      0.659100
      7 C6         -1.5480    0.2740   -0.2750 c3        1 JNH      0.109500
      8 O1         -3.3930    1.5830    0.5880 o         1 JNH     -0.626100
      9 N2         -1.2560    0.8700   -1.5620 n3        1 JNH     -0.901800
     10 C7         -0.7250    0.8030    0.9170 c3        1 JNH     -0.076100
     11 C8          3.4910    0.2170    0.3090 cp        1 JNH     -0.034000
     12 C9          2.7240   -0.7580    0.9620 ca        1 JNH     -0.115500
     13 C10         1.3580   -0.5690    1.1560 ca        1 JNH     -0.130500
     14 C11         0.7310    0.5990    0.7040 ca        1 JNH     -0.085300
     15 C12         1.4980    1.5750    0.0560 ca        1 JNH     -0.130500
     16 C13         2.8630    1.3870   -0.1410 ca        1 JNH     -0.115500
     17 C14         7.6740   -0.3620   -0.2880 ca        1 JNH     -0.126000
     18 C15         6.8950    0.2030   -1.2980 ca        1 JNH     -0.130000
     19 C16         5.5280    0.3950   -1.1040 ca        1 JNH     -0.117500
     20 C17         4.9250    0.0190    0.1050 cp        1 JNH     -0.040000
     21 C18         5.7140   -0.5500    1.1150 ca        1 JNH     -0.117500
     22 C19         7.0810   -0.7370    0.9170 ca        1 JNH     -0.130000
     23 C20        -5.8740   -0.4460    1.4630 c3        1 JNH      0.156800
     24 N3         -5.2940    0.4310    2.4410 n3        1 JNH     -0.896800
     25 H1         -5.6100    0.7710   -0.3280 h1        1 JNH      0.064700
     26 H21        -6.8010   -1.9340   -0.3230 hc        1 JNH      0.054200
     27 H22        -6.7020   -0.7470   -1.6810 hc        1 JNH      0.054200
     28 H31        -5.1450   -3.2220   -1.3190 hc        1 JNH      0.053200
     29 H32        -5.0610   -2.0480   -2.6880 hc        1 JNH      0.053200
     30 H41        -3.1370   -2.4320   -0.4770 h1        1 JNH      0.053700
     31 H42        -3.0150   -1.3020   -1.9030 h1        1 JNH      0.053700
     32 H6         -1.3310   -0.8330   -0.3680 h1        1 JNH      0.073700
     33 HN21       -1.5210    1.8370   -1.5700 hn        1 JNH      0.360800
     34 HN22       -0.2740    0.8000   -1.7510 hn        1 JNH      0.360800
     35 H71        -0.9510    1.8930    1.0680 hc        1 JNH      0.070700
     36 H72        -1.0610    0.2640    1.8420 hc        1 JNH      0.070700
     37 H10         0.7670   -1.3410    1.6710 ha        1 JNH      0.133000
     38 H12         1.0190    2.5040   -0.2890 ha        1 JNH      0.133000
     39 H13         3.4560    2.1650   -0.6450 ha        1 JNH      0.137000
     40 H14         8.7520   -0.5110   -0.4420 ha        1 JNH      0.133000
     41 H15         7.3590    0.4980   -2.2500 ha        1 JNH      0.133000
     42 H16         4.9160    0.8360   -1.9050 ha        1 JNH      0.134500
     43 H18         5.2520   -0.8410    2.0700 ha        1 JNH      0.134500
     44 H19         7.6930   -1.1800    1.7170 ha        1 JNH      0.133000
     45 H201       -5.7060   -1.5090    1.7940 h1        1 JNH      0.052200
     46 H202       -6.9860   -0.2590    1.4430 h1        1 JNH      0.052200
     47 HN31       -4.3200    0.2300    2.5670 hn        1 JNH      0.353800
     48 HN32       -5.3720    1.3880    2.1480 hn        1 JNH      0.353800
     49 H9          3.2040   -1.6820    1.3190 ha        1 JNH      0.137000
@<TRIPOS>BOND
     1    1    2 1   
     2    1    5 1   
     3    1    6 1   
     4    2    3 1   
     5    2   23 1   
     6    2   25 1   
     7    3    4 1   
     8    3   26 1   
     9    3   27 1   
    10    4    5 1   
    11    4   28 1   
    12    4   29 1   
    13    5   30 1   
    14    5   31 1   
    15    6    7 1   
    16    6    8 2   
    17    7    9 1   
    18    7   10 1   
    19    7   32 1   
    20    9   33 1   
    21    9   34 1   
    22   10   14 1   
    23   10   35 1   
    24   10   36 1   
    25   11   12 ar  
    26   11   16 ar  
    27   11   20 1   
    28   12   13 ar  
    29   12   49 1   
    30   13   14 ar  
    31   13   37 1   
    32   14   15 ar  
    33   15   16 ar  
    34   15   38 1   
    35   16   39 1   
    36   17   18 ar  
    37   17   22 ar  
    38   17   40 1   
    39   18   19 ar  
    40   18   41 1   
    41   19   20 ar  
    42   19   42 1   
    43   20   21 ar  
    44   21   22 ar  
    45   21   43 1   
    46   22   44 1   
    47   23   24 1   
    48   23   45 1   
    49   23   46 1   
    50   24   47 1   
    51   24   48 1   
@<TRIPOS>SUBSTRUCTURE
     1 JNH         1 TEMP              0 ****  ****    0 ROOT
