@<TRIPOS>MOLECULE
JNJ
   64    68     1     0     0
SMALL
bcc


@<TRIPOS>ATOM
      1 C1          0.1720   -0.6700   -0.6470 c2        1 JNJ     -0.220000
      2 C2          1.6230   -0.6700   -0.7730 ca        1 JNJ     -0.029000
      3 C3          2.6950   -0.9990    0.0560 ca        1 JNJ     -0.073000
      4 C7          1.8520   -0.1640   -2.1010 ca        1 JNJ     -0.058000
      5 C8          8.4390    0.4580   -2.5010 c2        1 JNJ      0.025000
      6 C9          7.4890    1.3410   -2.9110 c2        1 JNJ     -0.182000
      7 C10         6.0800    1.1340   -2.5930 c2        1 JNJ      0.170000
      8 C11         5.6290   -0.0640   -2.1120 c2        1 JNJ     -0.170000
      9 C12         6.5930   -1.1950   -1.9990 c3        1 JNJ     -0.099000
     10 C13         8.0090   -0.7200   -1.6550 c3        1 JNJ     -0.096000
     11 C14        10.6150   -0.1410   -3.4500 c2        1 JNJ      0.034000
     12 C15        12.4710    1.2460   -3.7570 c1        1 JNJ     -0.193000
     13 C16        13.1740    2.2220   -3.7000 c1        1 JNJ     -0.065000
     14 C19        10.6400   -3.4500   -2.3460 c3        1 JNJ     -0.152000
     15 C20        -0.5270   -1.1050    0.5440 c2        1 JNJ      0.349000
     16 C21        -1.2780    0.4780   -5.7960 c2        1 JNJ     -0.279000
     17 C22        -0.5260   -0.2160   -4.8510 c1        1 JNJ     -0.015000
     18 C24        -0.0280    2.1390   -3.9160 c2        1 JNJ     -0.065000
     19 C27        -2.1340    0.0640   -6.9140 c2        1 JNJ     -0.104000
     20 N1         -0.4000   -0.2000   -1.8020 n2        1 JNJ      0.020000
     21 N2          0.5670    0.0950   -2.6540 na        1 JNJ     -0.057000
     22 C4          3.9780   -0.8050   -0.4240 ca        1 JNJ     -0.084000
     23 C5          4.2420   -0.3010   -1.7210 ca        1 JNJ     -0.009000
     24 C6          3.1730    0.0000   -2.5870 ca        1 JNJ      0.116000
     25 F1          3.3780    0.4450   -3.8470 f         1 JNJ     -0.086000
     26 N3          9.8150    0.7040   -2.6390 n3        1 JNJ     -0.284000
     27 N4         11.8190    0.0790   -3.9030 n2        1 JNJ     -0.014000
     28 N5          9.7860   -2.2790   -2.5280 n3        1 JNJ     -0.043000
     29 C18         8.9160   -1.9120   -1.6240 c2        1 JNJ      0.109000
     30 O1         -0.0590   -1.5940    1.5600 o         1 JNJ     -0.148000
     31 C23         0.3130    0.6670   -3.9790 c3        1 JNJ     -0.004000
     32 C25        -0.8330    2.7400   -4.8300 c2        1 JNJ     -0.133000
     33 C26        -1.4480    1.8880   -5.7900 c2        1 JNJ      0.155000
     34 O2         -2.3250    2.2360   -6.8140 os        1 JNJ      0.040000
     35 N7         -2.7160    1.1590   -7.4710 n2        1 JNJ      0.104000
     36 H3          2.5140   -1.3910    1.0720 ha        1 JNJ      0.185000
     37 HN61       -2.4530   -1.4580   -0.2180 hn        1 JNJ      0.272667
     38 HN62       -2.4160   -1.2650    1.4450 hn        1 JNJ      0.272667
     39 H9          7.7340    2.2650   -3.4640 ha        1 JNJ      0.188000
     40 H12         6.2540   -1.9210   -1.2120 hc        1 JNJ      0.113000
     41 H13         6.6040   -1.7420   -2.9840 hc        1 JNJ      0.113000
     42 H15        13.8050    3.0790   -3.6560 ha        1 JNJ      0.262000
     43 H16        10.0590    1.6790   -2.6770 hn        1 JNJ      0.251000
     44 H191       10.4320   -3.9520   -1.3640 h1        1 JNJ      0.153333
     45 H192       11.7170   -3.1190   -2.3770 h1        1 JNJ      0.153333
     46 H193       10.4480   -4.1720   -3.1880 h1        1 JNJ      0.153333
     47 H22         1.3260    0.6270   -4.5430 h1        1 JNJ      0.221000
     48 H24         0.4610    2.7410   -3.1280 ha        1 JNJ      0.190000
     49 H4          4.8340   -1.0290    0.2360 ha        1 JNJ      0.165000
     50 H171       10.7060   -2.1090   -4.4330 h1        1 JNJ      0.168000
     51 H172        9.0280   -1.3810   -4.2940 h1        1 JNJ      0.168000
     52 H181        8.8060   -2.5550   -0.7150 h4        1 JNJ      0.202000
     53 H182        4.8670   -1.4510   -4.4400 ha        1 JNJ      0.000500
     54 H183        4.8970   -1.7460   -5.0490 ha        1 JNJ      0.000500
     55 H25        -1.0330    3.8270   -4.8420 ha        1 JNJ      0.217000
     56 HN81       -1.9050   -1.4350   -8.2880 hn        1 JNJ      0.291667
     57 HN82       -1.7790   -1.9060   -6.6690 hn        1 JNJ      0.291667
     58 N6         -2.0310   -0.9270    0.5510 n4        1 JNJ     -0.136000
     59 C17        10.0140   -1.5160   -3.7600 c3        1 JNJ     -0.044000
     60 N8         -2.2930   -1.3100   -7.3390 n4        1 JNJ      0.016000
     61 H51         8.0030   -0.3250   -0.5850 hc        1 JNJ      0.175000
     62 H63        -2.2680    0.0650    0.4390 hn        1 JNJ      0.272667
     63 H83        -3.2920   -1.5710   -7.3480 hn        1 JNJ      0.291667
     64 F2          5.2640    2.1890   -2.7960 f         1 JNJ     -0.073000
@<TRIPOS>BOND
     1    1    2 1   
     2    1   15 1   
     3    1   20 1   
     4    2    3 1   
     5    2    4 1   
     6    3   22 1   
     7    3   36 1   
     8    4   21 1   
     9    4   24 1   
    10    5    6 1   
    11    5   10 1   
    12    5   26 1   
    13    6    7 1   
    14    6   39 1   
    15    7    8 1   
    16    7   64 1   
    17    8    9 1   
    18    8   23 1   
    19    9   10 1   
    20    9   40 1   
    21    9   41 1   
    22   10   29 1   
    23   10   61 1   
    24   11   26 1   
    25   11   27 1   
    26   11   59 1   
    27   12   13 1   
    28   12   27 1   
    29   13   42 1   
    30   14   28 1   
    31   14   44 1   
    32   14   45 1   
    33   14   46 1   
    34   15   30 1   
    35   15   58 1   
    36   16   17 1   
    37   16   19 1   
    38   16   33 1   
    39   17   31 1   
    40   18   31 1   
    41   18   32 1   
    42   18   48 1   
    43   19   35 1   
    44   19   60 1   
    45   20   21 1   
    46   21   31 1   
    47   22   23 1   
    48   22   49 1   
    49   23   24 1   
    50   24   25 1   
    51   26   43 1   
    52   28   29 1   
    53   28   59 1   
    54   29   52 1   
    55   31   47 1   
    56   32   33 1   
    57   32   55 1   
    58   33   34 1   
    59   34   35 1   
    60   37   58 1   
    61   38   58 1   
    62   50   59 1   
    63   51   59 1   
    64   53   54 1   
    65   56   60 1   
    66   57   60 1   
    67   58   62 1   
    68   60   63 1   
@<TRIPOS>SUBSTRUCTURE
     1 JNJ         1 TEMP              0 ****  ****    0 ROOT
