@<TRIPOS>MOLECULE
JNJ
   61    66     1     0     0
SMALL
bcc


@<TRIPOS>ATOM
      1 C1          3.7550   -2.7730    0.1290 cc        1 JNJ      0.292900
      2 C2          2.2990   -2.7190    0.1270 ca        1 JNJ     -0.147900
      3 C3          1.2800   -3.6630    0.2410 ca        1 JNJ     -0.064000
      4 C7          1.9970   -1.3170   -0.0200 ca        1 JNJ     -0.086200
      5 C8         -4.5330   -0.8280    0.1390 ca        1 JNJ      0.063800
      6 C9         -3.7450   -0.4510   -0.9610 ca        1 JNJ     -0.161000
      7 C10        -2.3750   -0.7700   -0.9870 ca        1 JNJ      0.161900
      8 C11        -1.7750   -1.4790    0.0760 cp        1 JNJ     -0.084000
      9 C12        -2.5830   -1.8580    1.1570 ca        1 JNJ     -0.079000
     10 C13        -3.9330   -1.5420    1.2020 ca        1 JNJ     -0.157000
     11 C14        -6.5880    0.6670   -0.1240 cc        1 JNJ      0.415800
     12 C15        -8.1180   -0.7800    0.5180 cd        1 JNJ      0.298200
     13 C16        -6.8900   -1.4530    0.5990 cc        1 JNJ     -0.251600
     14 C19        -5.2150    2.7840    1.5390 c3        1 JNJ      0.154100
     15 C20         4.5370   -4.0270    0.2640 c         1 JNJ      0.621800
     16 C21         4.5770    2.7760    0.2580 ca        1 JNJ     -0.237900
     17 C22         4.3790    1.4290    0.5150 ca        1 JNJ     -0.039000
     18 C24         2.7840    1.4000   -1.3660 ca        1 JNJ     -0.081000
     19 C27         5.4050    3.8680    0.8270 cc        1 JNJ      0.556800
     20 N1          4.2640   -1.5240   -0.0060 nd        1 JNJ     -0.473100
     21 N2          3.2450   -0.6520   -0.0900 na        1 JNJ      0.178800
     22 C4         -0.0300   -3.2190    0.2120 ca        1 JNJ     -0.124000
     23 C5         -0.3600   -1.8500    0.0760 cp        1 JNJ     -0.041000
     24 C6          0.6510   -0.8780   -0.0300 ca        1 JNJ      0.139900
     25 F1          0.3560    0.4360   -0.1320 f         1 JNJ     -0.124900
     26 N3         -5.9110   -0.5370    0.1810 na        1 JNJ     -0.133000
     27 N4         -7.9220    0.5260    0.0770 nd        1 JNJ     -0.666000
     28 N5         -4.8060    2.3360    0.2260 n3        1 JNJ     -0.743600
     29 C18        -3.9350    3.2770   -0.4430 c3        1 JNJ      0.154100
     30 O1          3.9640   -5.1170    0.4690 o         1 JNJ     -0.613100
     31 C23         3.4650    0.7420   -0.3090 ca        1 JNJ     -0.015200
     32 C25         2.9800    2.7530   -1.6250 ca        1 JNJ     -0.114000
     33 C26         3.8810    3.4200   -0.8040 ca        1 JNJ      0.072100
     34 O2          4.2740    4.7670   -0.8440 os        1 JNJ     -0.003600
     35 N7          5.1550    5.0070    0.1260 nd        1 JNJ     -0.457200
     36 H3          1.5380   -4.7290    0.3530 ha        1 JNJ      0.179000
     37 HN61        6.3770   -3.1220   -0.0230 hn        1 JNJ      0.321500
     38 HN62        6.4240   -4.8050    0.2360 hn        1 JNJ      0.321500
     39 H9         -4.1750    0.1050   -1.8080 ha        1 JNJ      0.160000
     40 H12        -2.1280   -2.4140    1.9920 ha        1 JNJ      0.148000
     41 H13        -4.5340   -1.8460    2.0740 ha        1 JNJ      0.150000
     42 H15        -9.1140   -1.1560    0.7480 h4        1 JNJ      0.045100
     43 H16        -6.6410   -2.4700    0.8930 h4        1 JNJ      0.180000
     44 H191       -5.7810    3.7550    1.5170 h1        1 JNJ      0.036200
     45 H192       -5.8690    2.0010    2.0060 h1        1 JNJ      0.036200
     46 H193       -4.2990    2.9170    2.1710 h1        1 JNJ      0.036200
     47 H22         4.9250    0.9200    1.3230 ha        1 JNJ      0.159000
     48 H24         2.0680    0.8360   -1.9880 ha        1 JNJ      0.161000
     49 H4         -0.8550   -3.9440    0.2960 ha        1 JNJ      0.148000
     50 H171       -5.5480    1.7400   -1.6580 h1        1 JNJ      0.059200
     51 H172       -6.7180    2.7330   -0.6770 h1        1 JNJ      0.059200
     52 H181       -3.0690    3.5050    0.2320 h1        1 JNJ      0.036200
     53 H182       -3.5430    2.8080   -1.3840 h1        1 JNJ      0.036200
     54 H183       -4.4460    4.2430   -0.7100 h1        1 JNJ      0.036200
     55 H25         2.4510    3.2660   -2.4390 ha        1 JNJ      0.167000
     56 HN81        6.0750    2.9860    2.4940 hn        1 JNJ      0.410800
     57 HN82        6.6960    4.5210    2.2470 hn        1 JNJ      0.410800
     58 F2         -1.6480   -0.3910   -2.0650 f         1 JNJ     -0.131900
     59 N6          5.9020   -3.9680    0.1580 n         1 JNJ     -0.660000
     60 C17        -5.9260    1.9280   -0.6120 c3        1 JNJ      0.142500
     61 N8          6.3370    3.6860    1.8350 nh        1 JNJ     -0.858800
@<TRIPOS>BOND
     1    1    2 1   
     2    1   15 1   
     3    1   20 2   
     4    2    3 ar  
     5    2    4 ar  
     6    3   22 ar  
     7    3   36 1   
     8    4   21 1   
     9    4   24 ar  
    10    5    6 ar  
    11    5   10 ar  
    12    5   26 1   
    13    6    7 ar  
    14    6   39 1   
    15    7    8 ar  
    16    7   58 1   
    17    8    9 ar  
    18    8   23 1   
    19    9   10 ar  
    20    9   40 1   
    21   10   41 1   
    22   11   26 1   
    23   11   27 2   
    24   11   60 1   
    25   12   13 2   
    26   12   27 1   
    27   12   42 1   
    28   13   26 1   
    29   13   43 1   
    30   14   28 1   
    31   14   44 1   
    32   14   45 1   
    33   14   46 1   
    34   15   30 2   
    35   15   59 1   
    36   16   17 ar  
    37   16   19 1   
    38   16   33 ar  
    39   17   31 ar  
    40   17   47 1   
    41   18   31 ar  
    42   18   32 ar  
    43   18   48 1   
    44   19   35 2   
    45   19   61 1   
    46   20   21 1   
    47   21   31 1   
    48   22   23 ar  
    49   22   49 1   
    50   23   24 ar  
    51   24   25 1   
    52   28   29 1   
    53   28   60 1   
    54   29   52 1   
    55   29   53 1   
    56   29   54 1   
    57   32   33 ar  
    58   32   55 1   
    59   33   34 1   
    60   34   35 1   
    61   37   59 1   
    62   38   59 1   
    63   50   60 1   
    64   51   60 1   
    65   56   61 1   
    66   57   61 1   
@<TRIPOS>SUBSTRUCTURE
     1 JNJ         1 TEMP              0 ****  ****    0 ROOT
