@<TRIPOS>MOLECULE
JNJ
   61    46     1     0     0
SMALL
bcc


@<TRIPOS>ATOM
      1 C1         -4.4150   -0.4030    2.7810 c1        1 JNJ     -0.146000
      2 C2         -3.0070   -0.4360    2.7750 c1        1 JNJ     -0.065000
      3 C3         -2.0370   -0.4390    3.8400 c1        1 JNJ     -0.097333
      4 N6         -6.3400    0.3700    4.2640 n3        1 JNJ     -0.421000
      5 C7         -2.5940   -0.4310    1.4840 c1        1 JNJ     -0.040000
      6 C8          3.7520   -0.3490    1.3070 c1        1 JNJ      0.109000
      7 C9          3.0920   -1.5680    1.4630 c1        1 JNJ     -0.185000
      8 C10         1.7330   -1.5910    1.7720 c1        1 JNJ      0.121000
      9 C11         1.0460   -0.4140    1.9230 c1        1 JNJ     -0.084000
     10 C12         1.7080    0.8080    1.7660 c1        1 JNJ     -0.097333
     11 C13         3.0590    0.8320    1.4590 c1        1 JNJ     -0.097333
     12 C14         5.6110   -0.1340   -0.2850 c1        1 JNJ     -0.030000
     13 C15         7.2850   -0.4840    1.0630 c1        1 JNJ     -0.164000
     14 C16         6.1050   -0.5350    1.8060 c1        1 JNJ     -0.164000
     15 C19         6.7010    1.2250   -2.6430 c3        1 JNJ     -0.121500
     16 C20        -5.4740   -0.6810    3.8300 c1        1 JNJ      0.384000
     17 C21        -5.0690    0.5790   -2.5750 c1        1 JNJ     -0.017250
     18 C22        -4.6420    0.6900   -1.2480 c1        1 JNJ     -0.039000
     19 C24        -4.5850   -1.6920   -1.0610 c1        1 JNJ     -0.097333
     20 C27        -5.5040    1.5320   -3.4850 c1        1 JNJ      0.033000
     21 N1         -4.8330   -0.3800    1.5110 n2        1 JNJ     -0.009000
     22 N2         -3.7080   -0.3960    0.6850 n2        1 JNJ     -0.093000
     23 C4         -0.6940   -0.4380    3.5500 c1        1 JNJ     -0.097333
     24 C5         -0.2700   -0.4330    2.2300 c1        1 JNJ     -0.017250
     25 C6         -1.2110   -0.4300    1.1870 c1        1 JNJ     -0.017250
     26 F1         -0.9390   -0.6090   -0.1610 f         1 JNJ     -0.096000
     27 F2          1.1050   -2.7230    1.8560 f         1 JNJ     -0.097000
     28 N3          5.0940   -0.3210    0.9780 n2        1 JNJ     -0.127000
     29 N4          6.9620   -0.2400   -0.2050 n2        1 JNJ     -0.127000
     30 C17         4.8170    0.3220   -1.5330 c2        1 JNJ      0.000000
     31 N5          5.6460    0.2120   -2.6880 n3        1 JNJ     -0.269000
     32 C18         4.8650    0.3920   -3.8490 c3        1 JNJ     -0.121500
     33 O1         -5.5770   -1.8300    4.3320 o         1 JNJ     -0.371000
     34 C23        -4.4040   -0.4430   -0.5020 c1        1 JNJ      0.031000
     35 C25        -5.0090   -1.8090   -2.3780 c1        1 JNJ     -0.097333
     36 C26        -5.2510   -0.6580   -3.1370 c1        1 JNJ     -0.017250
     37 O2         -5.7910   -0.4790   -4.3760 o         1 JNJ     -0.002700
     38 N7         -5.9440    0.8910   -4.5820 n2        1 JNJ     -0.126300
     39 N8         -5.7770    2.8360   -4.0080 n2        1 JNJ     -0.298000
     40 H3         -2.3250   -0.4400    4.7430 ha        1 JNJ      0.159833
     41 HN61       -6.3080    1.1820    3.8500 hn        1 JNJ      0.234000
     42 HN62       -6.8240    0.2740    5.0630 hn        1 JNJ      0.234000
     43 H9          3.6050   -2.4450    1.3500 ha        1 JNJ      0.161000
     44 H12         1.2200    1.6400    1.8750 ha        1 JNJ      0.159833
     45 H13         3.5130    1.6710    1.3520 ha        1 JNJ      0.159833
     46 H15         8.1480   -0.6010    1.3940 DU        1 JNJ      0.181500
     47 H16         6.0370   -0.7000    2.7820 DU        1 JNJ      0.181500
     48 H191        6.3640    2.0420   -2.1790 h1        1 JNJ      0.075167
     49 H192        6.9600    1.4470   -3.5210 h1        1 JNJ      0.075167
     50 H193        7.4140    0.8960   -2.1940 h1        1 JNJ      0.075167
     51 H22        -4.5160    1.5480   -0.8610 ha        1 JNJ      0.160000
     52 H24        -4.4030   -2.5420   -0.4960 ha        1 JNJ      0.159833
     53 H4         -0.0390   -0.4930    4.2710 ha        1 JNJ      0.159833
     54 H171        4.5150    1.3200   -1.4100 h4        1 JNJ      0.098000
     55 H172        3.9930   -0.2730   -1.6490 h4        1 JNJ      0.098000
     56 H181        4.5050    1.3460   -3.8780 h1        1 JNJ      0.075167
     57 H182        5.4250    0.2240   -4.6540 h1        1 JNJ      0.075167
     58 H183        4.1080   -0.2440   -3.8330 h1        1 JNJ      0.075167
     59 H25        -5.1370   -2.7000   -2.7770 ha        1 JNJ      0.159833
     60 HN81       -6.1370    2.9320   -4.8810 hn        1 JNJ      0.206500
     61 HN82       -5.6250    3.5730   -3.4940 hn        1 JNJ      0.206500
@<TRIPOS>BOND
     1    1    2 1   
     2    1   21 1   
     3    2    5 1   
     4    3   23 1   
     5    3   40 1   
     6    4   16 1   
     7    4   41 1   
     8    4   42 1   
     9    6    7 1   
    10    7   43 1   
    11    8    9 1   
    12    8   27 1   
    13   10   11 1   
    14   10   44 1   
    15   11   45 1   
    16   12   28 1   
    17   12   29 1   
    18   13   14 1   
    19   13   29 1   
    20   14   28 1   
    21   15   31 1   
    22   15   48 1   
    23   15   49 1   
    24   15   50 1   
    25   16   33 1   
    26   17   36 1   
    27   18   34 1   
    28   18   51 1   
    29   19   35 1   
    30   19   52 1   
    31   20   38 1   
    32   21   22 1   
    33   22   34 1   
    34   23   53 1   
    35   24   25 1   
    36   30   31 1   
    37   30   54 1   
    38   30   55 1   
    39   31   32 1   
    40   32   56 1   
    41   32   57 1   
    42   32   58 1   
    43   35   59 1   
    44   37   38 2   
    45   39   60 1   
    46   39   61 1   
@<TRIPOS>SUBSTRUCTURE
     1 JNJ         1 TEMP              0 ****  ****    0 ROOT
