@<TRIPOS>MOLECULE
JNJ
   63    66     1     0     0
SMALL
bcc


@<TRIPOS>ATOM
      1 C1          0.1160    0.1100    0.0570 c2        1 JNJ     -0.264000
      2 C2          1.5560    0.1330   -0.1440 ca        1 JNJ     -0.013000
      3 C3          2.6780    0.0660    0.6800 ca        1 JNJ     -0.091000
      4 C7          1.6990    0.2690   -1.5720 ca        1 JNJ     -0.074000
      5 C8          8.0970    0.4180   -2.8960 ca        1 JNJ      0.087000
      6 C9          7.7290    1.2710   -1.8370 ca        1 JNJ     -0.200000
      7 C10         6.4240    1.2260   -1.3190 ca        1 JNJ      0.146000
      8 C11         5.4640    0.3290   -1.8460 cp        1 JNJ     -0.099000
      9 C12         5.8560   -0.5120   -2.8950 ca        1 JNJ     -0.058000
     10 C13         7.1430   -0.4810   -3.4180 ca        1 JNJ     -0.154000
     11 C14        10.1930   -0.5170   -3.8440 c2        1 JNJ      0.114000
     12 C15         9.3320   -2.3800   -2.6750 c1        1 JNJ     -0.142000
     13 C16         8.6850   -3.0430   -1.9070 c1        1 JNJ     -0.127000
     14 C19        13.6820   -0.2910   -4.2150 c3        1 JNJ     -0.154000
     15 C20        -0.5410   -0.0280    1.3270 c2        1 JNJ      0.360000
     16 C21        -1.6630   -0.7320   -4.8950 c2        1 JNJ     -0.300000
     17 C22        -0.7190   -0.9000   -3.9110 c1        1 JNJ     -0.068000
     18 C24        -0.5550    1.6840   -3.9510 c2        1 JNJ     -0.122000
     19 C27        -2.5480   -1.6620   -5.6390 c2        1 JNJ      0.141000
     20 N1         -0.5230    0.2270   -1.1620 n2        1 JNJ      0.030000
     21 N2          0.3820    0.3330   -2.1030 na        1 JNJ     -0.011000
     22 C4          3.9280    0.1360    0.0900 ca        1 JNJ     -0.072000
     23 C5          4.1050    0.2660   -1.3090 cq        1 JNJ     -0.036000
     24 C6          2.9860    0.3320   -2.1600 ca        1 JNJ      0.130000
     25 F1          3.1160    0.4590   -3.4990 f         1 JNJ     -0.085000
     26 N3          9.3780    0.5490   -3.4690 nu        1 JNJ     -0.298000
     27 N4         10.1630   -1.7910   -3.5480 n2        1 JNJ     -0.157000
     28 N5         12.5070   -0.9240   -4.8020 n3        1 JNJ     -0.053000
     29 C18        12.5120   -2.1590   -5.2160 c2        1 JNJ      0.099000
     30 O1         -0.0670   -0.0990    2.4510 o         1 JNJ     -0.183000
     31 C23         0.0260    0.3530   -3.5370 c3        1 JNJ      0.002000
     32 C25        -1.5260    1.7740   -4.8860 c2        1 JNJ     -0.114000
     33 C26        -2.0750    0.5460   -5.3800 c2        1 JNJ      0.114000
     34 O2         -3.0780    0.3870   -6.2900 os        1 JNJ      0.022000
     35 N7         -3.3610   -0.9110   -6.4620 n2        1 JNJ     -0.118000
     36 H3          2.5630   -0.0340    1.7720 ha        1 JNJ      0.175000
     37 HN61       -2.4430    0.7400    0.8600 hn        1 JNJ      0.266667
     38 HN62       -2.4350   -0.2310    2.2230 hn        1 JNJ      0.266667
     39 H9          8.4400    1.9900   -1.4010 ha        1 JNJ      0.164000
     40 H12        13.4330   -2.7780   -5.1430 h4        1 JNJ      0.208500
     41 H13         5.1170   -1.2090   -3.3250 ha        1 JNJ      0.157000
     42 H15         8.1180   -3.6350   -1.2310 ha        1 JNJ      0.251000
     43 H16         9.8180    1.4350   -3.3410 hn        1 JNJ      0.246000
     44 H191       14.5460   -1.0090   -4.1890 h1        1 JNJ      0.147333
     45 H192       13.4390    0.0340   -3.1670 h1        1 JNJ      0.147333
     46 H193       13.9630    0.6050   -4.8340 h1        1 JNJ      0.147333
     47 H22         1.0110    0.2490   -4.1190 h1        1 JNJ      0.193000
     48 H24        -0.1080    2.5920   -3.5140 ha        1 JNJ      0.161000
     49 H4          4.8310    0.1000    0.7240 ha        1 JNJ      0.168000
     50 H171       11.6020    0.9750   -4.6830 h1        1 JNJ      0.159000
     51 H172       10.8440   -0.1790   -5.8920 h1        1 JNJ      0.159000
     52 H181        2.5150   -0.1100   -5.8670 ha        1 JNJ      0.001500
     53 H182        2.4740    0.5640   -5.9200 ha        1 JNJ      0.001500
     54 H183       11.6010   -2.6240   -5.6550 h4        1 JNJ      0.208500
     55 H25        -1.9120    2.7340   -5.2670 ha        1 JNJ      0.186000
     56 HN81       -3.1110   -3.5840   -6.0640 hn        1 JNJ      0.257500
     57 HN82       -1.8530   -3.4100   -4.9050 hn        1 JNJ      0.257500
     58 N6         -2.0600   -0.1150    1.2740 nz        1 JNJ     -0.140000
     59 C17        11.2940   -0.0970   -4.8580 c3        1 JNJ     -0.052000
     60 N8         -2.5440   -3.0070   -5.4900 nv        1 JNJ     -0.327000
     61 H51         7.4020   -1.1590   -4.2460 ha        1 JNJ      0.154000
     62 H63        -2.3410   -0.9130    0.6960 hn        1 JNJ      0.266667
     63 F2          6.1060    2.0650   -0.3070 f         1 JNJ     -0.084000
@<TRIPOS>BOND
     1    1    2 1   
     2    1   15 1   
     3    1   20 1   
     4    2    3 1   
     5    2    4 1   
     6    3   22 1   
     7    3   36 1   
     8    4   21 1   
     9    4   24 1   
    10    5    6 1   
    11    5   10 1   
    12    5   26 1   
    13    6    7 1   
    14    6   39 1   
    15    7    8 1   
    16    7   63 1   
    17    8    9 1   
    18    8   23 1   
    19    9   10 1   
    20    9   41 1   
    21   10   61 1   
    22   11   26 1   
    23   11   27 1   
    24   11   59 1   
    25   12   13 1   
    26   12   27 1   
    27   13   42 1   
    28   14   28 1   
    29   14   44 1   
    30   14   45 1   
    31   14   46 1   
    32   15   30 1   
    33   15   58 1   
    34   16   17 1   
    35   16   19 1   
    36   16   33 1   
    37   17   31 1   
    38   18   31 1   
    39   18   32 1   
    40   18   48 1   
    41   19   35 1   
    42   19   60 1   
    43   20   21 1   
    44   21   31 1   
    45   22   23 1   
    46   22   49 1   
    47   23   24 1   
    48   24   25 1   
    49   26   43 1   
    50   28   29 1   
    51   28   59 1   
    52   29   40 1   
    53   29   54 1   
    54   31   47 1   
    55   32   33 1   
    56   32   55 1   
    57   33   34 1   
    58   34   35 1   
    59   37   58 1   
    60   38   58 1   
    61   50   59 1   
    62   51   59 1   
    63   52   53 1   
    64   56   60 1   
    65   57   60 1   
    66   58   62 1   
@<TRIPOS>SUBSTRUCTURE
     1 JNJ         1 TEMP              0 ****  ****    0 ROOT
