@<TRIPOS>MOLECULE
JNK
   56    59     1     0     0
SMALL
bcc


@<TRIPOS>ATOM
      1 C1          1.7240   -0.4310    0.4920 cp        1 JNK      0.024000
      2 C2          0.4830   -1.1970    0.3760 cp        1 JNK      0.017000
      3 C3          2.8880   -0.8750   -0.1370 ca        1 JNK     -0.281300
      4 C4          1.7660    0.7560    1.2370 ca        1 JNK     -0.274300
      5 C5         -0.7360   -0.5390    0.1850 ca        1 JNK     -0.280300
      6 C6          0.4910   -2.5950    0.4600 ca        1 JNK     -0.266300
      7 C7          4.0860   -0.1040   -0.0150 ca        1 JNK      0.635200
      8 C8          2.9870    1.4440    1.3140 ca        1 JNK      0.431200
      9 C9         -1.9320   -1.3110    0.0750 ca        1 JNK      0.542200
     10 C10        -0.7330   -3.2730    0.3400 ca        1 JNK      0.426200
     11 N11         5.2200   -0.5430   -0.7320 nh        1 JNK     -0.713300
     12 N12         4.1240    1.0500    0.7230 nb        1 JNK     -0.703000
     13 N13        -3.1420   -0.6230   -0.1390 n         1 JNK     -0.571400
     14 N14        -1.9190   -2.6790    0.1440 nb        1 JNK     -0.662000
     15 C15         6.5020    0.0210   -0.5360 ca        1 JNK      0.118600
     16 C16        -4.4280   -1.0770    0.1640 c         1 JNK      0.671100
     17 C17         7.6010   -0.8140   -0.2340 ca        1 JNK     -0.118000
     18 C18         6.7300    1.4010   -0.7280 ca        1 JNK     -0.118000
     19 C19        -5.5650   -0.2030   -0.3700 c3        1 JNK     -0.136700
     20 O20        -4.6420   -2.0900    0.8420 o         1 JNK     -0.539100
     21 C21         8.8830   -0.2940   -0.1310 ca        1 JNK     -0.150000
     22 C22         8.0100    1.9270   -0.6140 ca        1 JNK     -0.150000
     23 C23        -6.8540   -1.0110   -0.4050 c3        1 JNK     -0.070900
     24 C24        -5.7230    1.0250    0.5150 c3        1 JNK     -0.070900
     25 C25         9.0950    1.0830   -0.3160 ca        1 JNK      0.109900
     26 C26        -8.0130   -0.1630   -0.8780 c3        1 JNK     -0.092400
     27 C27        -6.8830    1.8810    0.0530 c3        1 JNK     -0.092400
     28 C28        -8.1750    1.0700    0.0070 c3        1 JNK      0.139100
     29 O29        -9.2230    1.8430   -0.5850 os        1 JNK     -0.420600
     30 C30        -9.8440    2.7410    0.3180 c3        1 JNK      0.116700
     31 F31        10.3440    1.5970   -0.2080 f         1 JNK     -0.141900
     32 H3          2.8730   -1.8000   -0.7310 ha        1 JNK      0.148000
     33 H4          0.8760    1.1340    1.7550 ha        1 JNK      0.150000
     34 H5         -0.7620    0.5570    0.1170 ha        1 JNK      0.145000
     35 H6          1.4240   -3.1490    0.6230 ha        1 JNK      0.148000
     36 H8          3.0690    2.3800    1.8980 h4        1 JNK      0.026100
     37 H10        -0.7740   -4.3770    0.3980 h4        1 JNK      0.029100
     38 H11         5.2350   -1.5360   -0.8550 hn        1 JNK      0.417800
     39 H13        -3.0500    0.2770   -0.5520 hn        1 JNK      0.321500
     40 H17         7.4540   -1.8950   -0.0820 ha        1 JNK      0.146000
     41 H18         5.8940    2.0770   -0.9690 ha        1 JNK      0.146000
     42 H19        -5.3270    0.1290   -1.4200 hc        1 JNK      0.066700
     43 H21         9.7350   -0.9500    0.1010 ha        1 JNK      0.149500
     44 H22         8.1830    3.0030   -0.7590 ha        1 JNK      0.149500
     45 H231       -7.0630   -1.4190    0.6190 hc        1 JNK      0.055950
     46 H232       -6.7230   -1.8890   -1.0910 hc        1 JNK      0.055950
     47 H241       -5.8930    0.6980    1.5750 hc        1 JNK      0.055950
     48 H242       -4.7830    1.6350    0.4950 hc        1 JNK      0.055950
     49 H261       -8.9600   -0.7620   -0.8510 hc        1 JNK      0.054450
     50 H262       -7.8530    0.1650   -1.9380 hc        1 JNK      0.054450
     51 H271       -6.6760    2.2950   -0.9680 hc        1 JNK      0.054450
     52 H272       -7.0090    2.7490    0.7500 hc        1 JNK      0.054450
     53 H28        -8.4670    0.7590    1.0490 h1        1 JNK      0.042700
     54 H301      -10.2970    2.1880    1.1790 h1        1 JNK      0.032700
     55 H302       -9.1120    3.4970    0.6950 h1        1 JNK      0.032700
     56 H303      -10.6410    3.2380   -0.2900 h1        1 JNK      0.032700
@<TRIPOS>BOND
     1    1    2 1   
     2    1    3 ar  
     3    1    4 ar  
     4    2    5 ar  
     5    2    6 ar  
     6    3    7 ar  
     7    3   32 1   
     8    4    8 ar  
     9    4   33 1   
    10    5    9 ar  
    11    5   34 1   
    12    6   10 ar  
    13    6   35 1   
    14    7   11 1   
    15    7   12 ar  
    16    8   12 ar  
    17    8   36 1   
    18    9   13 1   
    19    9   14 ar  
    20   10   14 ar  
    21   10   37 1   
    22   11   15 1   
    23   11   38 1   
    24   13   16 1   
    25   13   39 1   
    26   15   17 ar  
    27   15   18 ar  
    28   16   19 1   
    29   16   20 2   
    30   17   21 ar  
    31   17   40 1   
    32   18   22 ar  
    33   18   41 1   
    34   19   23 1   
    35   19   24 1   
    36   19   42 1   
    37   21   25 ar  
    38   21   43 1   
    39   22   25 ar  
    40   22   44 1   
    41   23   26 1   
    42   23   45 1   
    43   23   46 1   
    44   24   27 1   
    45   24   47 1   
    46   24   48 1   
    47   25   31 1   
    48   26   28 1   
    49   26   49 1   
    50   26   50 1   
    51   27   28 1   
    52   27   51 1   
    53   27   52 1   
    54   28   29 1   
    55   28   53 1   
    56   29   30 1   
    57   30   54 1   
    58   30   55 1   
    59   30   56 1   
@<TRIPOS>SUBSTRUCTURE
     1 JNK         1 TEMP              0 ****  ****    0 ROOT
