@<TRIPOS>MOLECULE
JNK
   56    59     1     0     0
SMALL
bcc


@<TRIPOS>ATOM
      1 C1          0.0170   -0.0430   -0.0790 cp        1 JNK      0.024000
      2 C2         -0.6150   -0.0570   -1.3990 cp        1 JNK      0.017000
      3 C3          1.3790    0.2380    0.0470 ca        1 JNK     -0.281300
      4 C4         -0.7300   -0.3130    1.0760 ca        1 JNK     -0.274300
      5 C5         -1.8820    0.5050   -1.5790 ca        1 JNK     -0.280300
      6 C6          0.0310   -0.6350   -2.4990 ca        1 JNK     -0.266300
      7 C7          1.9710    0.2530    1.3480 ca        1 JNK      0.635200
      8 C8         -0.0660   -0.2890    2.3120 ca        1 JNK      0.431200
      9 C9         -2.4770    0.4780   -2.8770 ca        1 JNK      0.542200
     10 C10        -0.6280   -0.6150   -3.7390 ca        1 JNK      0.426200
     11 N11         3.3310    0.6210    1.4420 nu        1 JNK     -0.713300
     12 N12         1.2380   -0.0220    2.4740 nb        1 JNK     -0.703000
     13 N13        -3.7440    1.0710   -3.0330 ns        1 JNK     -0.571400
     14 N14        -1.8360   -0.0760   -3.9540 nb        1 JNK     -0.662000
     15 C15         4.0690    0.4840    2.6400 ca        1 JNK      0.118600
     16 C16        -4.6830    0.7870   -4.0270 c         1 JNK      0.671100
     17 C17         5.2890   -0.2280    2.6380 ca        1 JNK     -0.118000
     18 C18         3.6600    1.1270    3.8280 ca        1 JNK     -0.118000
     19 C19        -5.8860    1.7340   -4.0690 c3        1 JNK     -0.136700
     20 O20        -4.5790   -0.1760   -4.7980 o         1 JNK     -0.539100
     21 C21         6.0760   -0.2950    3.7800 ca        1 JNK     -0.150000
     22 C22         4.4390    1.0530    4.9750 ca        1 JNK     -0.150000
     23 C23        -6.5600    1.6390   -5.4310 c3        1 JNK     -0.070900
     24 C24        -6.8610    1.3690   -2.9590 c3        1 JNK     -0.070900
     25 C25         5.6520    0.3420    4.9580 ca        1 JNK      0.109900
     26 C26        -7.7850    2.5220   -5.4920 c3        1 JNK     -0.092400
     27 C27        -8.0940    2.2450   -3.0120 c3        1 JNK     -0.092400
     28 C28        -8.7660    2.1600   -4.3790 c3        1 JNK      0.139100
     29 O29        -9.8300    3.1130   -4.4680 os        1 JNK     -0.420600
     30 C30       -11.0370    2.6720   -3.8720 c3        1 JNK      0.116700
     31 F31         6.4140    0.2740    6.0770 f         1 JNK     -0.141900
     32 H3          1.9800    0.4590   -0.8470 ha        1 JNK      0.148000
     33 H4         -1.8000   -0.5490    1.0180 ha        1 JNK      0.150000
     34 H5         -2.4050    0.9620   -0.7270 ha        1 JNK      0.145000
     35 H6          1.0210   -1.0990   -2.3980 ha        1 JNK      0.148000
     36 H8         -0.6130   -0.5050    3.2490 h4        1 JNK      0.026100
     37 H10        -0.1540   -1.0590   -4.6350 h4        1 JNK      0.029100
     38 H11         3.8510    0.3780    0.6220 hn        1 JNK      0.417800
     39 H13        -3.9750    1.7630   -2.3570 hn        1 JNK      0.321500
     40 H17         5.6360   -0.7380    1.7260 ha        1 JNK      0.146000
     41 H18         2.7160    1.6950    3.8590 ha        1 JNK      0.146000
     42 H19        -5.5380    2.7950   -3.9200 hc        1 JNK      0.066700
     43 H21         7.0260   -0.8490    3.7710 ha        1 JNK      0.149500
     44 H22         4.1140    1.5510    5.9000 ha        1 JNK      0.149500
     45 H231       -5.8320    1.9460   -6.2270 hc        1 JNK      0.055950
     46 H232       -6.8390    0.5710   -5.6310 hc        1 JNK      0.055950
     47 H241       -6.3660    1.4880   -1.9600 hc        1 JNK      0.055950
     48 H242       -7.1570    0.2920   -3.0650 hc        1 JNK      0.055950
     49 H261       -8.2930    2.4020   -6.4830 hc        1 JNK      0.054450
     50 H262       -7.4980    3.6010   -5.3900 hc        1 JNK      0.054450
     51 H271       -7.8200    3.3130   -2.8070 hc        1 JNK      0.054450
     52 H272       -8.8160    1.9240   -2.2170 hc        1 JNK      0.054450
     53 H28        -9.1660    1.1210   -4.5430 h1        1 JNK      0.042700
     54 H301      -10.9000    2.5000   -2.7760 h1        1 JNK      0.032700
     55 H302      -11.7550    3.5110   -4.0490 h1        1 JNK      0.032700
     56 H303      -11.4020    1.7350   -4.3610 h1        1 JNK      0.032700
@<TRIPOS>BOND
     1    1    2 1   
     2    1    3 ar  
     3    1    4 ar  
     4    2    5 ar  
     5    2    6 ar  
     6    3    7 ar  
     7    3   32 1   
     8    4    8 ar  
     9    4   33 1   
    10    5    9 ar  
    11    5   34 1   
    12    6   10 ar  
    13    6   35 1   
    14    7   11 1   
    15    7   12 ar  
    16    8   12 ar  
    17    8   36 1   
    18    9   13 1   
    19    9   14 ar  
    20   10   14 ar  
    21   10   37 1   
    22   11   15 1   
    23   11   38 1   
    24   13   16 1   
    25   13   39 1   
    26   15   17 ar  
    27   15   18 ar  
    28   16   19 1   
    29   16   20 2   
    30   17   21 ar  
    31   17   40 1   
    32   18   22 ar  
    33   18   41 1   
    34   19   23 1   
    35   19   24 1   
    36   19   42 1   
    37   21   25 ar  
    38   21   43 1   
    39   22   25 ar  
    40   22   44 1   
    41   23   26 1   
    42   23   45 1   
    43   23   46 1   
    44   24   27 1   
    45   24   47 1   
    46   24   48 1   
    47   25   31 1   
    48   26   28 1   
    49   26   49 1   
    50   26   50 1   
    51   27   28 1   
    52   27   51 1   
    53   27   52 1   
    54   28   29 1   
    55   28   53 1   
    56   29   30 1   
    57   30   54 1   
    58   30   55 1   
    59   30   56 1   
@<TRIPOS>SUBSTRUCTURE
     1 JNK         1 TEMP              0 ****  ****    0 ROOT
