@<TRIPOS>MOLECULE
JNK
   56    59     1     0     0
SMALL
bcc


@<TRIPOS>ATOM
      1 C1          0.0170   -0.0440   -0.0800 cp        1 JNK      0.024000
      2 C2         -0.6160   -0.0600   -1.3990 cp        1 JNK      0.017000
      3 C3          1.3800    0.2360    0.0440 ca        1 JNK     -0.281300
      4 C4         -0.7290   -0.3100    1.0770 ca        1 JNK     -0.274300
      5 C5         -1.8830    0.5040   -1.5790 ca        1 JNK     -0.280300
      6 C6          0.0280   -0.6410   -2.4980 ca        1 JNK     -0.266300
      7 C7          1.9730    0.2530    1.3450 ca        1 JNK      0.635200
      8 C8         -0.0640   -0.2840    2.3120 ca        1 JNK      0.431200
      9 C9         -2.4790    0.4750   -2.8760 ca        1 JNK      0.542200
     10 C10        -0.6320   -0.6230   -3.7380 ca        1 JNK      0.426200
     11 N11         3.3330    0.6190    1.4370 nh        1 JNK     -0.713300
     12 N12         1.2410   -0.0180    2.4720 nb        1 JNK     -0.703000
     13 N13        -3.7450    1.0690   -3.0320 n         1 JNK     -0.571400
     14 N14        -1.8400   -0.0830   -3.9520 nb        1 JNK     -0.662000
     15 C15         4.0720    0.4840    2.6350 ca        1 JNK      0.118600
     16 C16        -4.6860    0.7850   -4.0250 c         1 JNK      0.671100
     17 C17         5.2920   -0.2310    2.6330 ca        1 JNK     -0.118000
     18 C18         3.6650    1.1300    3.8210 ca        1 JNK     -0.118000
     19 C19        -5.8870    1.7330   -4.0670 c3        1 JNK     -0.136700
     20 O20        -4.5840   -0.1790   -4.7940 o         1 JNK     -0.539100
     21 C21         6.0790   -0.2970    3.7740 ca        1 JNK     -0.150000
     22 C22         4.4450    1.0560    4.9680 ca        1 JNK     -0.150000
     23 C23        -6.5620    1.6370   -5.4280 c3        1 JNK     -0.070900
     24 C24        -6.8630    1.3710   -2.9560 c3        1 JNK     -0.070900
     25 C25         5.6570    0.3440    4.9520 ca        1 JNK      0.109900
     26 C26        -7.7870    2.5220   -5.4890 c3        1 JNK     -0.092400
     27 C27        -8.0940    2.2490   -3.0090 c3        1 JNK     -0.092400
     28 C28        -8.7680    2.1630   -4.3760 c3        1 JNK      0.139100
     29 O29        -9.8300    3.1160   -4.4650 os        1 JNK     -0.420600
     30 C30       -11.0370    2.6770   -3.8670 c3        1 JNK      0.116700
     31 F31         6.4200    0.2770    6.0700 f         1 JNK     -0.141900
     32 H3          1.9800    0.4540   -0.8500 ha        1 JNK      0.148000
     33 H4         -1.8000   -0.5440    1.0210 ha        1 JNK      0.150000
     34 H5         -2.4040    0.9640   -0.7280 ha        1 JNK      0.145000
     35 H6          1.0170   -1.1050   -2.3970 ha        1 JNK      0.148000
     36 H8         -0.6110   -0.4970    3.2500 h4        1 JNK      0.026100
     37 H10        -0.1610   -1.0700   -4.6330 h4        1 JNK      0.029100
     38 H11         3.8520    0.3730    0.6170 hn        1 JNK      0.417800
     39 H13        -3.9740    1.7630   -2.3570 hn        1 JNK      0.321500
     40 H17         5.6370   -0.7430    1.7220 ha        1 JNK      0.146000
     41 H18         2.7220    1.6980    3.8530 ha        1 JNK      0.146000
     42 H19        -5.5380    2.7930   -3.9200 hc        1 JNK      0.066700
     43 H21         7.0290   -0.8510    3.7660 ha        1 JNK      0.149500
     44 H22         4.1210    1.5570    5.8930 ha        1 JNK      0.149500
     45 H231       -6.8430    0.5690   -5.6270 hc        1 JNK      0.055950
     46 H232       -5.8350    1.9420   -6.2250 hc        1 JNK      0.055950
     47 H241       -6.3660    1.4910   -1.9580 hc        1 JNK      0.055950
     48 H242       -7.1600    0.2940   -3.0600 hc        1 JNK      0.055950
     49 H261       -7.4980    3.6000   -5.3890 hc        1 JNK      0.054450
     50 H262       -8.2960    2.4010   -6.4810 hc        1 JNK      0.054450
     51 H271       -7.8190    3.3160   -2.8050 hc        1 JNK      0.054450
     52 H272       -8.8160    1.9290   -2.2130 hc        1 JNK      0.054450
     53 H28        -9.1690    1.1230   -4.5380 h1        1 JNK      0.042700
     54 H301      -11.7550    3.5170   -4.0450 h1        1 JNK      0.032700
     55 H302      -10.9000    2.5070   -2.7710 h1        1 JNK      0.032700
     56 H303      -11.4030    1.7400   -4.3540 h1        1 JNK      0.032700
@<TRIPOS>BOND
     1    1    2 1   
     2    1    3 ar  
     3    1    4 ar  
     4    2    5 ar  
     5    2    6 ar  
     6    3    7 ar  
     7    3   32 1   
     8    4    8 ar  
     9    4   33 1   
    10    5    9 ar  
    11    5   34 1   
    12    6   10 ar  
    13    6   35 1   
    14    7   11 1   
    15    7   12 ar  
    16    8   12 ar  
    17    8   36 1   
    18    9   13 1   
    19    9   14 ar  
    20   10   14 ar  
    21   10   37 1   
    22   11   15 1   
    23   11   38 1   
    24   13   16 1   
    25   13   39 1   
    26   15   17 ar  
    27   15   18 ar  
    28   16   19 1   
    29   16   20 2   
    30   17   21 ar  
    31   17   40 1   
    32   18   22 ar  
    33   18   41 1   
    34   19   23 1   
    35   19   24 1   
    36   19   42 1   
    37   21   25 ar  
    38   21   43 1   
    39   22   25 ar  
    40   22   44 1   
    41   23   26 1   
    42   23   45 1   
    43   23   46 1   
    44   24   27 1   
    45   24   47 1   
    46   24   48 1   
    47   25   31 1   
    48   26   28 1   
    49   26   49 1   
    50   26   50 1   
    51   27   28 1   
    52   27   51 1   
    53   27   52 1   
    54   28   29 1   
    55   28   53 1   
    56   29   30 1   
    57   30   54 1   
    58   30   55 1   
    59   30   56 1   
@<TRIPOS>SUBSTRUCTURE
     1 JNK         1 TEMP              0 ****  ****    0 ROOT
