@<TRIPOS>MOLECULE
JNK
   58    61     1     0     0
SMALL
bcc


@<TRIPOS>ATOM
      1 C1          0.2390    1.7340    0.2980 cp        1 JNK     -0.004000
      2 C2         -1.1520    1.4100   -0.0250 cp        1 JNK     -0.003000
      3 C3          1.2430    0.7510    0.1790 ca        1 JNK     -0.191300
      4 C4          0.5930    3.0120    0.7380 ca        1 JNK     -0.183300
      5 C5         -1.9210    2.3010   -0.8020 ca        1 JNK     -0.186300
      6 C6         -1.7440    0.2330    0.4380 ca        1 JNK     -0.181300
      7 C7          2.5620    1.1200    0.5060 ca        1 JNK      0.477200
      8 C8          1.9470    3.2740    1.0490 ca        1 JNK      0.450200
      9 C9         -3.2590    1.9500   -1.0730 ca        1 JNK      0.473200
     10 C10        -3.0960   -0.0240    0.1090 ca        1 JNK      0.448200
     11 N11         3.6570    0.1220    0.3860 n4        1 JNK     -0.606100
     12 N12         2.9210    2.3630    0.9400 nb        1 JNK     -0.630000
     13 N13        -4.1030    2.8500   -1.8870 n4        1 JNK     -0.681500
     14 N14        -3.8490    0.8000   -0.6280 nb        1 JNK     -0.636000
     15 C15         3.9870   -0.5120    1.6690 ca        1 JNK     -0.097400
     16 C16        -4.4180    2.2270   -3.2670 c         1 JNK      0.575100
     17 C17         3.5820   -1.8390    1.9100 ca        1 JNK     -0.065500
     18 C18         4.7310    0.2010    2.6260 ca        1 JNK     -0.065500
     19 C19        -5.7850    1.6070   -3.3890 c3        1 JNK     -0.129700
     20 O20        -3.5180    2.3410   -4.0760 o         1 JNK     -0.401100
     21 C21         3.9260   -2.4520    3.1050 ca        1 JNK     -0.150500
     22 C22         5.0740   -0.4130    3.8220 ca        1 JNK     -0.150500
     23 C23        -6.8560    2.6940   -3.4380 c3        1 JNK     -0.073900
     24 C24        -5.8340    0.7560   -4.6580 c3        1 JNK     -0.073900
     25 C25         4.6740   -1.7440    4.0720 ca        1 JNK      0.212900
     26 C26        -8.2270    2.0630   -3.5700 c3        1 JNK     -0.099900
     27 C27        -7.1970    0.1180   -4.7980 c3        1 JNK     -0.099900
     28 C28        -8.3080    1.1670   -4.8050 c3        1 JNK      0.141100
     29 O29        -9.5760    0.5200   -4.7240 os        1 JNK     -0.411600
     30 C30       -10.1080    0.1430   -5.9860 c3        1 JNK      0.110700
     31 F31         5.0050   -2.3390    5.2310 f         1 JNK     -0.082900
     32 H3          0.9840   -0.2630   -0.1620 ha        1 JNK      0.169000
     33 H4         -0.1580    3.8080    0.8600 ha        1 JNK      0.179000
     34 H5         -1.4700    3.2310   -1.1820 ha        1 JNK      0.174000
     35 H6         -1.1880   -0.4850    1.0600 ha        1 JNK      0.179000
     36 H8          2.2710    4.2760    1.4070 h4        1 JNK      0.080100
     37 H10        -3.6060   -0.9460    0.4620 h4        1 JNK      0.079100
     38 H11         4.5080    0.5910    0.0310 hn        1 JNK      0.473300
     39 H13        -3.6000    3.7350   -2.0160 hn        1 JNK      0.469300
     40 H17         3.0070   -2.4120    1.1640 ha        1 JNK      0.164500
     41 H18         5.0530    1.2430    2.4450 ha        1 JNK      0.164500
     42 H19        -5.9690    0.9390   -2.4970 hc        1 JNK      0.117700
     43 H21         3.6270   -3.4950    3.3070 ha        1 JNK      0.192500
     44 H22         5.6640    0.1310    4.5810 ha        1 JNK      0.192500
     45 H231       -6.6680    3.3710   -4.3120 hc        1 JNK      0.059700
     46 H232       -6.8320    3.3140   -2.5040 hc        1 JNK      0.059700
     47 H241       -5.6150    1.4010   -5.5500 hc        1 JNK      0.059700
     48 H242       -5.0450   -0.0390   -4.6090 hc        1 JNK      0.059700
     49 H261       -8.4700    1.4560   -2.6590 hc        1 JNK      0.077200
     50 H262       -9.0020    2.8700   -3.6510 hc        1 JNK      0.077200
     51 H271       -7.3810   -0.6040   -3.9590 hc        1 JNK      0.077200
     52 H272       -7.2330   -0.4660   -5.7550 hc        1 JNK      0.077200
     53 H28        -8.2390    1.7910   -5.7390 h1        1 JNK      0.052700
     54 H301      -10.2670    1.0410   -6.6310 h1        1 JNK      0.047033
     55 H302       -9.4320   -0.5860   -6.4970 h1        1 JNK      0.047033
     56 H303      -11.0870   -0.3390   -5.7320 h1        1 JNK      0.047033
     57 H112        3.3670   -0.5980   -0.2870 hn        1 JNK      0.473300
     58 H132       -4.9880    3.0300   -1.3940 hn        1 JNK      0.469300
@<TRIPOS>BOND
     1    1    2 1   
     2    1    3 ar  
     3    1    4 ar  
     4    2    5 ar  
     5    2    6 ar  
     6    3    7 ar  
     7    3   32 1   
     8    4    8 ar  
     9    4   33 1   
    10    5    9 ar  
    11    5   34 1   
    12    6   10 ar  
    13    6   35 1   
    14    7   11 1   
    15    7   12 ar  
    16    8   12 ar  
    17    8   36 1   
    18    9   13 1   
    19    9   14 ar  
    20   10   14 ar  
    21   10   37 1   
    22   11   15 1   
    23   11   38 1   
    24   11   57 1   
    25   13   16 1   
    26   13   39 1   
    27   13   58 1   
    28   15   17 ar  
    29   15   18 ar  
    30   16   19 1   
    31   16   20 2   
    32   17   21 ar  
    33   17   40 1   
    34   18   22 ar  
    35   18   41 1   
    36   19   23 1   
    37   19   24 1   
    38   19   42 1   
    39   21   25 ar  
    40   21   43 1   
    41   22   25 ar  
    42   22   44 1   
    43   23   26 1   
    44   23   45 1   
    45   23   46 1   
    46   24   27 1   
    47   24   47 1   
    48   24   48 1   
    49   25   31 1   
    50   26   28 1   
    51   26   49 1   
    52   26   50 1   
    53   27   28 1   
    54   27   51 1   
    55   27   52 1   
    56   28   29 1   
    57   28   53 1   
    58   29   30 1   
    59   30   54 1   
    60   30   55 1   
    61   30   56 1   
@<TRIPOS>SUBSTRUCTURE
     1 JNK         1 TEMP              0 ****  ****    0 ROOT
