@<TRIPOS>MOLECULE
JNO
   51    54     1     0     0
SMALL
bcc


@<TRIPOS>ATOM
      1 C01         1.3880    1.5400    1.8100 c3        1 JNO      0.086100
      2 N02         1.2830    0.0830    1.5660 ny        1 JNO     -0.664800
      3 C03         2.2160   -0.3600    0.4570 c         1 JNO      0.528100
      4 O04         1.7080   -0.4330   -0.6500 o         1 JNO     -0.414100
      5 C05         3.6710   -0.6770    0.7940 c3        1 JNO      0.118800
      6 N06         3.9760   -0.5990    2.1980 n3        1 JNO     -0.793600
      7 C07         5.0140    0.3780    2.5210 c3        1 JNO      0.171800
      8 C08         5.2620    0.5120    4.0200 c3        1 JNO     -0.101900
      9 C09         5.6040   -0.8620    4.6230 c3        1 JNO      0.213500
     10 C10         4.4320   -1.8130    4.3250 c3        1 JNO     -0.101900
     11 C11         4.1890   -1.9030    2.8230 c3        1 JNO      0.171800
     12 N12         5.9370   -0.7340    6.0250 nu        1 JNO     -0.818900
     13 C13         6.5250   -1.8230    6.7140 ca        1 JNO      0.857900
     14 N14         6.4150   -1.7920    8.0950 nb        1 JNO     -0.744000
     15 C15         7.0990   -2.7430    8.7840 ca        1 JNO      0.594100
     16 C16         7.8750   -3.7270    8.1230 ca        1 JNO     -0.414600
     17 C17         7.8780   -3.7000    6.7200 ca        1 JNO      0.467200
     18 N18         7.2140   -2.7880    5.9910 nb        1 JNO     -0.759000
     19 C19         7.0290   -2.6850   10.2310 cc        1 JNO     -0.309900
     20 N20         7.1060   -3.7610   11.1260 na        1 JNO      0.043700
     21 C21         7.1660   -5.1240   10.9560 cc        1 JNO     -0.083300
     22 C22         7.2020   -5.9560   12.0550 cd        1 JNO     -0.155000
     23 C23         7.1640   -5.4220   13.3720 cd        1 JNO     -0.112000
     24 C24         7.0730   -4.0700   13.5750 cc        1 JNO     -0.090000
     25 C25         7.0280   -3.1960   12.4440 cc        1 JNO     -0.013300
     26 N26         6.9090   -1.8270   12.3780 nd        1 JNO     -0.285600
     27 C27         6.9000   -1.5170   11.0430 cd        1 JNO      0.092600
     28 H01         1.1530    2.0940    0.8610 hx        1 JNO      0.109700
     29 H01A        2.4300    1.7880    2.1490 hx        1 JNO      0.109700
     30 H01B        0.6550    1.8360    2.6090 hx        1 JNO      0.109700
     31 HN02        0.3150   -0.1440    1.3000 hn        1 JNO      0.465800
     32 H05         3.8450   -1.7110    0.3610 h1        1 JNO      0.117700
     33 H05A        4.2780    0.0560    0.1780 h1        1 JNO      0.117700
     34 H07         4.6830    1.3780    2.1190 h1        1 JNO      0.047950
     35 H07A        5.9890    0.1090    2.0170 h1        1 JNO      0.047950
     36 H08         6.1180    1.2230    4.1660 hc        1 JNO      0.067200
     37 H08A        4.3620    0.9470    4.5260 hc        1 JNO      0.067200
     38 H09         6.5200   -1.2560    4.0840 h1        1 JNO      0.096700
     39 H10         4.6690   -2.8450    4.6970 hc        1 JNO      0.067200
     40 H10A        3.5060   -1.4620    4.8490 hc        1 JNO      0.067200
     41 H11         5.0630   -2.4390    2.3490 h1        1 JNO      0.047950
     42 H11A        3.2650   -2.5220    2.6390 h1        1 JNO      0.047950
     43 HN12        5.2620   -0.2270    6.5620 hn        1 JNO      0.422800
     44 H16         8.4780   -4.4550    8.6750 ha        1 JNO      0.161000
     45 H17         8.4450   -4.4500    6.1370 h4        1 JNO      0.032100
     46 H21         7.1710   -5.5000    9.9190 h4        1 JNO      0.167000
     47 H22         7.2590   -7.0440   11.9090 ha        1 JNO      0.158000
     48 H23         7.2020   -6.1160   14.2260 ha        1 JNO      0.153000
     49 H24         7.0290   -3.6180   14.5770 ha        1 JNO      0.174000
     50 H27         6.8120   -0.4890   10.6840 h4        1 JNO      0.194000
     51 H022        1.5160   -0.4260    2.4280 hn        1 JNO      0.465800
@<TRIPOS>BOND
     1    1    2 1   
     2    1   28 1   
     3    1   29 1   
     4    1   30 1   
     5    2    3 1   
     6    2   31 1   
     7    2   51 1   
     8    3    4 2   
     9    3    5 1   
    10    5    6 1   
    11    5   32 1   
    12    5   33 1   
    13    6    7 1   
    14    6   11 1   
    15    7    8 1   
    16    7   34 1   
    17    7   35 1   
    18    8    9 1   
    19    8   36 1   
    20    8   37 1   
    21    9   10 1   
    22    9   12 1   
    23    9   38 1   
    24   10   11 1   
    25   10   39 1   
    26   10   40 1   
    27   11   41 1   
    28   11   42 1   
    29   12   13 1   
    30   12   43 1   
    31   13   14 ar  
    32   13   18 ar  
    33   14   15 ar  
    34   15   16 ar  
    35   15   19 1   
    36   16   17 ar  
    37   16   44 1   
    38   17   18 ar  
    39   17   45 1   
    40   19   20 1   
    41   19   27 2   
    42   20   21 1   
    43   20   25 1   
    44   21   22 2   
    45   21   46 1   
    46   22   23 1   
    47   22   47 1   
    48   23   24 2   
    49   23   48 1   
    50   24   25 1   
    51   24   49 1   
    52   25   26 2   
    53   26   27 1   
    54   27   50 1   
@<TRIPOS>SUBSTRUCTURE
     1 JNO         1 TEMP              0 ****  ****    0 ROOT
