@<TRIPOS>MOLECULE
JNO
   50    53     1     0     0
SMALL
bcc


@<TRIPOS>ATOM
      1 C01        -7.4600    1.3960   -2.4510 c3        1 JNO      0.075300
      2 N02        -6.8970    0.6050   -1.4040 n         1 JNO     -0.560900
      3 C03        -6.9060    1.0030   -0.0870 c         1 JNO      0.653100
      4 O04        -7.4930    2.0370    0.2900 o         1 JNO     -0.616100
      5 C05        -6.2410    0.0890    0.9520 c3        1 JNO      0.093800
      6 N06        -4.9170   -0.3650    0.5620 n3        1 JNO     -0.742600
      7 C07        -4.4890   -1.5280    1.3290 c3        1 JNO      0.168800
      8 C08        -3.1080   -2.0380    0.9250 c3        1 JNO     -0.095900
      9 C09        -2.0730   -0.9060    1.0460 c3        1 JNO      0.207500
     10 C10        -2.5390    0.2640    0.1660 c3        1 JNO     -0.095900
     11 C11        -3.9350    0.7140    0.5850 c3        1 JNO      0.168800
     12 N12        -0.7430   -1.3990    0.7310 nh        1 JNO     -0.815900
     13 C13         0.3920   -0.6130    0.9990 ca        1 JNO      0.871900
     14 N14         1.5430   -0.9350    0.2880 nb        1 JNO     -0.749000
     15 C15         2.6770   -0.2800    0.6350 ca        1 JNO      0.581100
     16 C16         2.6990    0.6960    1.6580 ca        1 JNO     -0.432600
     17 C17         1.4770    0.9780    2.2900 ca        1 JNO      0.467200
     18 N18         0.3240    0.3670    1.9870 nb        1 JNO     -0.745000
     19 C19         3.8960   -0.6430   -0.0720 cc        1 JNO     -0.284900
     20 N20         4.9510    0.2140   -0.4100 na        1 JNO      0.037700
     21 C21         5.1350    1.5710   -0.2820 cc        1 JNO     -0.074300
     22 C22         6.2940    2.1550   -0.7450 cd        1 JNO     -0.165000
     23 C23         7.3040    1.3720   -1.3690 cd        1 JNO     -0.118000
     24 C24         7.1390    0.0220   -1.5360 cc        1 JNO     -0.092000
     25 C25         5.9380   -0.5990   -1.0660 cc        1 JNO     -0.022300
     26 N26         5.5210   -1.9050   -1.1330 nd        1 JNO     -0.290600
     27 C27         4.2810   -1.9320   -0.5420 cd        1 JNO      0.080600
     28 H01        -6.6520    1.8740   -3.0700 h1        1 JNO      0.043367
     29 H01A       -8.0820    0.7420   -3.1200 h1        1 JNO      0.043367
     30 H01B       -8.1100    2.2040   -2.0190 h1        1 JNO      0.043367
     31 HN02       -6.3330   -0.1680   -1.6670 hn        1 JNO      0.322500
     32 H05        -6.2330    0.6630    1.9250 h1        1 JNO      0.066200
     33 H05A       -6.9120   -0.8070    1.0820 h1        1 JNO      0.066200
     34 H07        -4.4810   -1.3110    2.4390 h1        1 JNO      0.040200
     35 H07A       -5.2370   -2.3510    1.1480 h1        1 JNO      0.040200
     36 H08        -2.8360   -2.8880    1.6020 hc        1 JNO      0.057200
     37 H08A       -3.1370   -2.4260   -0.1260 hc        1 JNO      0.057200
     38 H09        -2.0670   -0.5580    2.1230 h1        1 JNO      0.087700
     39 H10        -1.8440    1.1350    0.2780 hc        1 JNO      0.057200
     40 H10A       -2.5420   -0.0420   -0.9120 hc        1 JNO      0.057200
     41 H11        -4.2940    1.5070   -0.1310 h1        1 JNO      0.040200
     42 H11A       -3.8660    1.1860    1.6100 h1        1 JNO      0.040200
     43 HN12       -0.6940   -1.9220   -0.1200 hn        1 JNO      0.424800
     44 H16         3.6250    1.1870    1.9720 ha        1 JNO      0.153000
     45 H17         1.4130    1.7400    3.0890 h4        1 JNO      0.026100
     46 H21         4.3170    2.1420    0.1890 h4        1 JNO      0.171000
     47 H22         6.4360    3.2390   -0.6340 ha        1 JNO      0.153000
     48 H23         8.2180    1.8730   -1.7220 ha        1 JNO      0.146000
     49 H24         7.8900   -0.6160   -2.0230 ha        1 JNO      0.167000
     50 H27         3.6950   -2.8510   -0.4590 h4        1 JNO      0.195000
@<TRIPOS>BOND
     1    1    2 1   
     2    1   28 1   
     3    1   29 1   
     4    1   30 1   
     5    2    3 1   
     6    2   31 1   
     7    3    4 2   
     8    3    5 1   
     9    5    6 1   
    10    5   32 1   
    11    5   33 1   
    12    6    7 1   
    13    6   11 1   
    14    7    8 1   
    15    7   34 1   
    16    7   35 1   
    17    8    9 1   
    18    8   36 1   
    19    8   37 1   
    20    9   10 1   
    21    9   12 1   
    22    9   38 1   
    23   10   11 1   
    24   10   39 1   
    25   10   40 1   
    26   11   41 1   
    27   11   42 1   
    28   12   13 1   
    29   12   43 1   
    30   13   14 ar  
    31   13   18 ar  
    32   14   15 ar  
    33   15   16 ar  
    34   15   19 1   
    35   16   17 ar  
    36   16   44 1   
    37   17   18 ar  
    38   17   45 1   
    39   19   20 1   
    40   19   27 2   
    41   20   21 1   
    42   20   25 1   
    43   21   22 2   
    44   21   46 1   
    45   22   23 1   
    46   22   47 1   
    47   23   24 2   
    48   23   48 1   
    49   24   25 1   
    50   24   49 1   
    51   25   26 2   
    52   26   27 1   
    53   27   50 1   
@<TRIPOS>SUBSTRUCTURE
     1 JNO         1 TEMP              0 ****  ****    0 ROOT
