@<TRIPOS>MOLECULE
JNO
   52    55     1     0     0
SMALL
bcc


@<TRIPOS>ATOM
      1 C01         0.3030    1.2800    1.4820 c3        1 JNO      0.075100
      2 N02         1.5730    0.6370    1.8940 n4        1 JNO     -0.660800
      3 C03         1.5600   -0.8690    1.7490 c         1 JNO      0.524100
      4 O04         0.4800   -1.4080    1.5850 o         1 JNO     -0.373100
      5 C05         2.9120   -1.5730    1.7750 c3        1 JNO      0.093800
      6 N06         3.8450   -0.9910    2.7220 n3        1 JNO     -0.771600
      7 C07         5.1920   -0.8620    2.1640 c3        1 JNO      0.160800
      8 C08         6.2050   -0.2730    3.1450 c3        1 JNO     -0.104900
      9 C09         6.2210   -1.1120    4.4290 c3        1 JNO      0.126500
     10 C10         4.8120   -1.1140    5.0280 c3        1 JNO     -0.104900
     11 C11         3.8290   -1.6870    4.0090 c3        1 JNO      0.160800
     12 N12         7.2510   -0.5930    5.3990 n4        1 JNO     -0.741700
     13 C13         7.6620   -1.6410    6.3930 ca        1 JNO      0.714900
     14 N14         7.0340   -1.5870    7.6010 nb        1 JNO     -0.723000
     15 C15         7.4530   -2.5090    8.5330 ca        1 JNO      0.622100
     16 C16         8.4860   -3.4360    8.2010 ca        1 JNO     -0.347600
     17 C17         9.0210   -3.4060    6.9090 ca        1 JNO      0.472200
     18 N18         8.6240   -2.5180    5.9670 nb        1 JNO     -0.707000
     19 C19         6.8400   -2.4510    9.8200 cc        1 JNO     -0.375900
     20 N20         6.7970   -3.4450   10.8210 na        1 JNO      0.064700
     21 C21         7.1620   -4.7660   10.8560 cc        1 JNO     -0.091300
     22 C22         6.9610   -5.5100   12.0060 cd        1 JNO     -0.128000
     23 C23         6.3580   -4.9310   13.1490 cd        1 JNO     -0.082000
     24 C24         5.9410   -3.6190   13.1270 cc        1 JNO     -0.086000
     25 C25         6.1410   -2.8520   11.9450 cc        1 JNO      0.016700
     26 N26         5.7790   -1.5360   11.6700 nd        1 JNO     -0.263600
     27 C27         6.1840   -1.2990   10.4020 cd        1 JNO      0.130600
     28 H01        -0.5460    0.8610    2.0900 hx        1 JNO      0.120033
     29 H01A        0.1090    1.0670    0.3950 hx        1 JNO      0.120033
     30 H01B        0.3800    2.3880    1.6470 hx        1 JNO      0.120033
     31 HN02        1.7650    0.8540    2.8800 hn        1 JNO      0.464300
     32 H05         2.6780   -2.6610    1.9960 h1        1 JNO      0.122200
     33 H05A        3.3100   -1.5240    0.7160 h1        1 JNO      0.122200
     34 H07         5.1320   -0.1730    1.2730 h1        1 JNO      0.068950
     35 H07A        5.5820   -1.8600    1.8040 h1        1 JNO      0.068950
     36 H08         5.9440    0.7930    3.3780 hc        1 JNO      0.086700
     37 H08A        7.2090   -0.2860    2.6420 hc        1 JNO      0.086700
     38 H09         6.5240   -2.1730    4.1710 hx        1 JNO      0.128700
     39 H10         4.5100   -0.0740    5.3180 hc        1 JNO      0.086700
     40 H10A        4.7680   -1.7560    5.9490 hc        1 JNO      0.086700
     41 H11         2.7890   -1.5920    4.4350 h1        1 JNO      0.068950
     42 H11A        4.0480   -2.7890    3.8820 h1        1 JNO      0.068950
     43 HN12        6.8740    0.2190    5.9050 hn        1 JNO      0.472800
     44 H16         8.8950   -4.1270    8.9510 ha        1 JNO      0.188000
     45 H17         9.8200   -4.1070    6.5870 h4        1 JNO      0.072100
     46 H21         7.5960   -5.2070    9.9440 h4        1 JNO      0.169000
     47 H22         7.2720   -6.5670   12.0240 ha        1 JNO      0.177000
     48 H23         6.2210   -5.5470   14.0540 ha        1 JNO      0.176000
     49 H24         5.4520   -3.1340   13.9880 ha        1 JNO      0.194000
     50 H27         6.0380   -0.3320    9.9130 h4        1 JNO      0.193000
     51 H022        2.3480    1.0100    1.3340 hn        1 JNO      0.464300
     52 H122        8.0890   -0.3030    4.8750 hn        1 JNO      0.472800
@<TRIPOS>BOND
     1    1    2 1   
     2    1   28 1   
     3    1   29 1   
     4    1   30 1   
     5    2    3 1   
     6    2   31 1   
     7    2   51 1   
     8    3    4 2   
     9    3    5 1   
    10    5    6 1   
    11    5   32 1   
    12    5   33 1   
    13    6    7 1   
    14    6   11 1   
    15    7    8 1   
    16    7   34 1   
    17    7   35 1   
    18    8    9 1   
    19    8   36 1   
    20    8   37 1   
    21    9   10 1   
    22    9   12 1   
    23    9   38 1   
    24   10   11 1   
    25   10   39 1   
    26   10   40 1   
    27   11   41 1   
    28   11   42 1   
    29   12   13 1   
    30   12   43 1   
    31   12   52 1   
    32   13   14 ar  
    33   13   18 ar  
    34   14   15 ar  
    35   15   16 ar  
    36   15   19 1   
    37   16   17 ar  
    38   16   44 1   
    39   17   18 ar  
    40   17   45 1   
    41   19   20 1   
    42   19   27 2   
    43   20   21 1   
    44   20   25 1   
    45   21   22 2   
    46   21   46 1   
    47   22   23 1   
    48   22   47 1   
    49   23   24 2   
    50   23   48 1   
    51   24   25 1   
    52   24   49 1   
    53   25   26 2   
    54   26   27 1   
    55   27   50 1   
@<TRIPOS>SUBSTRUCTURE
     1 JNO         1 TEMP              0 ****  ****    0 ROOT
