@<TRIPOS>MOLECULE
JNO
   51    54     1     0     0
SMALL
bcc


@<TRIPOS>ATOM
      1 C01         1.5930    1.7870    1.8330 c3        1 JNO      0.086100
      2 N02         1.3300    0.3430    1.6420 n4        1 JNO     -0.664800
      3 C03         2.1720   -0.2270    0.5170 c         1 JNO      0.528100
      4 O04         1.6180   -0.2800   -0.5690 o         1 JNO     -0.414100
      5 C05         3.5990   -0.6830    0.8150 c3        1 JNO      0.118800
      6 N06         3.9620   -0.5930    2.2040 n3        1 JNO     -0.793600
      7 C07         5.1060    0.2810    2.4580 c3        1 JNO      0.171800
      8 C08         5.4220    0.4350    3.9420 c3        1 JNO     -0.101900
      9 C09         5.6440   -0.9470    4.5810 c3        1 JNO      0.213500
     10 C10         4.3700   -1.7810    4.3560 c3        1 JNO     -0.101900
     11 C11         4.0640   -1.8910    2.8670 c3        1 JNO      0.171800
     12 N12         6.0400   -0.8110    5.9650 nh        1 JNO     -0.818900
     13 C13         6.5390   -1.9320    6.6720 ca        1 JNO      0.857900
     14 N14         6.4840   -1.8480    8.0530 nb        1 JNO     -0.744000
     15 C15         7.0930   -2.8420    8.7510 ca        1 JNO      0.594100
     16 C16         7.7390   -3.9210    8.0990 ca        1 JNO     -0.414600
     17 C17         7.6930   -3.9380    6.6970 ca        1 JNO      0.467200
     18 N18         7.0990   -2.9850    5.9600 nb        1 JNO     -0.759000
     19 C19         7.0820   -2.7330   10.1970 cc        1 JNO     -0.309900
     20 N20         7.0810   -3.7840   11.1260 na        1 JNO      0.043700
     21 C21         6.9960   -5.1500   11.0000 cc        1 JNO     -0.083300
     22 C22         6.9870   -5.9470   12.1250 cd        1 JNO     -0.155000
     23 C23         7.0510   -5.3720   13.4240 cd        1 JNO     -0.112000
     24 C24         7.1060   -4.0120   13.5830 cc        1 JNO     -0.090000
     25 C25         7.1090   -3.1730   12.4250 cc        1 JNO     -0.013300
     26 N26         7.1290   -1.8020   12.3160 nd        1 JNO     -0.285600
     27 C27         7.1020   -1.5340   10.9730 cd        1 JNO      0.092600
     28 H01         1.3810    2.3340    0.8750 hx        1 JNO      0.109700
     29 H01A        2.6660    1.9370    2.1290 hx        1 JNO      0.109700
     30 H01B        0.9240    2.1810    2.6460 hx        1 JNO      0.109700
     31 HN02        1.5420   -0.1630    2.5120 hn        1 JNO      0.465800
     32 H05         3.6490   -1.7420    0.4130 h1        1 JNO      0.117700
     33 H05A        4.2540   -0.0360    0.1540 h1        1 JNO      0.117700
     34 H07         4.8640    1.2970    2.0330 h1        1 JNO      0.048200
     35 H07A        6.0280   -0.1020    1.9310 h1        1 JNO      0.048200
     36 H08         4.5910    0.9770    4.4630 hc        1 JNO      0.067200
     37 H08A        6.3510    1.0580    4.0340 hc        1 JNO      0.067200
     38 H09         6.4940   -1.4500    4.0250 h1        1 JNO      0.096700
     39 H10         4.5150   -2.8190    4.7550 hc        1 JNO      0.067200
     40 H10A        3.5060   -1.3190    4.8990 hc        1 JNO      0.067200
     41 H11         3.0760   -2.4180    2.7360 h1        1 JNO      0.048200
     42 H11A        4.8610   -2.5290    2.3820 h1        1 JNO      0.048200
     43 HN12        5.4410   -0.2200    6.5070 hn        1 JNO      0.422800
     44 H16         8.2840   -4.6900    8.6550 ha        1 JNO      0.161000
     45 H17         8.1590   -4.7600    6.1210 h4        1 JNO      0.032100
     46 H21         6.9250   -5.5570    9.9770 h4        1 JNO      0.167000
     47 H22         6.9280   -7.0390   12.0150 ha        1 JNO      0.158000
     48 H23         7.0500   -6.0400   14.2990 ha        1 JNO      0.153000
     49 H24         7.1460   -3.5270   14.5700 ha        1 JNO      0.174000
     50 H27         7.1060   -0.5130   10.5810 h4        1 JNO      0.194000
     51 H022        0.3360    0.2090    1.4160 hn        1 JNO      0.465800
@<TRIPOS>BOND
     1    1    2 1   
     2    1   28 1   
     3    1   29 1   
     4    1   30 1   
     5    2    3 1   
     6    2   31 1   
     7    2   51 1   
     8    3    4 2   
     9    3    5 1   
    10    5    6 1   
    11    5   32 1   
    12    5   33 1   
    13    6    7 1   
    14    6   11 1   
    15    7    8 1   
    16    7   34 1   
    17    7   35 1   
    18    8    9 1   
    19    8   36 1   
    20    8   37 1   
    21    9   10 1   
    22    9   12 1   
    23    9   38 1   
    24   10   11 1   
    25   10   39 1   
    26   10   40 1   
    27   11   41 1   
    28   11   42 1   
    29   12   13 1   
    30   12   43 1   
    31   13   14 ar  
    32   13   18 ar  
    33   14   15 ar  
    34   15   16 ar  
    35   15   19 1   
    36   16   17 ar  
    37   16   44 1   
    38   17   18 ar  
    39   17   45 1   
    40   19   20 1   
    41   19   27 2   
    42   20   21 1   
    43   20   25 1   
    44   21   22 2   
    45   21   46 1   
    46   22   23 1   
    47   22   47 1   
    48   23   24 2   
    49   23   48 1   
    50   24   25 1   
    51   24   49 1   
    52   25   26 2   
    53   26   27 1   
    54   27   50 1   
@<TRIPOS>SUBSTRUCTURE
     1 JNO         1 TEMP              0 ****  ****    0 ROOT
