@<TRIPOS>MOLECULE
JNO
   50    45     1     0     0
SMALL
bcc


@<TRIPOS>ATOM
      1 C01        -2.3840    3.5140   -7.7050 c3        1 JNO     -0.080000
      2 N02        -2.7790    2.4520   -6.8450 n         1 JNO     -0.370000
      3 C03        -2.2300    2.3600   -5.5060 c2        1 JNO      0.296000
      4 O04        -1.7910    3.4040   -4.9240 o         1 JNO     -0.377000
      5 C05        -2.1150    0.9750   -4.8090 c3        1 JNO     -0.093000
      6 N06        -1.6410    1.1500   -3.4850 n3        1 JNO     -0.267000
      7 C07        -0.2440    0.6720   -3.3980 c3        1 JNO     -0.068000
      8 C08         0.2820    0.6940   -1.9980 c3        1 JNO     -0.174500
      9 C09        -0.6190   -0.0040   -1.0370 c3        1 JNO      0.011000
     10 C10        -2.0260    0.4850   -1.1280 c3        1 JNO     -0.174500
     11 C11        -2.5450    0.4630   -2.5380 c3        1 JNO     -0.068000
     12 N12        -0.1270    0.2190    0.3140 n3        1 JNO     -0.262000
     13 C13         0.3120   -0.8910    1.1060 c2        1 JNO      0.155000
     14 N14         0.4820   -0.7460    2.4450 n2        1 JNO     -0.223000
     15 C15         0.9840   -1.7760    3.1820 c1        1 JNO      0.143000
     16 C16         1.3120   -2.9420    2.5750 c1        1 JNO     -0.121000
     17 C17         1.1380   -3.0860    1.2170 c1        1 JNO     -0.121000
     18 N18         0.6460   -2.0760    0.4960 n1        1 JNO     -0.220000
     19 C19         1.1670   -1.6280    4.5920 c1        1 JNO     -0.146000
     20 N20         2.1880   -1.3380    5.4210 n2        1 JNO     -0.038000
     21 C21         3.5320   -1.1790    5.1960 c1        1 JNO     -0.121000
     22 C22         4.3890   -0.8680    6.2560 c1        1 JNO     -0.121000
     23 C23         3.8840   -0.7210    7.5300 c1        1 JNO     -0.121000
     24 C24         2.5470   -0.8790    7.7560 c1        1 JNO     -0.121000
     25 C25         1.6830   -1.1930    6.6820 c1        1 JNO      0.002000
     26 N26         0.3320   -1.3980    6.6200 n1        1 JNO     -0.150000
     27 C27         0.0100   -1.6660    5.3390 c1        1 JNO     -0.062000
     28 H01        -2.9400    3.5110   -8.5040 h1        1 JNO      0.083000
     29 H01A       -1.4510    3.3970   -7.9590 h1        1 JNO      0.083000
     30 H01B       -2.4920    4.3860   -7.2270 h1        1 JNO      0.083000
     31 HN02       -3.3600    1.7850   -7.1600 hn        1 JNO      0.236000
     32 H05        -1.4910    0.4160   -5.3030 h1        1 JNO      0.105500
     33 H05A       -3.0250    0.5270   -4.7870 h1        1 JNO      0.105500
     34 H07        -0.1970   -0.2190   -3.7330 h1        1 JNO      0.079750
     35 H07A        0.2990    1.2250   -3.9340 h1        1 JNO      0.079750
     36 H08         0.3850    1.6600   -1.7070 hc        1 JNO      0.096250
     37 H08A        1.1910    0.2430   -1.9820 hc        1 JNO      0.096250
     38 H09        -0.6020   -0.9400   -1.2210 h1        1 JNO      0.126000
     39 H10        -2.6190   -0.1050   -0.5500 hc        1 JNO      0.096250
     40 H10A       -2.0640    1.3800   -0.7960 hc        1 JNO      0.096250
     41 H11        -2.6490   -0.4690   -2.8230 h1        1 JNO      0.079750
     42 H11A       -3.4100    0.8980   -2.5590 h1        1 JNO      0.079750
     43 HN12       -0.0380    1.0620    0.6290 hn        1 JNO      0.221000
     44 H16         1.6850   -3.7090    3.1200 ha        1 JNO      0.159000
     45 H17         1.3610   -3.8780    0.8060 ha        1 JNO      0.159000
     46 H21         3.8990   -1.2900    4.2730 ha        1 JNO      0.159000
     47 H22         5.2950   -0.7580    6.1010 ha        1 JNO      0.159000
     48 H23         4.5150   -0.4960    8.3100 ha        1 JNO      0.159000
     49 H24         2.1940   -0.7760    8.6460 ha        1 JNO      0.159000
     50 H27        -0.8740   -1.8480    5.0040 DU        1 JNO      0.193000
@<TRIPOS>BOND
     1    1    2 1   
     2    1   28 1   
     3    1   29 1   
     4    1   30 1   
     5    2    3 1   
     6    2   31 1   
     7    3    4 1   
     8    3    5 1   
     9    5    6 1   
    10    5   32 1   
    11    5   33 1   
    12    6    7 1   
    13    6   11 1   
    14    7    8 1   
    15    7   34 1   
    16    7   35 1   
    17    8    9 1   
    18    8   36 1   
    19    8   37 1   
    20    9   10 1   
    21    9   12 1   
    22    9   38 1   
    23   10   11 1   
    24   10   39 1   
    25   10   40 1   
    26   11   41 1   
    27   11   42 1   
    28   12   13 1   
    29   12   43 1   
    30   13   14 1   
    31   13   18 1   
    32   14   15 1   
    33   16   17 1   
    34   16   44 1   
    35   17   45 1   
    36   19   20 1   
    37   19   27 1   
    38   20   25 1   
    39   21   22 1   
    40   21   46 1   
    41   22   47 1   
    42   23   24 1   
    43   23   48 1   
    44   24   49 1   
    45   26   27 1   
@<TRIPOS>SUBSTRUCTURE
     1 JNO         1 TEMP              0 ****  ****    0 ROOT
