@<TRIPOS>MOLECULE
JNS
   31    33     1     0     0
SMALL
bcc


@<TRIPOS>ATOM
      1 C1          0.6600    0.3100   -0.1150 ca        1 JNS     -0.137500
      2 C2          2.0230    0.4070    0.1690 ca        1 JNS     -0.152000
      3 C3         -0.2630    0.1600    0.9170 ca        1 JNS     -0.127500
      4 C4         -1.6450   -2.4760    1.7210 ca        1 JNS     -0.132000
      5 C5          2.4580    0.3560    1.4920 ca        1 JNS     -0.137500
      6 C6         -2.1510   -3.4450    0.8410 ca        1 JNS     -0.152000
      7 C7          0.1640    0.1070    2.2520 ca        1 JNS     -0.022800
      8 C8         -2.4770   -1.6400    2.4750 ca        1 JNS     -0.069800
      9 C9         -3.8940   -1.7260    2.3900 ca        1 JNS     -0.059600
     10 C10         1.5370    0.2120    2.5270 ca        1 JNS     -0.127500
     11 C11        -3.5260   -3.5250    0.7570 ca        1 JNS      0.040100
     12 C12        -4.3780   -2.6830    1.5150 ca        1 JNS      0.057100
     13 C14        -0.7790    0.0100    3.3540 ce        1 JNS     -0.179200
     14 C15        -1.9130   -0.7000    3.4340 cf        1 JNS     -0.042200
     15 C16        -4.7990   -0.8160    3.2190 c         1 JNS      0.922200
     16 C17        -5.6760   -4.0710    0.2570 c3        1 JNS      0.318200
     17 O19        -4.7840   -0.9780    4.4710 o         1 JNS     -0.812300
     18 O20        -5.4780    0.0470    2.6070 o         1 JNS     -0.812300
     19 O21        -4.2940   -4.3880   -0.0250 os        1 JNS     -0.357900
     20 O22        -5.7070   -3.0100    1.2260 os        1 JNS     -0.309900
     21 H1          0.3120    0.3520   -1.1570 ha        1 JNS      0.119000
     22 H2          2.7490    0.5240   -0.6470 ha        1 JNS      0.115000
     23 H3         -1.3400    0.0740    0.6950 ha        1 JNS      0.141000
     24 H5          3.5300    0.4310    1.7210 ha        1 JNS      0.119000
     25 H10         1.8840    0.1770    3.5710 ha        1 JNS      0.141000
     26 H14        -0.5000    0.6370    4.2220 ha        1 JNS      0.117000
     27 H15        -2.5510   -0.5870    4.3420 ha        1 JNS      0.182000
     28 H171       -6.1650   -4.9760    0.6940 h2        1 JNS      0.050200
     29 H172       -6.1580   -3.7150   -0.6870 h2        1 JNS      0.050200
     30 H4         -0.5530   -2.3740    1.8200 ha        1 JNS      0.129000
     31 H6         -1.4910   -4.0960    0.2590 ha        1 JNS      0.131000
@<TRIPOS>BOND
     1    1    2 ar  
     2    1    3 ar  
     3    1   21 1   
     4    2    5 ar  
     5    2   22 1   
     6    3    7 ar  
     7    3   23 1   
     8    4    6 ar  
     9    4    8 ar  
    10    4   30 1   
    11    5   10 ar  
    12    5   24 1   
    13    6   11 ar  
    14    6   31 1   
    15    7   10 ar  
    16    7   13 1   
    17    8    9 ar  
    18    8   14 1   
    19    9   12 ar  
    20    9   15 1   
    21   10   25 1   
    22   11   12 ar  
    23   11   19 1   
    24   12   20 1   
    25   13   14 2   
    26   13   26 1   
    27   14   27 1   
    28   15   17 1   
    29   15   18 1   
    30   16   19 1   
    31   16   20 1   
    32   16   28 1   
    33   16   29 1   
@<TRIPOS>SUBSTRUCTURE
     1 JNS         1 TEMP              0 ****  ****    0 ROOT
