@<TRIPOS>MOLECULE
JNS
   31    33     1     0     0
SMALL
bcc


@<TRIPOS>ATOM
      1 C1         -3.3740   -1.2730    1.4630 ca        1 JNS     -0.137500
      2 C2         -4.6730   -1.3300    0.9580 ca        1 JNS     -0.152000
      3 C3         -2.4810   -0.3110    1.0000 ca        1 JNS     -0.127500
      4 C4         -0.2040   -0.7980   -1.0210 ca        1 JNS     -0.132000
      5 C5         -5.0770   -0.4150   -0.0130 ca        1 JNS     -0.137500
      6 C6          0.6500   -1.9110   -1.0490 ca        1 JNS     -0.152000
      7 C7         -2.8770    0.6150    0.0220 ca        1 JNS     -0.022800
      8 C8          0.2290    0.4700   -0.6170 ca        1 JNS     -0.069800
      9 C9          1.5710    0.7030   -0.2080 ca        1 JNS     -0.059600
     10 C10        -4.1890    0.5540   -0.4750 ca        1 JNS     -0.127500
     11 C11         1.9510   -1.6840   -0.6500 ca        1 JNS      0.040100
     12 C12         2.4000   -0.4040   -0.2370 ca        1 JNS      0.057100
     13 C14        -1.9880    1.6670   -0.4390 ce        1 JNS     -0.179200
     14 C15        -0.6680    1.6160   -0.6750 cf        1 JNS     -0.042200
     15 C16         2.0430    2.0900    0.2260 c         1 JNS      0.922200
     16 C17         4.1530   -1.8560   -0.1100 c3        1 JNS      0.318200
     17 O19         2.0710    2.9910   -0.6590 o         1 JNS     -0.812300
     18 O20         2.3470    2.2520    1.4360 o         1 JNS     -0.812300
     19 O21         3.0050   -2.5950   -0.5820 os        1 JNS     -0.357900
     20 O22         3.7570   -0.4880    0.0910 os        1 JNS     -0.309900
     21 H1         -3.0520   -1.9920    2.2310 ha        1 JNS      0.119000
     22 H2         -5.3760   -2.0910    1.3240 ha        1 JNS      0.115000
     23 H3         -1.4510   -0.2690    1.3910 ha        1 JNS      0.141000
     24 H5         -6.0990   -0.4550   -0.4150 ha        1 JNS      0.119000
     25 H10        -4.5120    1.2770   -1.2380 ha        1 JNS      0.141000
     26 H14        -2.5000    2.6370   -0.5880 ha        1 JNS      0.117000
     27 H15        -0.1390    2.5570   -0.9540 ha        1 JNS      0.182000
     28 H171        4.4760   -2.2880    0.8690 h2        1 JNS      0.050200
     29 H172        4.9460   -1.8910   -0.8970 h2        1 JNS      0.050200
     30 H4         -1.2520   -0.9310   -1.3300 ha        1 JNS      0.129000
     31 H6          0.3010   -2.8980   -1.3710 ha        1 JNS      0.131000
@<TRIPOS>BOND
     1    1    2 ar  
     2    1    3 ar  
     3    1   21 1   
     4    2    5 ar  
     5    2   22 1   
     6    3    7 ar  
     7    3   23 1   
     8    4    6 ar  
     9    4    8 ar  
    10    4   30 1   
    11    5   10 ar  
    12    5   24 1   
    13    6   11 ar  
    14    6   31 1   
    15    7   10 ar  
    16    7   13 1   
    17    8    9 ar  
    18    8   14 1   
    19    9   12 ar  
    20    9   15 1   
    21   10   25 1   
    22   11   12 ar  
    23   11   19 1   
    24   12   20 1   
    25   13   14 2   
    26   13   26 1   
    27   14   27 1   
    28   15   17 1   
    29   15   18 1   
    30   16   19 1   
    31   16   20 1   
    32   16   28 1   
    33   16   29 1   
@<TRIPOS>SUBSTRUCTURE
     1 JNS         1 TEMP              0 ****  ****    0 ROOT
