@<TRIPOS>MOLECULE
JNS
   31    33     1     0     0
SMALL
bcc


@<TRIPOS>ATOM
      1 C1          0.6740    0.3020   -0.1030 ca        1 JNS     -0.137500
      2 C2          2.0360    0.3900    0.1840 ca        1 JNS     -0.152000
      3 C3         -0.2530    0.1530    0.9260 ca        1 JNS     -0.127500
      4 C4         -1.6520   -2.4770    1.7170 ca        1 JNS     -0.132000
      5 C5          2.4680    0.3320    1.5090 ca        1 JNS     -0.137500
      6 C6         -2.1610   -3.4400    0.8330 ca        1 JNS     -0.152000
      7 C7          0.1710    0.0930    2.2620 ca        1 JNS     -0.022800
      8 C8         -2.4800   -1.6390    2.4730 ca        1 JNS     -0.069800
      9 C9         -3.8980   -1.7170    2.3830 ca        1 JNS     -0.059600
     10 C10         1.5440    0.1900    2.5410 ca        1 JNS     -0.127500
     11 C11        -3.5360   -3.5120    0.7450 ca        1 JNS      0.040100
     12 C12        -4.3850   -2.6670    1.5040 ca        1 JNS      0.057100
     13 C14        -0.7750   -0.0020    3.3610 ce        1 JNS     -0.179200
     14 C15        -1.9140   -0.7060    3.4360 cf        1 JNS     -0.042200
     15 C16        -4.8000   -0.8040    3.2130 c         1 JNS      0.922200
     16 C17        -5.6880   -4.0430    0.2370 c3        1 JNS      0.318200
     17 O19        -4.7890   -0.9710    4.4650 o         1 JNS     -0.812300
     18 O20        -5.4720    0.0650    2.6030 o         1 JNS     -0.812300
     19 O21        -4.3080   -4.3670   -0.0420 os        1 JNS     -0.357900
     20 O22        -5.7150   -2.9860    1.2110 os        1 JNS     -0.309900
     21 H1          0.3280    0.3490   -1.1460 ha        1 JNS      0.119000
     22 H2          2.7660    0.5060   -0.6290 ha        1 JNS      0.115000
     23 H3         -1.3290    0.0740    0.7010 ha        1 JNS      0.141000
     24 H5          3.5400    0.4010    1.7400 ha        1 JNS      0.119000
     25 H10         1.8880    0.1500    3.5850 ha        1 JNS      0.141000
     26 H14        -0.4950    0.6210    4.2320 ha        1 JNS      0.117000
     27 H15        -2.5530   -0.5920    4.3430 ha        1 JNS      0.182000
     28 H171       -6.1840   -4.9470    0.6710 h2        1 JNS      0.050200
     29 H172       -6.1650   -3.6810   -0.7060 h2        1 JNS      0.050200
     30 H4         -0.5600   -2.3820    1.8200 ha        1 JNS      0.129000
     31 H6         -1.5030   -4.0930    0.2500 ha        1 JNS      0.131000
@<TRIPOS>BOND
     1    1    2 ar  
     2    1    3 ar  
     3    1   21 1   
     4    2    5 ar  
     5    2   22 1   
     6    3    7 ar  
     7    3   23 1   
     8    4    6 ar  
     9    4    8 ar  
    10    4   30 1   
    11    5   10 ar  
    12    5   24 1   
    13    6   11 ar  
    14    6   31 1   
    15    7   10 ar  
    16    7   13 1   
    17    8    9 ar  
    18    8   14 1   
    19    9   12 ar  
    20    9   15 1   
    21   10   25 1   
    22   11   12 ar  
    23   11   19 1   
    24   12   20 1   
    25   13   14 2   
    26   13   26 1   
    27   14   27 1   
    28   15   17 1   
    29   15   18 1   
    30   16   19 1   
    31   16   20 1   
    32   16   28 1   
    33   16   29 1   
@<TRIPOS>SUBSTRUCTURE
     1 JNS         1 TEMP              0 ****  ****    0 ROOT
