@<TRIPOS>MOLECULE
JNS
   31    27     1     0     0
SMALL
bcc


@<TRIPOS>ATOM
      1 C1          3.8900    1.1610    0.2660 c1        1 JNS     -0.078000
      2 C2          4.0650    0.9800    1.6290 c1        1 JNS     -0.078000
      3 C3          2.6180    1.3560   -0.2490 c1        1 JNS     -0.078000
      4 C4         -1.5360    0.0790    1.0580 c1        1 JNS     -0.078500
      5 C5          2.9680    0.9940    2.4770 c1        1 JNS     -0.078000
      6 C6         -2.0180   -1.2210    1.1670 c1        1 JNS     -0.094500
      7 C7          1.5210    1.3710    0.5990 cg        1 JNS     -0.067800
      8 C8         -1.1140    0.5660   -0.1790 ch        1 JNS     -0.067800
      9 C9         -1.1760   -0.2480   -1.3040 cg        1 JNS     -0.008200
     10 C10         1.6960    1.1890    1.9620 c1        1 JNS     -0.078500
     11 C11        -2.0810   -2.0420    0.0330 c1        1 JNS      0.023600
     12 C12        -1.6610   -1.5580   -1.1960 c1        1 JNS      0.040600
     13 C14         0.5460    2.3940    0.0610 ce        1 JNS     -0.089200
     14 C15        -0.6920    2.0140   -0.3170 cf        1 JNS     -0.089200
     15 C16        -2.1060    0.0450   -2.4600 c         1 JNS      0.870800
     16 C17        -2.3730   -3.7090   -1.5040 c3        1 JNS      0.318200
     17 O19        -1.7040   -0.1030   -3.6440 o         1 JNS     -0.812300
     18 O20        -3.2820    0.4380   -2.2380 o         1 JNS     -0.812300
     19 O21        -2.5330   -3.3820   -0.1520 os        1 JNS     -0.341400
     20 O22        -1.8510   -2.5900   -2.1630 os        1 JNS     -0.293400
     21 H1          4.6620    1.1510   -0.3310 ha        1 JNS      0.070250
     22 H2          4.9610    0.8420    1.9920 ha        1 JNS      0.070250
     23 H3          2.4990    1.5230   -1.2040 ha        1 JNS      0.070250
     24 H5          3.0920    0.8660    3.4370 ha        1 JNS      0.070250
     25 H4         -1.4840    0.6470    1.8500 ha        1 JNS      0.069000
     26 H6         -2.3350   -1.5530    2.0280 ha        1 JNS      0.073500
     27 H10         0.9250    1.1990    2.5590 ha        1 JNS      0.069000
     28 H14         0.8180    3.3280   -0.0280 ha        1 JNS      0.149500
     29 H15        -1.3210    2.6750   -0.6640 ha        1 JNS      0.149500
     30 H171       -1.7530   -4.4640   -1.5910 h2        1 JNS      0.050200
     31 H172       -3.2420   -3.9470   -1.8920 h2        1 JNS      0.050200
@<TRIPOS>BOND
     1    1    3 3   
     2    1   21 1   
     3    2    5 3   
     4    2   22 1   
     5    3   23 1   
     6    4    8 3   
     7    4   25 1   
     8    5   24 1   
     9    6   11 3   
    10    6   26 1   
    11    7   10 3   
    12    7   13 1   
    13    8   14 1   
    14    9   12 3   
    15    9   15 1   
    16   10   27 1   
    17   11   19 1   
    18   12   20 1   
    19   13   14 2   
    20   13   28 1   
    21   14   29 1   
    22   15   17 1   
    23   15   18 1   
    24   16   19 1   
    25   16   20 1   
    26   16   30 1   
    27   16   31 1   
@<TRIPOS>SUBSTRUCTURE
     1 JNS         1 TEMP              0 ****  ****    0 ROOT
