@<TRIPOS>MOLECULE
JNZ
   18    19     1     0     0
SMALL
bcc


@<TRIPOS>ATOM
      1 C8         -0.0170    0.0000   -0.0130 ca        1 JNZ     -0.094000
      2 C7          1.3950    0.0000   -0.0080 ca        1 JNZ     -0.081000
      3 C9         -0.7490    0.0000    1.1630 ca        1 JNZ     -0.102000
      4 C6          2.1240   -0.0000    1.1700 ca        1 JNZ     -0.100000
      5 C10        -0.0490    0.0000    2.3720 ca        1 JNZ     -0.173900
      6 C5          1.3950   -0.0000    2.3700 ca        1 JNZ     -0.053200
      7 C2         -0.3760   -0.0000    3.7910 cc        1 JNZ      0.278800
      8 N3          0.7750   -0.0000    4.5530 nd        1 JNZ     -0.429100
      9 N4          1.7930   -0.0000    3.7250 na        1 JNZ      0.055900
     10 N1         -1.7110   -0.0000    4.3380 n4        1 JNZ     -0.724600
     11 H8         -0.5430    0.0000   -0.9830 ha        1 JNZ      0.165000
     12 H7          1.9290    0.0000   -0.9740 ha        1 JNZ      0.169000
     13 H9         -1.8480    0.0000    1.1430 ha        1 JNZ      0.142000
     14 H6          3.2240   -0.0000    1.1680 ha        1 JNZ      0.170000
     15 HN4         2.7290   -0.0000    4.0790 hn        1 JNZ      0.365700
     16 HN1        -2.2020   -0.8400    4.0050 hn        1 JNZ      0.471133
     17 HN1A       -2.2020    0.8400    4.0060 hn        1 JNZ      0.471133
     18 H13        -1.6920   -0.0000    5.3660 hn        1 JNZ      0.471133
@<TRIPOS>BOND
     1    1    2 ar  
     2    1    3 ar  
     3    1   11 1   
     4    2    4 ar  
     5    2   12 1   
     6    3    5 ar  
     7    3   13 1   
     8    4    6 ar  
     9    4   14 1   
    10    5    6 ar  
    11    5    7 1   
    12    6    9 1   
    13    7    8 2   
    14    7   10 1   
    15    8    9 1   
    16    9   15 1   
    17   10   16 1   
    18   10   17 1   
    19   10   18 1   
@<TRIPOS>SUBSTRUCTURE
     1 JNZ         1 TEMP              0 ****  ****    0 ROOT
