@<TRIPOS>MOLECULE
JNZ
   17    11     1     0     0
SMALL
bcc


@<TRIPOS>ATOM
      1 C8         -0.3650   -0.0090   -2.2450 c1        1 JNZ     -0.114750
      2 C7          1.0190   -0.0090   -2.2450 c1        1 JNZ     -0.114750
      3 C9         -1.0580   -0.0090   -1.0460 c1        1 JNZ     -0.114750
      4 C6          1.7110   -0.0090   -1.0460 c1        1 JNZ     -0.114750
      5 C10        -0.3540   -0.0090    0.1740 c1        1 JNZ     -0.074500
      6 C5          1.0070   -0.0090    0.1740 c1        1 JNZ     -0.074500
      7 C2         -0.7800   -0.0090    1.4900 c1        1 JNZ      0.017000
      8 N3          0.3160   -0.0090    2.2850 n2        1 JNZ     -0.123000
      9 N4          1.4290   -0.0090    1.4750 n1        1 JNZ     -0.168000
     10 N1         -1.9300    0.0330    2.3210 n2        1 JNZ     -0.287000
     11 H8         -0.8540   -0.0090   -3.0910 ha        1 JNZ      0.136500
     12 H7          1.5070   -0.0090   -3.0910 ha        1 JNZ      0.136500
     13 H9         -2.0340   -0.0090   -1.0460 ha        1 JNZ      0.136500
     14 H6          2.6870   -0.0090   -1.0460 ha        1 JNZ      0.136500
     15 HN4         2.2960   -0.0090    1.7570 DU        1 JNZ      0.244000
     16 HN1        -1.9390   -0.4250    3.1100 hn        1 JNZ      0.190000
     17 HN1A       -2.6570    0.5220    2.0690 hn        1 JNZ      0.190000
@<TRIPOS>BOND
     1    1    3 1   
     2    1   11 1   
     3    2    4 1   
     4    2   12 1   
     5    3   13 1   
     6    4   14 1   
     7    5    6 1   
     8    7    8 1   
     9    8    9 1   
    10   10   16 1   
    11   10   17 1   
@<TRIPOS>SUBSTRUCTURE
     1 JNZ         1 TEMP              0 ****  ****    0 ROOT
