@<TRIPOS>MOLECULE
JNZ
   17    18     1     0     0
SMALL
bcc


@<TRIPOS>ATOM
      1 C8         -0.0030   -0.1370   -0.0150 ca        1 JNZ     -0.163000
      2 C7          1.4010   -0.1000    0.0000 ca        1 JNZ     -0.095000
      3 C9         -0.7390   -0.0840    1.1640 ca        1 JNZ     -0.060000
      4 C6          2.1200   -0.0110    1.1860 ca        1 JNZ     -0.141000
      5 C10        -0.0480    0.0150    2.3650 ca        1 JNZ     -0.223900
      6 C5          1.3910    0.0500    2.3790 ca        1 JNZ     -0.054200
      7 C2         -0.4170    0.0970    3.7950 cc        1 JNZ      0.540800
      8 N3          0.7150    0.1630    4.5540 nd        1 JNZ     -0.590100
      9 N4          1.7900    0.0510    3.7390 na        1 JNZ      0.006900
     10 N1         -1.7310    0.1850    4.2500 nv        1 JNZ     -0.848800
     11 H8         -0.5250   -0.2080   -0.9800 ha        1 JNZ      0.134000
     12 H7          1.9460   -0.1420   -0.9560 ha        1 JNZ      0.134000
     13 H9         -1.8380   -0.1140    1.1490 ha        1 JNZ      0.137000
     14 H6          3.2180    0.0110    1.1880 ha        1 JNZ      0.141000
     15 HN4         2.6020    0.5580    4.0280 hn        1 JNZ      0.293700
     16 HN1        -2.3530   -0.3790    3.7090 hn        1 JNZ      0.394800
     17 HN1A       -1.8390    0.0450    5.2330 hn        1 JNZ      0.394800
@<TRIPOS>BOND
     1    1    2 ar  
     2    1    3 ar  
     3    1   11 1   
     4    2    4 ar  
     5    2   12 1   
     6    3    5 ar  
     7    3   13 1   
     8    4    6 ar  
     9    4   14 1   
    10    5    6 ar  
    11    5    7 1   
    12    6    9 1   
    13    7    8 2   
    14    7   10 1   
    15    8    9 1   
    16    9   15 1   
    17   10   16 1   
    18   10   17 1   
@<TRIPOS>SUBSTRUCTURE
     1 JNZ         1 TEMP              0 ****  ****    0 ROOT
