@<TRIPOS>MOLECULE
JNZ
   17    18     1     0     0
SMALL
bcc


@<TRIPOS>ATOM
      1 C8         -2.1110    1.2630   -0.0390 ca        1 JNZ     -0.163000
      2 C7         -2.5940   -0.0550    0.0200 ca        1 JNZ     -0.095000
      3 C9         -0.7470    1.5320   -0.0600 ca        1 JNZ     -0.060000
      4 C6         -1.7370   -1.1490    0.0630 ca        1 JNZ     -0.141000
      5 C10         0.1340    0.4580   -0.0270 ca        1 JNZ     -0.223900
      6 C5         -0.3620   -0.8910    0.0360 ca        1 JNZ     -0.054200
      7 C2          1.6040    0.2940   -0.0340 cc        1 JNZ      0.540800
      8 N3          1.9140   -1.0330    0.0300 nd        1 JNZ     -0.590100
      9 N4          0.7670   -1.7400    0.1580 na        1 JNZ      0.006900
     10 N1          2.4990    1.3530   -0.1780 nh        1 JNZ     -0.848800
     11 H8         -2.8300    2.0950   -0.0710 ha        1 JNZ      0.134000
     12 H7         -3.6820   -0.2240    0.0320 ha        1 JNZ      0.134000
     13 H9         -0.3730    2.5650   -0.1050 ha        1 JNZ      0.137000
     14 H6         -2.1240   -2.1750    0.1160 ha        1 JNZ      0.141000
     15 HN4         0.7700   -2.6430   -0.2710 hn        1 JNZ      0.293700
     16 HN1         2.1910    2.1710    0.3030 hn        1 JNZ      0.394800
     17 HN1A        3.4500    1.1210    0.0220 hn        1 JNZ      0.394800
@<TRIPOS>BOND
     1    1    2 ar  
     2    1    3 ar  
     3    1   11 1   
     4    2    4 ar  
     5    2   12 1   
     6    3    5 ar  
     7    3   13 1   
     8    4    6 ar  
     9    4   14 1   
    10    5    6 ar  
    11    5    7 1   
    12    6    9 1   
    13    7    8 2   
    14    7   10 1   
    15    8    9 1   
    16    9   15 1   
    17   10   16 1   
    18   10   17 1   
@<TRIPOS>SUBSTRUCTURE
     1 JNZ         1 TEMP              0 ****  ****    0 ROOT
