@<TRIPOS>MOLECULE
JO3
   15    14     1     0     0
SMALL
bcc


@<TRIPOS>ATOM
      1 OAN         0.3000   -0.6600   -0.1590 o         1 JO3     -0.885300
      2 CAM         1.3310    0.0770   -0.0520 c         1 JO3      0.904600
      3 OAO         1.7480    0.7740   -1.0280 o         1 JO3     -0.885300
      4 CAL         2.0510    0.1380    1.3100 c3        1 JO3     -0.146700
      5 CAQ         1.9010    1.5270    1.8920 c3        1 JO3     -0.073100
      6 CAK         3.5160   -0.2430    1.1850 c3        1 JO3     -0.153400
      7 CAJ         4.2370   -0.4120    2.5250 c         1 JO3      0.897600
      8 OAP         4.4520   -1.5840    2.9680 o         1 JO3     -0.889800
      9 OAG         4.6580    0.6120    3.1530 o         1 JO3     -0.889800
     10 HAL         1.5510   -0.6010    1.9940 hc        1 JO3      0.031700
     11 HAQ1        2.5660    1.6430    2.7830 hc        1 JO3      0.015033
     12 HAQ2        2.1870    2.2900    1.1280 hc        1 JO3      0.015033
     13 HAQ3        0.8420    1.7120    2.1950 hc        1 JO3      0.015033
     14 HAK1        4.0440    0.5440    0.5890 hc        1 JO3      0.022200
     15 HAK2        3.5860   -1.2090    0.6210 hc        1 JO3      0.022200
@<TRIPOS>BOND
     1    1    2 1   
     2    2    3 1   
     3    2    4 1   
     4    4    5 1   
     5    4    6 1   
     6    4   10 1   
     7    5   11 1   
     8    5   12 1   
     9    5   13 1   
    10    6    7 1   
    11    6   14 1   
    12    6   15 1   
    13    7    8 1   
    14    7    9 1   
@<TRIPOS>SUBSTRUCTURE
     1 JO3         1 TEMP              0 ****  ****    0 ROOT
