@<TRIPOS>MOLECULE
JOZ
   20    21     1     0     0
SMALL
bcc


@<TRIPOS>ATOM
      1 C4          1.1440   -1.4160   -0.1220 ca        1 JOZ     -0.068000
      2 C5         -0.6600    1.8940    0.2680 c3        1 JOZ     -0.053100
      3 C6         -1.9770    1.4190   -0.3510 c3        1 JOZ      0.104000
      4 C7          0.4300    0.8960    0.1100 ca        1 JOZ     -0.044300
      5 C8          0.1220   -0.4690   -0.0090 ca        1 JOZ     -0.139600
      6 C1          2.7860    0.3510   -0.0050 ca        1 JOZ     -0.102000
      7 C2          2.4750   -1.0040   -0.1210 ca        1 JOZ     -0.145000
      8 C3          1.7690    1.2980    0.1110 ca        1 JOZ     -0.143000
      9 C9         -1.2940   -0.9250   -0.0160 c         1 JOZ      0.710100
     10 N10        -2.2800    0.0410   -0.0950 n         1 JOZ     -0.573900
     11 O11        -1.6160   -2.1290    0.0660 o         1 JOZ     -0.645500
     12 H4          0.8800   -2.4830   -0.2070 ha        1 JOZ      0.161000
     13 H5         -0.3770    2.8660   -0.2140 hc        1 JOZ      0.064200
     14 H5A        -0.8070    2.0910    1.3650 hc        1 JOZ      0.064200
     15 H6         -2.8170    2.0500    0.0600 h1        1 JOZ      0.039700
     16 H6A        -1.9340    1.5970   -1.4670 h1        1 JOZ      0.039700
     17 H1          3.8370    0.6760   -0.0050 ha        1 JOZ      0.135000
     18 H2          3.2800   -1.7490   -0.2100 ha        1 JOZ      0.138000
     19 H3          2.0180    2.3650    0.2040 ha        1 JOZ      0.135000
     20 HN10       -3.2260   -0.2520   -0.1650 hn        1 JOZ      0.324500
@<TRIPOS>BOND
     1    1    5 ar  
     2    1    7 ar  
     3    1   12 1   
     4    2    3 1   
     5    2    4 1   
     6    2   13 1   
     7    2   14 1   
     8    3   10 1   
     9    3   15 1   
    10    3   16 1   
    11    4    5 ar  
    12    4    8 ar  
    13    5    9 1   
    14    6    7 ar  
    15    6    8 ar  
    16    6   17 1   
    17    7   18 1   
    18    8   19 1   
    19    9   10 1   
    20    9   11 2   
    21   10   20 1   
@<TRIPOS>SUBSTRUCTURE
     1 JOZ         1 TEMP              0 ****  ****    0 ROOT
