@<TRIPOS>MOLECULE
JOZ
   20    21     1     0     0
SMALL
bcc


@<TRIPOS>ATOM
      1 C4         -0.0130   -0.0260   -0.0010 ca        1 JOZ     -0.068000
      2 C5          3.5760    0.0690   -1.2160 c3        1 JOZ     -0.053100
      3 C6          4.1460    0.7050    0.0540 c3        1 JOZ      0.104000
      4 C7          2.0900    0.0480   -1.2190 ca        1 JOZ     -0.044300
      5 C8          1.3840    0.0290   -0.0040 ca        1 JOZ     -0.139600
      6 C1         -0.0130   -0.0370   -2.4160 ca        1 JOZ     -0.102000
      7 C2         -0.7090   -0.0590   -1.2080 ca        1 JOZ     -0.145000
      8 C3          1.3810    0.0140   -2.4230 ca        1 JOZ     -0.143000
      9 C9          2.1120    0.0670    1.2920 c         1 JOZ      0.710100
     10 N10         3.4730    0.3120    1.2580 n         1 JOZ     -0.573900
     11 O11         1.5500   -0.1330    2.3880 o         1 JOZ     -0.645500
     12 H4         -0.5460   -0.0480    0.9640 ha        1 JOZ      0.161000
     13 H5          3.9640    0.6400   -2.0990 hc        1 JOZ      0.064200
     14 H5A         3.9470   -0.9890   -1.3080 hc        1 JOZ      0.064200
     15 H6          5.2330    0.4180    0.1450 h1        1 JOZ      0.039700
     16 H6A         4.1010    1.8290   -0.0570 h1        1 JOZ      0.039700
     17 H1         -0.5630   -0.0620   -3.3690 ha        1 JOZ      0.135000
     18 H2         -1.8080   -0.1020   -1.2050 ha        1 JOZ      0.138000
     19 H3          1.9270    0.0290   -3.3780 ha        1 JOZ      0.135000
     20 HN10        3.9590    0.4040    2.1180 hn        1 JOZ      0.324500
@<TRIPOS>BOND
     1    1    5 ar  
     2    1    7 ar  
     3    1   12 1   
     4    2    3 1   
     5    2    4 1   
     6    2   13 1   
     7    2   14 1   
     8    3   10 1   
     9    3   15 1   
    10    3   16 1   
    11    4    5 ar  
    12    4    8 ar  
    13    5    9 1   
    14    6    7 ar  
    15    6    8 ar  
    16    6   17 1   
    17    7   18 1   
    18    8   19 1   
    19    9   10 1   
    20    9   11 2   
    21   10   20 1   
@<TRIPOS>SUBSTRUCTURE
     1 JOZ         1 TEMP              0 ****  ****    0 ROOT
