@<TRIPOS>MOLECULE
JOZ
   20    21     1     0     0
SMALL
bcc


@<TRIPOS>ATOM
      1 C4         -0.0110   -0.0330    0.0020 ca        1 JOZ     -0.068000
      2 C5          3.5750    0.0750   -1.2180 c3        1 JOZ     -0.053100
      3 C6          4.1460    0.7090    0.0530 c3        1 JOZ      0.104000
      4 C7          2.0890    0.0500   -1.2190 ca        1 JOZ     -0.044300
      5 C8          1.3850    0.0260   -0.0040 ca        1 JOZ     -0.139600
      6 C1         -0.0150   -0.0370   -2.4140 ca        1 JOZ     -0.102000
      7 C2         -0.7100   -0.0640   -1.2050 ca        1 JOZ     -0.145000
      8 C3          1.3790    0.0180   -2.4230 ca        1 JOZ     -0.143000
      9 C9          2.1150    0.0610    1.2910 c         1 JOZ      0.710100
     10 N10         3.4750    0.3110    1.2560 ns        1 JOZ     -0.573900
     11 O11         1.5550   -0.1430    2.3880 o         1 JOZ     -0.645500
     12 H4         -0.5440   -0.0590    0.9670 ha        1 JOZ      0.161000
     13 H5          3.9600    0.6500   -2.1000 hc        1 JOZ      0.064200
     14 H5A         3.9490   -0.9810   -1.3140 hc        1 JOZ      0.064200
     15 H6          5.2330    0.4250    0.1420 h1        1 JOZ      0.039700
     16 H6A         4.0960    1.8330   -0.0540 h1        1 JOZ      0.039700
     17 H1         -0.5670   -0.0600   -3.3650 ha        1 JOZ      0.135000
     18 H2         -1.8090   -0.1100   -1.2010 ha        1 JOZ      0.138000
     19 H3          1.9230    0.0370   -3.3780 ha        1 JOZ      0.135000
     20 HN10        3.9620    0.4010    2.1160 hn        1 JOZ      0.324500
@<TRIPOS>BOND
     1    1    5 ar  
     2    1    7 ar  
     3    1   12 1   
     4    2    3 1   
     5    2    4 1   
     6    2   13 1   
     7    2   14 1   
     8    3   10 1   
     9    3   15 1   
    10    3   16 1   
    11    4    5 ar  
    12    4    8 ar  
    13    5    9 1   
    14    6    7 ar  
    15    6    8 ar  
    16    6   17 1   
    17    7   18 1   
    18    8   19 1   
    19    9   10 1   
    20    9   11 2   
    21   10   20 1   
@<TRIPOS>SUBSTRUCTURE
     1 JOZ         1 TEMP              0 ****  ****    0 ROOT
