@<TRIPOS>MOLECULE
JP1
   41    43     1     0     0
SMALL
bcc


@<TRIPOS>ATOM
      1 C2          3.5580    0.5500    0.1100 ca        1 JP1     -0.006900
      2 C3          4.1910    0.3020    1.3310 ca        1 JP1     -0.090000
      3 C4          5.3430   -0.4770    1.3630 ca        1 JP1     -0.158000
      4 C5          5.8590   -1.0040    0.1710 ca        1 JP1      0.051400
      5 C10         1.2220    0.8350    0.1610 ca        1 JP1      0.073100
      6 C11         0.1980    1.2630   -0.7010 ca        1 JP1      0.021400
      7 C12        -1.1010    0.7790   -0.5380 ca        1 JP1     -0.121000
      8 C15         0.9410   -0.0910    1.1710 ca        1 JP1     -0.127000
      9 C19        -3.8680   -0.0550    0.3360 c         1 JP1      0.741100
     10 C23        -6.0290   -2.3770   -0.7750 c3        1 JP1      0.094900
     11 C25        -6.9940   -0.2150   -0.8010 c3        1 JP1      0.094900
     12 C26        -6.2950    0.1360    0.5170 c3        1 JP1      0.028500
     13 O20        -3.8690    1.0510   -0.2480 o         1 JP1     -0.611100
     14 N21        -5.0950   -0.6480    0.7840 n         1 JP1     -0.421800
     15 O24        -7.2230   -1.6170   -0.9140 os        1 JP1     -0.410600
     16 C22        -5.3160   -2.0650    0.5500 c3        1 JP1      0.028500
     17 C13        -1.3920   -0.1530    0.4790 ca        1 JP1      0.064600
     18 CL16        0.4970    2.3690   -1.9560 cl        1 JP1     -0.068400
     19 C14        -0.3460   -0.5810    1.3330 ca        1 JP1     -0.159000
     20 O9          2.4780    1.4310    0.0340 os        1 JP1     -0.245200
     21 C1          4.0890    0.0350   -1.0900 ca        1 JP1      0.145100
     22 O7          3.5240    0.2680   -2.3150 oh        1 JP1     -0.486100
     23 C6          5.2500   -0.7550   -1.0590 ca        1 JP1     -0.153000
     24 CL27        7.2610   -1.9620    0.2220 cl        1 JP1     -0.083400
     25 H3          3.7800    0.7360    2.2560 ha        1 JP1      0.152000
     26 H4          5.8470   -0.6750    2.3200 ha        1 JP1      0.153000
     27 H12        -1.9000    1.1400   -1.2100 ha        1 JP1      0.188000
     28 H15         1.7520   -0.4310    1.8340 ha        1 JP1      0.152000
     29 H232       -5.3530   -2.1810   -1.6480 h1        1 JP1      0.061950
     30 H251       -8.0210    0.2360   -0.8300 h1        1 JP1      0.061950
     31 H252       -6.3910    0.1400   -1.6780 h1        1 JP1      0.061950
     32 H261       -6.9960   -0.0770    1.3730 h1        1 JP1      0.073200
     33 H262       -6.0440    1.2320    0.5160 h1        1 JP1      0.073200
     34 H221       -4.3590   -2.6500    0.5820 h1        1 JP1      0.073200
     35 H222       -5.9700   -2.4210    1.3990 h1        1 JP1      0.073200
     36 H14        -0.5400   -1.3080    2.1370 ha        1 JP1      0.138000
     37 HO7         2.7820    0.8870   -2.1900 ho        1 JP1      0.442000
     38 H6          5.6560   -1.1570   -1.9990 ha        1 JP1      0.170000
     39 N17        -2.6670   -0.7290    0.6350 n         1 JP1     -0.454100
     40 H231       -6.3740   -3.4440   -0.7860 h1        1 JP1      0.061950
     41 H17        -2.7110   -1.4580    1.3150 hn        1 JP1      0.317500
@<TRIPOS>BOND
     1    1    2 ar  
     2    1   20 1   
     3    1   21 ar  
     4    2    3 ar  
     5    2   25 1   
     6    3    4 ar  
     7    3   26 1   
     8    4   23 ar  
     9    4   24 1   
    10    5    6 ar  
    11    5    8 ar  
    12    5   20 1   
    13    6    7 ar  
    14    6   18 1   
    15    7   17 ar  
    16    7   27 1   
    17    8   19 ar  
    18    8   28 1   
    19    9   13 2   
    20    9   14 1   
    21    9   39 1   
    22   10   15 1   
    23   10   16 1   
    24   10   29 1   
    25   10   40 1   
    26   11   12 1   
    27   11   15 1   
    28   11   30 1   
    29   11   31 1   
    30   12   14 1   
    31   12   32 1   
    32   12   33 1   
    33   14   16 1   
    34   16   34 1   
    35   16   35 1   
    36   17   19 ar  
    37   17   39 1   
    38   19   36 1   
    39   21   22 1   
    40   21   23 ar  
    41   22   37 1   
    42   23   38 1   
    43   39   41 1   
@<TRIPOS>SUBSTRUCTURE
     1 JP1         1 TEMP              0 ****  ****    0 ROOT
