@<TRIPOS>MOLECULE
JP1
   42    44     1     0     0
SMALL
bcc


@<TRIPOS>ATOM
      1 C2          0.1320    0.3050    0.2890 c2        1 JP1     -0.135000
      2 C3          1.3940    1.0610    0.4520 c3        1 JP1     -0.191000
      3 C4          2.0010    1.0400    1.7730 c1        1 JP1     -0.025000
      4 C5          1.4160    0.2120    2.7840 c2        1 JP1     -0.137000
      5 C10        -1.0420    1.3640   -1.4470 ca        1 JP1      0.114000
      6 C11        -1.6810    1.3560   -2.7890 ca        1 JP1      0.002000
      7 C12        -1.3080    2.5180   -3.4360 ca        1 JP1     -0.231000
      8 C15        -1.2780    2.5650   -0.8220 ca        1 JP1     -0.227000
      9 C19        -2.8540    5.9280   -3.4960 c2        1 JP1      0.365000
     10 C23        -2.7140    8.4910   -1.2590 c3        1 JP1     -0.059000
     11 C25        -4.4740    8.5250   -2.8700 c3        1 JP1     -0.052000
     12 C26        -3.8290    8.1430   -4.2100 c3        1 JP1     -0.077000
     13 O20        -2.4320    6.3090   -2.2510 os        1 JP1     -0.211000
     14 N21        -3.4480    6.7610   -4.3970 n3        1 JP1     -0.307000
     15 O24        -3.5520    9.2700   -2.0940 os        1 JP1     -0.245000
     16 C22        -1.7820    7.5880   -2.0540 c3        1 JP1     -0.055000
     17 C13        -2.0580    3.6700   -2.8900 ca        1 JP1     -0.022000
     18 CL16       -3.1320    0.5600   -2.9800 cl        1 JP1      0.082000
     19 C14        -1.9260    3.6800   -1.5190 ca        1 JP1     -0.048000
     20 O9         -0.4530    0.2280   -0.9820 os        1 JP1     -0.120000
     21 C1         -0.3870   -0.4580    1.2980 c2        1 JP1      0.080000
     22 O7         -1.5240   -1.2150    1.2120 oh        1 JP1     -0.227000
     23 C6          0.2720   -0.5080    2.5900 c2        1 JP1     -0.036000
     24 CL27        2.2010    0.1660    4.2820 cl        1 JP1      0.048000
     25 H3          1.2560    2.1400    0.1480 hc        1 JP1      0.175000
     26 H4          2.1800    0.6420   -0.2540 hc        1 JP1      0.175000
     27 H12        -0.2550    2.7120   -3.6920 ha        1 JP1      0.173000
     28 H15        -1.0170    2.7190    0.2350 ha        1 JP1      0.175000
     29 H251       -4.8720    7.6400   -2.3110 h1        1 JP1      0.127000
     30 H252       -5.3090    9.2550   -3.0690 h1        1 JP1      0.127000
     31 H261       -4.5730    8.3660   -5.0320 h1        1 JP1      0.135500
     32 H262       -2.9240    8.8010   -4.3780 h1        1 JP1      0.135500
     33 H221       -3.7040    6.3740   -5.2860 hn        1 JP1      0.269000
     34 H222       -0.8870    7.3020   -1.4300 h1        1 JP1      0.138000
     35 H14        -2.2830    4.5120   -0.8920 ha        1 JP1      0.164000
     36 HO7        -1.8240   -1.2140    0.2880 ho        1 JP1      0.239000
     37 H6         -0.1970   -1.1370    3.3660 ha        1 JP1      0.182000
     38 N17        -2.6940    4.5930   -3.7350 nh        1 JP1     -0.193000
     39 H231       -3.3260    7.8840   -0.5400 h1        1 JP1      0.134500
     40 H17        -3.0230    4.2010   -4.5990 hn        1 JP1      0.283000
     41 H172       -1.4490    8.0470   -3.0160 h1        1 JP1      0.138000
     42 H232       -2.1080    9.2570   -0.6990 h1        1 JP1      0.134500
@<TRIPOS>BOND
     1    1    2 1   
     2    1   20 1   
     3    1   21 1   
     4    2    3 1   
     5    2   25 1   
     6    2   26 1   
     7    3    4 1   
     8    4   23 1   
     9    4   24 1   
    10    5    6 1   
    11    5    8 1   
    12    5   20 1   
    13    6    7 1   
    14    6   18 1   
    15    7   17 1   
    16    7   27 1   
    17    8   19 1   
    18    8   28 1   
    19    9   13 1   
    20    9   14 1   
    21    9   38 1   
    22   10   15 1   
    23   10   16 1   
    24   10   39 1   
    25   10   42 1   
    26   11   12 1   
    27   11   15 1   
    28   11   29 1   
    29   11   30 1   
    30   12   14 1   
    31   12   31 1   
    32   12   32 1   
    33   13   16 1   
    34   14   33 1   
    35   16   34 1   
    36   16   41 1   
    37   17   19 1   
    38   17   38 1   
    39   19   35 1   
    40   21   22 1   
    41   21   23 1   
    42   22   36 1   
    43   23   37 1   
    44   38   40 1   
@<TRIPOS>SUBSTRUCTURE
     1 JP1         1 TEMP              0 ****  ****    0 ROOT
