@<TRIPOS>MOLECULE
JP1
   41    37     1     0     0
SMALL
bcc


@<TRIPOS>ATOM
      1 C2          2.1230    3.9600    0.7170 c1        1 JP1      0.008000
      2 C3          1.2670    5.0130    0.4330 c1        1 JP1     -0.122500
      3 C4          1.3960    5.7090   -0.7580 c1        1 JP1     -0.122500
      4 C5          2.3810    5.3530   -1.6660 c1        1 JP1     -0.023000
      5 C10         1.3100    2.0730    1.7410 c1        1 JP1      0.065000
      6 C11         1.9790    0.8610    1.8030 c1        1 JP1     -0.055000
      7 C12         1.2870   -0.3230    1.6010 c1        1 JP1     -0.156000
      8 C15        -0.0510    2.1020    1.4780 c1        1 JP1     -0.156000
      9 C19        -0.7990   -2.0660   -0.2050 c1        1 JP1      0.385000
     10 C23        -3.6350   -4.4070    0.0810 c3        1 JP1     -0.037500
     11 C25        -2.9440   -4.3620   -2.1370 c3        1 JP1     -0.037500
     12 C26        -1.5150   -4.1590   -1.6810 c3        1 JP1     -0.072500
     13 O20        -0.2170   -1.5100   -1.1150 o         1 JP1     -0.383000
     14 N21        -1.4270   -3.3200   -0.4260 n2        1 JP1     -0.307000
     15 O24        -3.7770   -4.1100   -1.1740 os        1 JP1     -0.274000
     16 C22        -2.2020   -4.2040    0.5250 c3        1 JP1     -0.072500
     17 N17        -0.7760   -1.5050    1.0990 n3        1 JP1     -0.305000
     18 C13        -0.0740   -0.2950    1.3380 c2        1 JP1      0.051000
     19 CL16        3.6750    0.8210    2.2040 cl        1 JP1      0.009000
     20 C14        -0.7430    0.9170    1.2770 c2        1 JP1     -0.104000
     21 O9          2.0130    3.2740    1.9390 os        1 JP1     -0.134000
     22 C1          3.1080    3.6040   -0.1910 c1        1 JP1      0.090000
     23 O7          4.0030    2.5620    0.1150 o         1 JP1     -0.226000
     24 C6          3.2370    4.3000   -1.3830 c2        1 JP1     -0.209000
     25 CL27        2.3190    6.1710   -3.2040 cl        1 JP1     -0.005000
     26 H3          0.5740    5.2640    1.0730 ha        1 JP1      0.156500
     27 H4          0.7940    6.4500   -0.9580 ha        1 JP1      0.156500
     28 H12         1.7580   -1.1770    1.6440 ha        1 JP1      0.144000
     29 H15        -0.5220    2.9550    1.4350 ha        1 JP1      0.151000
     30 H231       -4.2220   -3.8340    0.6160 h1        1 JP1      0.097000
     31 H232       -3.8850   -5.3440    0.2200 h1        1 JP1      0.097000
     32 H251       -3.1300   -3.7620   -2.8890 h1        1 JP1      0.097000
     33 H252       -3.0600   -5.2900   -2.4290 h1        1 JP1      0.097000
     34 H261       -1.0150   -3.7150   -2.3950 h1        1 JP1      0.104750
     35 H262       -1.1110   -5.0330   -1.5070 h1        1 JP1      0.104750
     36 H221       -2.2000   -3.7930    1.4120 h1        1 JP1      0.104750
     37 H222       -1.7600   -5.0750    0.5780 h1        1 JP1      0.104750
     38 H17        -1.2260   -1.9140    1.7790 hn        1 JP1      0.224000
     39 H14        -1.7010    0.9370    1.0920 ha        1 JP1      0.175000
     40 HO7         4.8350    2.8250   -0.0600 ho        1 JP1      0.224000
     41 H6          3.9310    4.0490   -2.0220 ha        1 JP1      0.153000
@<TRIPOS>BOND
     1    1   21 1   
     2    1   22 1   
     3    2    3 1   
     4    2   26 1   
     5    3   27 1   
     6    4   24 1   
     7    4   25 1   
     8    5    6 1   
     9    5   21 1   
    10    6   19 1   
    11    7   18 1   
    12    7   28 1   
    13    8   20 1   
    14    8   29 1   
    15    9   13 1   
    16    9   17 1   
    17   10   15 1   
    18   10   16 1   
    19   10   30 1   
    20   10   31 1   
    21   11   12 1   
    22   11   15 1   
    23   11   32 1   
    24   11   33 1   
    25   12   14 1   
    26   12   34 1   
    27   12   35 1   
    28   14   16 1   
    29   16   36 1   
    30   16   37 1   
    31   17   18 1   
    32   17   38 1   
    33   18   20 1   
    34   20   39 1   
    35   22   24 1   
    36   23   40 1   
    37   24   41 1   
@<TRIPOS>SUBSTRUCTURE
     1 JP1         1 TEMP              0 ****  ****    0 ROOT
