@<TRIPOS>MOLECULE
JP1
   41    41     1     0     0
SMALL
bcc


@<TRIPOS>ATOM
      1 C2          0.5970    0.5270    0.2120 c2        1 JP1     -0.113000
      2 C3          1.0940   -0.8340   -0.1170 c3        1 JP1     -0.177000
      3 C4          1.5770   -1.6550    0.9800 c1        1 JP1     -0.067000
      4 C5          1.5430   -1.1090    2.2930 c2        1 JP1     -0.158000
      5 C10        -1.0690    1.7370   -0.9910 c3        1 JP1      0.017000
      6 C11        -1.4400    1.8790   -2.4390 c2        1 JP1      0.007000
      7 C12        -2.0670    2.9880   -2.9050 c2        1 JP1     -0.229000
      8 C15        -1.2350    2.9660   -0.1960 c1        1 JP1     -0.190000
      9 C19        -3.4780    5.5250   -3.7750 c2        1 JP1      0.409000
     10 C23        -2.8000    8.8580   -0.8590 c2        1 JP1     -0.048000
     11 C25        -4.9340    8.3830   -5.5750 c2        1 JP1     -0.290000
     12 C26        -4.4700    7.1620   -5.2700 c2        1 JP1     -0.019000
     13 O20        -3.5880    4.6210   -4.6300 o         1 JP1     -0.356000
     14 N21        -3.8790    6.8360   -4.0430 ns        1 JP1     -0.330000
     15 O24        -3.7560    7.9120   -1.1960 oh        1 JP1     -0.322000
     16 C22        -1.7880    9.0750   -1.7030 c2        1 JP1     -0.263000
     17 C13        -2.3210    4.1300   -2.0390 c2        1 JP1      0.269000
     18 Cl16       -1.1400    0.5810   -3.4780 cl        1 JP1      0.037000
     19 C14        -1.8780    4.0660   -0.6910 c2        1 JP1     -0.312000
     20 O9          0.2980    1.2860   -0.9080 os        1 JP1     -0.180000
     21 C1          0.5950    1.0010    1.5000 c2        1 JP1      0.074000
     22 O7          0.1620    2.2110    1.9260 oh        1 JP1     -0.328000
     23 C6          1.0950    0.1510    2.5670 c2        1 JP1     -0.018000
     24 Cl27        2.1060   -2.0960    3.5620 cl        1 JP1     -0.009000
     25 H3          1.9450   -0.7510   -0.8610 hc        1 JP1      0.167000
     26 H4          0.2850   -1.4180   -0.6480 hc        1 JP1      0.167000
     27 H12        -2.3820    3.0410   -3.9650 ha        1 JP1      0.198000
     28 H15        -1.7630    0.9610   -0.5350 h1        1 JP1      0.152000
     29 H232       -0.9990    9.7980   -1.4640 ha        1 JP1      0.134000
     30 H251       -4.4780    7.9840   -0.5570 ho        1 JP1      0.232000
     31 H252       -5.3760    8.5740   -6.5600 ha        1 JP1      0.128500
     32 H261       -4.9060    9.2420   -4.8950 ha        1 JP1      0.128500
     33 H262       -4.5160    6.3150   -5.9860 h4        1 JP1      0.173000
     34 H221       -3.8230    7.5410   -3.3390 hn        1 JP1      0.254000
     35 H222       -1.6880    8.5500   -2.6600 ha        1 JP1      0.134000
     36 H14        -2.0180    4.9330   -0.0250 ha        1 JP1      0.149000
     37 HO7        -0.3570    2.6850    1.1720 ho        1 JP1      0.313000
     38 H6          1.0910    0.5850    3.5820 ha        1 JP1      0.162000
     39 N17        -2.9410    5.2720   -2.4760 ns        1 JP1     -0.304000
     40 H231       -2.9380    9.3640    0.1080 h4        1 JP1      0.141000
     41 H17        -3.0060    6.0140   -1.8000 hn        1 JP1      0.267000
@<TRIPOS>BOND
     1    1    2 1   
     2    1   20 1   
     3    1   21 1   
     4    2    3 1   
     5    2   25 1   
     6    2   26 1   
     7    3    4 1   
     8    4   23 1   
     9    4   24 1   
    10    5    6 1   
    11    5    8 1   
    12    5   20 1   
    13    5   28 1   
    14    6    7 1   
    15    6   18 1   
    16    7   17 1   
    17    7   27 1   
    18    8   19 1   
    19    9   13 1   
    20    9   14 1   
    21    9   39 1   
    22   10   15 1   
    23   10   16 1   
    24   10   40 1   
    25   11   12 1   
    26   11   31 1   
    27   11   32 1   
    28   12   14 1   
    29   12   33 1   
    30   14   34 1   
    31   15   30 1   
    32   16   29 1   
    33   16   35 1   
    34   17   19 1   
    35   17   39 1   
    36   19   36 1   
    37   21   22 1   
    38   21   23 1   
    39   22   37 1   
    40   23   38 1   
    41   39   41 1   
@<TRIPOS>SUBSTRUCTURE
     1 JP1         1 TEMP              0 ****  ****    0 ROOT
