@<TRIPOS>MOLECULE
JP1
   41    42     1     0     0
SMALL
bcc


@<TRIPOS>ATOM
      1 C2          0.2400    0.8080   -0.0160 c2        1 JP1      0.093000
      2 C3          1.5930    0.8800   -0.6520 c3        1 JP1     -0.187000
      3 C4          2.7330    0.4810    0.1540 c1        1 JP1     -0.066000
      4 C5          2.5100    0.0240    1.4740 c2        1 JP1     -0.177000
      5 C10        -2.0840    1.1700   -0.4850 cx        1 JP1      0.117000
      6 C11        -3.1430    1.6760   -1.5220 cx        1 JP1     -0.087000
      7 C12        -3.1000    2.7400   -2.5550 c2        1 JP1     -0.154000
      8 C15        -2.7610    2.4370   -0.2550 cu        1 JP1     -0.203000
      9 C19        -3.2950    5.4980   -3.8230 c2        1 JP1      0.410000
     10 C23        -2.4400    8.7600   -0.7510 c2        1 JP1     -0.045000
     11 C25        -3.7150    8.4400   -6.0060 c2        1 JP1     -0.318000
     12 C26        -3.6370    7.1790   -5.5490 c2        1 JP1     -0.003000
     13 O20        -3.4280    4.5710   -4.6540 o         1 JP1     -0.380000
     14 N21        -3.4220    6.8430   -4.2120 n         1 JP1     -0.341000
     15 O24        -3.4430    8.0810   -1.4210 oh        1 JP1     -0.308000
     16 C22        -1.1770    8.3490   -0.9020 c2        1 JP1     -0.270000
     17 C13        -2.9660    3.9700   -1.9270 c2        1 JP1      0.046000
     18 CL16       -4.4590    0.5930   -1.7030 cl        1 JP1     -0.003000
     19 C14        -2.6140    3.7610   -0.4890 c2        1 JP1     -0.072000
     20 O9         -0.7300    1.2420   -0.8720 os        1 JP1     -0.171000
     21 C1          0.1040    0.3470    1.2710 c2        1 JP1     -0.117000
     22 O7         -1.1410    0.1700    1.8490 oh        1 JP1     -0.264000
     23 C6          1.2560   -0.0570    2.0260 c2        1 JP1     -0.005000
     24 CL27        3.8640   -0.4450    2.3900 cl        1 JP1      0.001000
     25 H3          1.7770    1.9370   -1.0150 hc        1 JP1      0.184500
     26 H4          1.5980    0.2360   -1.5840 hc        1 JP1      0.184500
     27 H12        -3.2840    2.5580   -3.6150 ha        1 JP1      0.197000
     28 H15        -2.3470    0.2370    0.0600 h1        1 JP1      0.186000
     29 H232       -0.3510    8.8640   -0.4000 ha        1 JP1      0.133500
     30 H251       -4.2880    8.4640   -1.1520 ho        1 JP1      0.228000
     31 H252       -3.8970    8.6300   -7.0690 ha        1 JP1      0.122000
     32 H261       -3.6080    9.3300   -5.3780 ha        1 JP1      0.122000
     33 H262       -3.7490    6.3010   -6.2190 h4        1 JP1      0.170000
     34 H221       -3.2910    7.5740   -3.5500 hn        1 JP1      0.243000
     35 H222       -0.9040    7.4950   -1.5330 ha        1 JP1      0.133500
     36 H14        -2.2260    4.5410    0.1640 ha        1 JP1      0.161000
     37 HO7        -1.1840    0.7720    2.6080 ho        1 JP1      0.216000
     38 H6          1.0810   -0.4290    3.0500 ha        1 JP1      0.154000
     39 N17        -3.0000    5.2450   -2.4690 n         1 JP1     -0.317000
     40 H231       -2.7560    9.6120   -0.1320 h4        1 JP1      0.135000
     41 H17        -2.9550    6.0040   -1.8230 hn        1 JP1      0.252000
@<TRIPOS>BOND
     1    1    2 1   
     2    1   20 1   
     3    1   21 1   
     4    2    3 1   
     5    2   25 1   
     6    2   26 1   
     7    3    4 1   
     8    4   23 1   
     9    4   24 1   
    10    5    6 1   
    11    5    8 1   
    12    5   20 1   
    13    5   28 1   
    14    6    7 1   
    15    6    8 1   
    16    6   18 1   
    17    7   17 1   
    18    7   27 1   
    19    8   19 1   
    20    9   13 1   
    21    9   14 1   
    22    9   39 1   
    23   10   15 1   
    24   10   16 1   
    25   10   40 1   
    26   11   12 1   
    27   11   31 1   
    28   11   32 1   
    29   12   14 1   
    30   12   33 1   
    31   14   34 1   
    32   15   30 1   
    33   16   29 1   
    34   16   35 1   
    35   17   19 1   
    36   17   39 1   
    37   19   36 1   
    38   21   22 1   
    39   21   23 1   
    40   22   37 1   
    41   23   38 1   
    42   39   41 1   
@<TRIPOS>SUBSTRUCTURE
     1 JP1         1 TEMP              0 ****  ****    0 ROOT
