@<TRIPOS>MOLECULE
JP2
   19    20     1     0     0
SMALL
bcc


@<TRIPOS>ATOM
      1 C1          2.6800    1.0850    0.1040 cc        1 JP2      0.822100
      2 N1          3.6530    2.1060    0.3370 nh        1 JP2     -0.884800
      3 O1          2.5430   -2.3770   -0.3280 o         1 JP2     -0.544100
      4 C2          2.1330   -1.2150   -0.1820 c         1 JP2      0.623000
      5 N2          3.0790   -0.1710   -0.0710 nd        1 JP2     -0.760100
      6 O2         -3.9860    0.5560   -1.0260 o         1 JP2     -0.787800
      7 C3          0.6880   -0.8500   -0.1280 ca        1 JP2      0.145500
      8 N3          1.3360    1.5020    0.1070 na        1 JP2     -0.824900
      9 O3         -3.9540    0.2910    1.2110 o         1 JP2     -0.787800
     10 C4          0.3280    0.5270    0.0370 ca        1 JP2      0.532900
     11 N4         -0.9900    0.9410    0.1110 nb        1 JP2     -0.678000
     12 C5         -1.9150   -0.0150    0.0110 ca        1 JP2      0.335500
     13 N5         -0.2800   -1.8110   -0.2270 nb        1 JP2     -0.582000
     14 C6         -1.5420   -1.4000   -0.1610 ca        1 JP2      0.260900
     15 C7         -3.4310    0.3240    0.0730 c         1 JP2      0.830100
     16 HN1         4.5900    1.7670    0.2550 hn        1 JP2      0.398800
     17 HN1A        3.5020    2.9260   -0.2120 hn        1 JP2      0.398800
     18 HN3         1.0850    2.4360    0.3450 hn        1 JP2      0.459800
     19 H6         -2.3320   -2.1660   -0.2410 h4        1 JP2      0.041100
@<TRIPOS>BOND
     1    1    2 1   
     2    1    5 2   
     3    1    8 1   
     4    2   16 1   
     5    2   17 1   
     6    3    4 2   
     7    4    5 1   
     8    4    7 1   
     9    6   15 1   
    10    7   10 ar  
    11    7   13 ar  
    12    8   10 1   
    13    8   18 1   
    14    9   15 1   
    15   10   11 ar  
    16   11   12 ar  
    17   12   14 ar  
    18   12   15 1   
    19   13   14 ar  
    20   14   19 1   
@<TRIPOS>SUBSTRUCTURE
     1 JP2         1 TEMP              0 ****  ****    0 ROOT
