@<TRIPOS>MOLECULE
JP2
   20    21     1     0     0
SMALL
bcc


@<TRIPOS>ATOM
      1 C1          0.0340   -0.0910    0.0220 cc        1 JP2      0.725100
      2 N1         -0.6660   -0.2560   -1.3140 n4        1 JP2     -0.822600
      3 O1          3.2860    0.4620    1.0630 o         1 JP2     -0.448100
      4 C2          2.0760    0.2770    1.1770 c         1 JP2      0.632000
      5 N2          1.3210    0.1080   -0.0440 nd        1 JP2     -0.686100
      6 O2         -1.4490    1.0930    6.4630 o         1 JP2     -0.746300
      7 C3          1.2970    0.2060    2.4340 ca        1 JP2      0.160500
      8 N3         -0.7710   -0.1720    1.1480 na        1 JP2     -0.810900
      9 O3         -1.0920   -1.1490    6.5590 o         1 JP2     -0.746300
     10 C4         -0.1150   -0.0170    2.3960 ca        1 JP2      0.523900
     11 N4         -0.8900   -0.0920    3.5310 nb        1 JP2     -0.662000
     12 C5         -0.2470    0.0570    4.6910 ca        1 JP2      0.346500
     13 N5          1.9380    0.3570    3.6380 nb        1 JP2     -0.574000
     14 C6          1.1840    0.2830    4.7280 ca        1 JP2      0.300900
     15 C7         -1.0300   -0.0090    6.0600 c         1 JP2      0.839100
     16 HN1        -1.1100   -1.1780   -1.3590 hn        1 JP2      0.473467
     17 HN1A        0.0330   -0.1770   -2.0670 hn        1 JP2      0.473467
     18 HN3        -1.7550   -0.3270    1.1290 hn        1 JP2      0.479800
     19 H6          1.6870    0.4030    5.7070 h4        1 JP2      0.068100
     20 H13        -1.3700    0.4790   -1.4270 hn        1 JP2      0.473467
@<TRIPOS>BOND
     1    1    2 1   
     2    1    5 2   
     3    1    8 1   
     4    2   16 1   
     5    2   17 1   
     6    2   20 1   
     7    3    4 2   
     8    4    5 1   
     9    4    7 1   
    10    6   15 1   
    11    7   10 ar  
    12    7   13 ar  
    13    8   10 1   
    14    8   18 1   
    15    9   15 1   
    16   10   11 ar  
    17   11   12 ar  
    18   12   14 ar  
    19   12   15 1   
    20   13   14 ar  
    21   14   19 1   
@<TRIPOS>SUBSTRUCTURE
     1 JP2         1 TEMP              0 ****  ****    0 ROOT
