@<TRIPOS>MOLECULE
JP2
   20    21     1     0     0
SMALL
bcc


@<TRIPOS>ATOM
      1 C1          0.0310    0.0420    0.0200 cc        1 JP2      0.725100
      2 N1         -0.6740    0.1280   -1.3200 n4        1 JP2     -0.822600
      3 O1          3.3060   -0.3130    1.0770 o         1 JP2     -0.448100
      4 C2          2.0880   -0.1860    1.1850 c         1 JP2      0.632000
      5 N2          1.3270   -0.0950   -0.0410 nd        1 JP2     -0.686100
      6 O2         -1.3950   -1.0080    6.4980 o         1 JP2     -0.746300
      7 C3          1.3050   -0.1140    2.4390 ca        1 JP2      0.160500
      8 N3         -0.7780    0.1170    1.1430 na        1 JP2     -0.810900
      9 O3         -1.1570    1.2520    6.5180 o         1 JP2     -0.746300
     10 C4         -0.1160    0.0360    2.3950 ca        1 JP2      0.523900
     11 N4         -0.8950    0.1080    3.5280 nb        1 JP2     -0.662000
     12 C5         -0.2480    0.0290    4.6910 ca        1 JP2      0.346500
     13 N5          1.9510   -0.1930    3.6480 nb        1 JP2     -0.574000
     14 C6          1.1940   -0.1230    4.7350 ca        1 JP2      0.300900
     15 C7         -1.0340    0.1000    6.0580 c         1 JP2      0.839100
     16 HN1        -1.3400   -0.6450   -1.4100 hn        1 JP2      0.473467
     17 HN1A        0.0290    0.0600   -2.0710 hn        1 JP2      0.473467
     18 HN3        -1.7690    0.2220    1.1190 hn        1 JP2      0.479800
     19 H6          1.7000   -0.1850    5.7170 h4        1 JP2      0.068100
     20 H13        -1.1640    1.0240   -1.3950 hn        1 JP2      0.473467
@<TRIPOS>BOND
     1    1    2 1   
     2    1    5 2   
     3    1    8 1   
     4    2   16 1   
     5    2   17 1   
     6    2   20 1   
     7    3    4 2   
     8    4    5 1   
     9    4    7 1   
    10    6   15 1   
    11    7   10 ar  
    12    7   13 ar  
    13    8   10 1   
    14    8   18 1   
    15    9   15 1   
    16   10   11 ar  
    17   11   12 ar  
    18   12   14 ar  
    19   12   15 1   
    20   13   14 ar  
    21   14   19 1   
@<TRIPOS>SUBSTRUCTURE
     1 JP2         1 TEMP              0 ****  ****    0 ROOT
