@<TRIPOS>MOLECULE
JP2
   19    17     1     0     0
SMALL
bcc


@<TRIPOS>ATOM
      1 C1         -0.1850   -0.0280   -2.4770 cg        1 JP2      0.282000
      2 N1         -0.8840   -0.0210   -3.7120 n3        1 JP2     -0.732600
      3 O1          3.1490   -0.1230   -1.2360 o         1 JP2     -0.538500
      4 C2          1.9350   -0.0840   -1.2460 c1        1 JP2      0.787900
      5 N2          1.2440   -0.0740   -2.4660 ne        1 JP2     -0.605400
      6 O2         -1.7580    1.2330    3.7940 o         1 JP2     -0.756000
      7 C3          1.1710   -0.0450    0.0530 cg        1 JP2      0.088600
      8 N3         -0.9180    0.0090   -1.2320 n2        1 JP2     -0.807100
      9 O3         -1.7190   -0.9370    4.0080 o         1 JP2     -0.756000
     10 C4         -0.2010   -0.0010    0.0400 ce        1 JP2      0.614200
     11 N4         -0.8920    0.0340    1.2140 ne        1 JP2     -0.591700
     12 C5         -0.2320    0.0250    2.3820 c1        1 JP2      0.266500
     13 N5          1.8390   -0.0540    1.2400 n1        1 JP2     -0.871500
     14 C6          1.1570   -0.0200    2.3960 ce        1 JP2      0.287600
     15 C7         -1.2970    0.1120    3.4540 c1        1 JP2      0.856000
     16 HN1        -0.4260   -0.1180   -4.4970 hn        1 JP2      0.398800
     17 HN1A       -1.7920    0.0790   -3.7220 hn        1 JP2      0.398800
     18 HN3        -1.8290    0.0390   -1.2400 hn        1 JP2      0.499400
     19 H6          1.6360   -0.0260    3.2460 h4        1 JP2      0.178000
@<TRIPOS>BOND
     1    1    2 3   
     2    1    5 1   
     3    2   16 1   
     4    2   17 1   
     5    3    4 2   
     6    4    5 2   
     7    6   15 2   
     8    7   10 1   
     9    7   13 3   
    10    8   10 2   
    11    8   18 1   
    12    9   15 2   
    13   10   11 1   
    14   11   12 2   
    15   12   14 2   
    16   13   14 1   
    17   14   19 1   
@<TRIPOS>SUBSTRUCTURE
     1 JP2         1 TEMP              0 ****  ****    0 ROOT
