@<TRIPOS>MOLECULE
JP2
   20    21     1     0     0
SMALL
bcc


@<TRIPOS>ATOM
      1 C1          0.0420    0.0820    0.0210 cc        1 JP2      0.725100
      2 N1         -0.6550    0.2170   -1.3210 nz        1 JP2     -0.822600
      3 O1          3.2960   -0.4150    1.0830 o         1 JP2     -0.448100
      4 C2          2.0830   -0.2430    1.1890 c         1 JP2      0.632000
      5 N2          1.3320   -0.1020   -0.0380 nd        1 JP2     -0.686100
      6 O2         -1.4520   -1.0210    6.4740 o         1 JP2     -0.746300
      7 C3          1.2980   -0.1630    2.4410 ca        1 JP2      0.160500
      8 N3         -0.7690    0.1690    1.1420 na        1 JP2     -0.810900
      9 O3         -1.1250    1.2270    6.5350 o         1 JP2     -0.746300
     10 C4         -0.1160    0.0420    2.3940 ca        1 JP2      0.523900
     11 N4         -0.8960    0.1250    3.5260 nb        1 JP2     -0.662000
     12 C5         -0.2570    0.0020    4.6900 ca        1 JP2      0.346500
     13 N5          1.9360   -0.2860    3.6500 nb        1 JP2     -0.574000
     14 C6          1.1780   -0.2060    4.7360 ca        1 JP2      0.300900
     15 C7         -1.0450    0.0800    6.0550 c         1 JP2      0.839100
     16 HN1        -1.3490   -0.5280   -1.4250 hn        1 JP2      0.473467
     17 HN1A        0.0480    0.1360   -2.0700 hn        1 JP2      0.473467
     18 HN3        -1.7550    0.3120    1.1160 hn        1 JP2      0.479800
     19 H6          1.6770   -0.3030    5.7180 h4        1 JP2      0.068100
     20 H13        -1.1100    1.1330   -1.3810 hn        1 JP2      0.473467
@<TRIPOS>BOND
     1    1    2 1   
     2    1    5 2   
     3    1    8 1   
     4    2   16 1   
     5    2   17 1   
     6    2   20 1   
     7    3    4 2   
     8    4    5 1   
     9    4    7 1   
    10    6   15 1   
    11    7   10 ar  
    12    7   13 ar  
    13    8   10 1   
    14    8   18 1   
    15    9   15 1   
    16   10   11 ar  
    17   11   12 ar  
    18   12   14 ar  
    19   12   15 1   
    20   13   14 ar  
    21   14   19 1   
@<TRIPOS>SUBSTRUCTURE
     1 JP2         1 TEMP              0 ****  ****    0 ROOT
