@<TRIPOS>MOLECULE
JP3
   31    33     1     0     0
SMALL
bcc


@<TRIPOS>ATOM
      1 C1         -3.6210    2.0290   -0.3460 cc        1 JP3      0.696800
      2 N1         -4.0430    3.3530   -0.5710 nh        1 JP3     -0.895800
      3 O1         -5.1720   -0.9770    0.7690 o         1 JP3     -0.568500
      4 C2         -4.2580   -0.2210    0.4160 c         1 JP3      0.620000
      5 N2         -4.6010    1.0930    0.0410 n         1 JP3     -0.513400
      6 O2          1.6490   -2.4740    0.7680 o         1 JP3     -0.595100
      7 C3         -2.8140   -0.5590    0.3350 ca        1 JP3      0.185500
      8 N3         -2.3110    1.7420   -0.4600 nd        1 JP3     -0.742700
      9 O3          4.3280    1.2880   -0.5800 os        1 JP3     -0.367800
     10 C4         -1.8910    0.4600   -0.1040 ca        1 JP3      0.565000
     11 N4         -0.5400    0.1740   -0.1900 nb        1 JP3     -0.619000
     12 C5         -0.1680   -1.0640    0.1520 ca        1 JP3      0.299500
     13 N5         -2.4080   -1.8120    0.6820 nb        1 JP3     -0.557000
     14 C6         -1.1020   -2.0610    0.5930 ca        1 JP3      0.293900
     15 N6          2.1440   -0.7830   -0.7140 n         1 JP3     -0.530900
     16 C7          1.2880   -1.4760    0.1140 c         1 JP3      0.565600
     17 C8          3.5620   -1.0380   -0.7000 c3        1 JP3      0.054700
     18 C9          4.3690    0.0040   -0.0170 cc        1 JP3      0.198000
     19 C10         5.2090   -0.0040    1.0790 cd        1 JP3     -0.229300
     20 C11         5.7290    1.3390    1.2140 cd        1 JP3     -0.267300
     21 C12         5.1690    2.0830    0.1950 cc        1 JP3      0.247600
     22 HN1        -4.9510    3.4680   -0.9610 hn        1 JP3      0.430300
     23 HN1A       -3.3470    3.9660   -0.9380 hn        1 JP3      0.430300
     24 HN2        -5.5550    1.3650    0.1430 hn        1 JP3      0.340500
     25 H6         -0.7470   -3.0690    0.8820 h4        1 JP3      0.069100
     26 HN6         1.8640    0.1040   -1.0720 hn        1 JP3      0.336500
     27 H8          3.7630   -2.0290   -0.1960 h1        1 JP3      0.085200
     28 H8A         3.9030   -1.1010   -1.7770 h1        1 JP3      0.085200
     29 H10         5.4420   -0.8450    1.7270 ha        1 JP3      0.167000
     30 H11         6.4230    1.6750    1.9780 ha        1 JP3      0.163000
     31 H12         5.2310    3.1180   -0.1290 h4        1 JP3      0.054100
@<TRIPOS>BOND
     1    1    2 1   
     2    1    5 1   
     3    1    8 2   
     4    2   22 1   
     5    2   23 1   
     6    3    4 2   
     7    4    5 1   
     8    4    7 1   
     9    5   24 1   
    10    6   16 2   
    11    7   10 ar  
    12    7   13 ar  
    13    8   10 1   
    14    9   18 1   
    15    9   21 1   
    16   10   11 ar  
    17   11   12 ar  
    18   12   14 ar  
    19   12   16 1   
    20   13   14 ar  
    21   14   25 1   
    22   15   16 1   
    23   15   17 1   
    24   15   26 1   
    25   17   18 1   
    26   17   27 1   
    27   17   28 1   
    28   18   19 2   
    29   19   20 1   
    30   19   29 1   
    31   20   21 2   
    32   20   30 1   
    33   21   31 1   
@<TRIPOS>SUBSTRUCTURE
     1 JP3         1 TEMP              0 ****  ****    0 ROOT
