@<TRIPOS>MOLECULE
JP3
   33    35     1     0     0
SMALL
bcc


@<TRIPOS>ATOM
      1 C1          0.1780    0.0760   -0.1000 cc        1 JP3      0.588800
      2 N1         -0.4740    0.0600   -1.4560 nz        1 JP3     -0.808600
      3 O1          3.4640    0.2650    1.1840 o         1 JP3     -0.425500
      4 C2          2.2430    0.1840    1.1970 c         1 JP3      0.610000
      5 N2          1.5630    0.1650   -0.0610 ns        1 JP3     -0.502400
      6 O2         -0.6580   -0.1750    6.8880 o         1 JP3     -0.370100
      7 C3          1.3590    0.1020    2.4000 ca        1 JP3      0.293500
      8 N3         -0.6510    0.0010    0.9300 nd        1 JP3     -0.637700
      9 O3         -5.3350    0.9670    6.0900 os        1 JP3     -0.384800
     10 C4         -0.0740    0.0120    2.2200 ca        1 JP3      0.520000
     11 N4         -0.9060   -0.0640    3.3060 nb        1 JP3     -0.588000
     12 C5         -0.3120   -0.0510    4.5170 ca        1 JP3      0.239500
     13 N5          1.9300    0.1140    3.6270 nb        1 JP3     -0.522000
     14 C6          1.1080    0.0380    4.6840 ca        1 JP3      0.390900
     15 N6         -2.6180   -0.1730    5.6090 ny        1 JP3     -0.665800
     16 C7         -1.1320   -0.1350    5.7620 c         1 JP3      0.449600
     17 C8         -3.3500   -0.1510    6.9380 c3        1 JP3      0.124500
     18 C9         -4.7950   -0.1750    6.7180 cc        1 JP3      0.071000
     19 C10        -5.8160   -1.0330    7.0960 cd        1 JP3     -0.115300
     20 C11        -7.0510   -0.4060    6.6970 cd        1 JP3     -0.263300
     21 C12        -6.7150    0.7940    6.0940 cc        1 JP3      0.325600
     22 HN1        -1.5020   -0.0090   -1.3520 hn        1 JP3      0.498133
     23 HN1A       -0.2480    0.9310   -1.9580 hn        1 JP3      0.498133
     24 HN2         2.1300    0.2190   -0.8860 hn        1 JP3      0.376500
     25 H6          1.5810    0.0460    5.6920 h4        1 JP3      0.108100
     26 HN6        -2.8830   -1.0210    5.0900 hn        1 JP3      0.476800
     27 H8         -3.0310    0.7940    7.4710 hx        1 JP3      0.131200
     28 H8A        -3.0200   -1.0470    7.5400 hx        1 JP3      0.131200
     29 H10        -5.7270   -1.9910    7.6100 ha        1 JP3      0.189000
     30 H11        -8.0510   -0.8100    6.8580 ha        1 JP3      0.202000
     31 H12        -7.2740    1.6120    5.6390 h4        1 JP3      0.085100
     32 H13        -0.1380   -0.7520   -1.9920 hn        1 JP3      0.498133
     33 H62        -2.9290    0.6390    5.0560 hn        1 JP3      0.476800
@<TRIPOS>BOND
     1    1    2 1   
     2    1    5 1   
     3    1    8 2   
     4    2   22 1   
     5    2   23 1   
     6    2   32 1   
     7    3    4 2   
     8    4    5 1   
     9    4    7 1   
    10    5   24 1   
    11    6   16 2   
    12    7   10 ar  
    13    7   13 ar  
    14    8   10 1   
    15    9   18 1   
    16    9   21 1   
    17   10   11 ar  
    18   11   12 ar  
    19   12   14 ar  
    20   12   16 1   
    21   13   14 ar  
    22   14   25 1   
    23   15   16 1   
    24   15   17 1   
    25   15   26 1   
    26   15   33 1   
    27   17   18 1   
    28   17   27 1   
    29   17   28 1   
    30   18   19 2   
    31   19   20 1   
    32   19   29 1   
    33   20   21 2   
    34   20   30 1   
    35   21   31 1   
@<TRIPOS>SUBSTRUCTURE
     1 JP3         1 TEMP              0 ****  ****    0 ROOT
