@<TRIPOS>MOLECULE
JP3
   31    26     1     0     0
SMALL
bcc


@<TRIPOS>ATOM
      1 C1          1.2230   -0.1390   -4.5800 c1        1 JP3      0.250000
      2 N1          0.4710   -0.0470   -5.7790 n3        1 JP3     -0.334000
      3 O1          4.5880   -0.5630   -3.5020 o         1 JP3     -0.293000
      4 C2          3.3800   -0.4420   -3.4530 c1        1 JP3      0.367000
      5 N2          2.6360   -0.3470   -4.6380 n2        1 JP3     -0.353000
      6 O2          1.6600   -0.0740    2.6300 o         1 JP3     -0.356000
      7 C3          2.6870   -0.3250   -2.1180 c1        1 JP3     -0.167000
      8 N3          0.5600   -0.0280   -3.3010 n1        1 JP3     -0.236000
      9 O3         -3.3770    0.8670    2.4590 os        1 JP3     -0.109000
     10 C4          1.3310   -0.1260   -2.0650 c1        1 JP3      0.083000
     11 N4          0.7040   -0.0200   -0.8600 n2        1 JP3     -0.093000
     12 C5          1.4140   -0.1110    0.2760 c1        1 JP3     -0.053000
     13 N5          3.4060   -0.4170   -0.9650 n2        1 JP3     -0.031000
     14 C6          2.7870   -0.3130    0.2230 c2        1 JP3     -0.106000
     15 N6         -0.4820    0.2740    1.9210 n3        1 JP3     -0.340000
     16 C7          0.8950    0.0240    1.6910 c1        1 JP3      0.349000
     17 C8         -0.9220    0.7030    3.2030 c3        1 JP3      0.033000
     18 C9         -2.4090    0.4530    3.3360 c2        1 JP3     -0.091000
     19 C10        -3.0290   -0.2170    4.3700 c1        1 JP3     -0.164000
     20 C11        -4.3740   -0.2140    4.1290 c1        1 JP3     -0.202000
     21 C12        -4.5910    0.4580    2.9440 c1        1 JP3     -0.084000
     22 HN1        -0.4410    0.0000   -5.7440 hn        1 JP3      0.225500
     23 HN1A        0.8990   -0.0110   -6.5860 hn        1 JP3      0.225500
     24 HN2         3.0540   -0.4190   -5.4450 hn        1 JP3      0.254000
     25 H6          3.3030   -0.3790    1.0500 h4        1 JP3      0.206000
     26 HN6        -1.0830    0.1740    1.2420 hn        1 JP3      0.250000
     27 H8         -0.7420    1.6600    3.3070 h1        1 JP3      0.124500
     28 H8A        -0.4440    0.2040    3.8960 h1        1 JP3      0.124500
     29 H10        -2.5850   -0.6220    5.1390 DU        1 JP3      0.173667
     30 H11        -5.0590   -0.6160    4.6950 DU        1 JP3      0.173667
     31 H12        -5.4590    0.6150    2.5240 DU        1 JP3      0.173667
@<TRIPOS>BOND
     1    1    2 1   
     2    1    8 1   
     3    2   22 1   
     4    2   23 1   
     5    3    4 1   
     6    4    5 1   
     7    5   24 1   
     8    6   16 1   
     9    7   10 1   
    10    7   13 1   
    11    9   18 1   
    12    9   21 1   
    13   10   11 1   
    14   11   12 1   
    15   12   14 1   
    16   13   14 1   
    17   14   25 1   
    18   15   16 1   
    19   15   17 1   
    20   15   26 1   
    21   17   18 1   
    22   17   27 1   
    23   17   28 1   
    24   18   19 1   
    25   19   20 1   
    26   20   21 1   
@<TRIPOS>SUBSTRUCTURE
     1 JP3         1 TEMP              0 ****  ****    0 ROOT
