@<TRIPOS>MOLECULE
JP3
   33    35     1     0     0
SMALL
bcc


@<TRIPOS>ATOM
      1 C1          0.1760    0.0610   -0.1010 cc        1 JP3      0.588800
      2 N1         -0.4760    0.0320   -1.4560 n4        1 JP3     -0.808600
      3 O1          3.4610    0.2840    1.1810 o         1 JP3     -0.425500
      4 C2          2.2410    0.1950    1.1940 c         1 JP3      0.610000
      5 N2          1.5620    0.1620   -0.0630 n         1 JP3     -0.502400
      6 O2         -0.6570   -0.1460    6.8880 o         1 JP3     -0.370100
      7 C3          1.3570    0.1140    2.3980 ca        1 JP3      0.293500
      8 N3         -0.6520   -0.0120    0.9300 nd        1 JP3     -0.637700
      9 O3         -5.3410    0.9590    6.0840 os        1 JP3     -0.384800
     10 C4         -0.0750    0.0130    2.2190 ca        1 JP3      0.520000
     11 N4         -0.9060   -0.0620    3.3060 nb        1 JP3     -0.588000
     12 C5         -0.3120   -0.0360    4.5160 ca        1 JP3      0.239500
     13 N5          1.9290    0.1390    3.6250 nb        1 JP3     -0.522000
     14 C6          1.1080    0.0640    4.6830 ca        1 JP3      0.390900
     15 N6         -2.6170   -0.1660    5.6100 n4        1 JP3     -0.665800
     16 C7         -1.1310   -0.1170    5.7620 c         1 JP3      0.449600
     17 C8         -3.3480   -0.1410    6.9390 c3        1 JP3      0.124500
     18 C9         -4.7930   -0.1750    6.7190 cc        1 JP3      0.071000
     19 C10        -5.8090   -1.0370    7.1030 cd        1 JP3     -0.115300
     20 C11        -7.0480   -0.4210    6.7000 cd        1 JP3     -0.263300
     21 C12        -6.7190    0.7780    6.0900 cc        1 JP3      0.325600
     22 HN1        -1.5030   -0.0440   -1.3520 hn        1 JP3      0.498133
     23 HN1A       -0.2560    0.9000   -1.9660 hn        1 JP3      0.498133
     24 HN2         2.1280    0.2140   -0.8890 hn        1 JP3      0.376500
     25 H6          1.5810    0.0830    5.6910 h4        1 JP3      0.108100
     26 HN6        -2.8760   -1.0190    5.0960 hn        1 JP3      0.476800
     27 H8         -3.0350    0.8100    7.4660 hx        1 JP3      0.131200
     28 H8A        -3.0130   -1.0300    7.5470 hx        1 JP3      0.131200
     29 H10        -5.7130   -1.9910    7.6240 ha        1 JP3      0.189000
     30 H11        -8.0450   -0.8300    6.8640 ha        1 JP3      0.202000
     31 H12        -7.2850    1.5900    5.6290 h4        1 JP3      0.085100
     32 H13        -0.1330   -0.7820   -1.9870 hn        1 JP3      0.498133
     33 H62        -2.9340    0.6400    5.0520 hn        1 JP3      0.476800
@<TRIPOS>BOND
     1    1    2 1   
     2    1    5 1   
     3    1    8 2   
     4    2   22 1   
     5    2   23 1   
     6    2   32 1   
     7    3    4 2   
     8    4    5 1   
     9    4    7 1   
    10    5   24 1   
    11    6   16 2   
    12    7   10 ar  
    13    7   13 ar  
    14    8   10 1   
    15    9   18 1   
    16    9   21 1   
    17   10   11 ar  
    18   11   12 ar  
    19   12   14 ar  
    20   12   16 1   
    21   13   14 ar  
    22   14   25 1   
    23   15   16 1   
    24   15   17 1   
    25   15   26 1   
    26   15   33 1   
    27   17   18 1   
    28   17   27 1   
    29   17   28 1   
    30   18   19 2   
    31   19   20 1   
    32   19   29 1   
    33   20   21 2   
    34   20   30 1   
    35   21   31 1   
@<TRIPOS>SUBSTRUCTURE
     1 JP3         1 TEMP              0 ****  ****    0 ROOT
