@<TRIPOS>MOLECULE
JPA
   37    39     1     0     0
SMALL
bcc


@<TRIPOS>ATOM
      1 ClL2       -0.0860    0.2530    1.1750 cl        1 JPA     -0.089400
      2 C4          1.5580    0.1550    0.7550 ca        1 JPA     -0.009600
      3 C3          2.5270    0.1880    1.7600 ca        1 JPA     -0.096000
      4 C5          1.9260    0.0440   -0.5890 ca        1 JPA     -0.092000
      5 C6          3.2720   -0.0370   -0.9290 ca        1 JPA     -0.175000
      6 C1          4.2530   -0.0070    0.0700 ca        1 JPA      0.138100
      7 C2          3.8820    0.1070    1.4260 ca        1 JPA     -0.001600
      8 ClL1        5.0300    0.1490    2.6750 cl        1 JPA     -0.063400
      9 O1          5.6140   -0.0900   -0.1930 os        1 JPA     -0.218200
     10 C9          5.9810   -0.2030   -1.5320 ca        1 JPA      0.044100
     11 C8          6.2760    0.9510   -2.2890 ca        1 JPA      0.128100
     12 O2          6.0170    2.1700   -1.7150 oh        1 JPA     -0.476100
     13 C7          6.8080    0.8180   -3.5790 ca        1 JPA     -0.204000
     14 C12         7.0360   -0.4540   -4.1170 cp        1 JPA      0.013000
     15 C11         6.7350   -1.5930   -3.3570 ca        1 JPA     -0.149000
     16 C10         6.2120   -1.4720   -2.0730 ca        1 JPA     -0.096000
     17 C17         7.6170   -0.5750   -5.4570 cp        1 JPA     -0.052000
     18 C18         7.0240   -1.3600   -6.4610 ca        1 JPA     -0.055300
     19 C23         5.7680   -2.1130   -6.2340 c3        1 JPA     -0.059800
     20 C19         7.6360   -1.4340   -7.7200 ca        1 JPA     -0.134000
     21 C20         8.8160   -0.7450   -7.9840 ca        1 JPA     -0.118000
     22 C21         9.4010    0.0370   -6.9880 ca        1 JPA     -0.135000
     23 C22         8.8020    0.1240   -5.7350 ca        1 JPA     -0.113000
     24 H3          2.2290    0.2790    2.8170 ha        1 JPA      0.162000
     25 H5          1.1580    0.0210   -1.3770 ha        1 JPA      0.151000
     26 H6          3.5700   -0.1190   -1.9860 ha        1 JPA      0.153000
     27 HO2         6.3050    2.8580   -2.3340 ho        1 JPA      0.423000
     28 H7          7.0460    1.7160   -4.1690 ha        1 JPA      0.144000
     29 H11         6.9220   -2.5920   -3.7800 ha        1 JPA      0.146000
     30 H10         5.9890   -2.3640   -1.4690 ha        1 JPA      0.154000
     31 H231        5.1480   -1.6380   -5.4340 hc        1 JPA      0.048367
     32 H232        5.1600   -2.1600   -7.1710 hc        1 JPA      0.048367
     33 H233        6.0030   -3.1610   -5.9190 hc        1 JPA      0.048367
     34 H19         7.1720   -2.0460   -8.5080 ha        1 JPA      0.134000
     35 H20         9.2850   -0.8160   -8.9760 ha        1 JPA      0.134000
     36 H21        10.3330    0.5850   -7.1910 ha        1 JPA      0.135000
     37 H22         9.2620    0.7390   -4.9460 ha        1 JPA      0.136000
@<TRIPOS>BOND
     1    1    2 1   
     2    2    3 ar  
     3    2    4 ar  
     4    3    7 ar  
     5    3   24 1   
     6    4    5 ar  
     7    4   25 1   
     8    5    6 ar  
     9    5   26 1   
    10    6    7 ar  
    11    6    9 1   
    12    7    8 1   
    13    9   10 1   
    14   10   11 ar  
    15   10   16 ar  
    16   11   12 1   
    17   11   13 ar  
    18   12   27 1   
    19   13   14 ar  
    20   13   28 1   
    21   14   15 ar  
    22   14   17 1   
    23   15   16 ar  
    24   15   29 1   
    25   16   30 1   
    26   17   18 ar  
    27   17   23 ar  
    28   18   19 1   
    29   18   20 ar  
    30   19   31 1   
    31   19   32 1   
    32   19   33 1   
    33   20   21 ar  
    34   20   34 1   
    35   21   22 ar  
    36   21   35 1   
    37   22   23 ar  
    38   22   36 1   
    39   23   37 1   
@<TRIPOS>SUBSTRUCTURE
     1 JPA         1 TEMP              0 ****  ****    0 ROOT
