@<TRIPOS>MOLECULE
JPA
   37    39     1     0     0
SMALL
bcc


@<TRIPOS>ATOM
      1 CLL2       -5.6720   -2.3490    0.4480 cl        1 JPA     -0.082400
      2 C4         -4.3800   -1.2650    0.2430 ca        1 JPA     -0.001600
      3 C3         -4.6040    0.1060    0.3860 ca        1 JPA     -0.100000
      4 C5         -3.1070   -1.7540   -0.0660 ca        1 JPA     -0.095000
      5 C6         -2.0510   -0.8650   -0.2340 ca        1 JPA     -0.166000
      6 C1         -2.2640    0.5130   -0.0920 ca        1 JPA      0.116100
      7 C2         -3.5460    1.0060    0.2240 ca        1 JPA      0.002400
      8 CLL1       -3.8530    2.6640    0.4070 cl        1 JPA     -0.059400
      9 O1         -1.2640    1.4550   -0.3050 os        1 JPA     -0.244200
     10 C9          0.0480    0.9930   -0.1930 ca        1 JPA     -0.006900
     11 C8          0.8810    1.1650   -1.3160 ca        1 JPA      0.134100
     12 O2          0.4270    1.6520   -2.5140 oh        1 JPA     -0.489100
     13 C7          2.2440    0.8440   -1.2250 ca        1 JPA     -0.145000
     14 C12         2.7610    0.3490   -0.0240 cp        1 JPA      0.001000
     15 C11         1.9190    0.1860    1.0890 ca        1 JPA     -0.145000
     16 C10         0.5690    0.5090    1.0110 ca        1 JPA     -0.107000
     17 C17         4.1900    0.0380    0.0680 cp        1 JPA     -0.049000
     18 C18         4.6600   -1.2020    0.5340 ca        1 JPA     -0.057300
     19 C23         3.7400   -2.2860    0.9540 c3        1 JPA     -0.058800
     20 C19         6.0420   -1.4280    0.6020 ca        1 JPA     -0.135000
     21 C20         6.9470   -0.4450    0.2150 ca        1 JPA     -0.119000
     22 C21         6.4800    0.7840   -0.2530 ca        1 JPA     -0.135000
     23 C22         5.1110    1.0200   -0.3290 ca        1 JPA     -0.111000
     24 H3         -5.6110    0.4830    0.6300 ha        1 JPA      0.165000
     25 H5         -2.9370   -2.8360   -0.1790 ha        1 JPA      0.155000
     26 H6         -1.0440   -1.2380   -0.4750 ha        1 JPA      0.159000
     27 HO2        -0.5160    1.8630   -2.4140 ho        1 JPA      0.438000
     28 H7          2.8890    0.9830   -2.1060 ha        1 JPA      0.161000
     29 H11         2.3380   -0.1930    2.0330 ha        1 JPA      0.146000
     30 H10        -0.0920    0.3910    1.8820 ha        1 JPA      0.151000
     31 H231        3.5680   -2.2340    2.0590 hc        1 JPA      0.047033
     32 H232        2.7510   -2.2000    0.4410 hc        1 JPA      0.047033
     33 H233        4.1760   -3.2880    0.7160 hc        1 JPA      0.047033
     34 H19         6.4110   -2.4000    0.9640 ha        1 JPA      0.133000
     35 H20         8.0280   -0.6360    0.2770 ha        1 JPA      0.133000
     36 H21         7.1910    1.5640   -0.5630 ha        1 JPA      0.134000
     37 H22         4.7390    1.9880   -0.7000 ha        1 JPA      0.138000
@<TRIPOS>BOND
     1    1    2 1   
     2    2    3 ar  
     3    2    4 ar  
     4    3    7 ar  
     5    3   24 1   
     6    4    5 ar  
     7    4   25 1   
     8    5    6 ar  
     9    5   26 1   
    10    6    7 ar  
    11    6    9 1   
    12    7    8 1   
    13    9   10 1   
    14   10   11 ar  
    15   10   16 ar  
    16   11   12 1   
    17   11   13 ar  
    18   12   27 1   
    19   13   14 ar  
    20   13   28 1   
    21   14   15 ar  
    22   14   17 1   
    23   15   16 ar  
    24   15   29 1   
    25   16   30 1   
    26   17   18 ar  
    27   17   23 ar  
    28   18   19 1   
    29   18   20 ar  
    30   19   31 1   
    31   19   32 1   
    32   19   33 1   
    33   20   21 ar  
    34   20   34 1   
    35   21   22 ar  
    36   21   35 1   
    37   22   23 ar  
    38   22   36 1   
    39   23   37 1   
@<TRIPOS>SUBSTRUCTURE
     1 JPA         1 TEMP              0 ****  ****    0 ROOT
