@<TRIPOS>MOLECULE
JPA
   37    39     1     0     0
SMALL
bcc


@<TRIPOS>ATOM
      1 CLL2       -0.0840    0.2490    1.1790 cl        1 JPA     -0.089400
      2 C4          1.5600    0.1540    0.7580 ca        1 JPA     -0.009600
      3 C3          2.5300    0.1880    1.7620 ca        1 JPA     -0.096000
      4 C5          1.9270    0.0440   -0.5860 ca        1 JPA     -0.092000
      5 C6          3.2730   -0.0340   -0.9280 ca        1 JPA     -0.175000
      6 C1          4.2550   -0.0020    0.0700 ca        1 JPA      0.138100
      7 C2          3.8850    0.1100    1.4270 ca        1 JPA     -0.001600
      8 CLL1        5.0330    0.1530    2.6750 cl        1 JPA     -0.063400
      9 O1          5.6160   -0.0820   -0.1930 os        1 JPA     -0.218200
     10 C9          5.9820   -0.1970   -1.5330 ca        1 JPA      0.044100
     11 C8          6.2750    0.9550   -2.2920 ca        1 JPA      0.128100
     12 O2          6.0150    2.1750   -1.7210 oh        1 JPA     -0.476100
     13 C7          6.8070    0.8200   -3.5820 ca        1 JPA     -0.204000
     14 C12         7.0350   -0.4530   -4.1180 cp        1 JPA      0.013000
     15 C11         6.7360   -1.5910   -3.3560 ca        1 JPA     -0.149000
     16 C10         6.2150   -1.4670   -2.0710 ca        1 JPA     -0.096000
     17 C17         7.6150   -0.5760   -5.4580 cp        1 JPA     -0.052000
     18 C18         7.0230   -1.3640   -6.4600 ca        1 JPA     -0.055300
     19 C23         5.7680   -2.1180   -6.2300 c3        1 JPA     -0.059800
     20 C19         7.6340   -1.4400   -7.7200 ca        1 JPA     -0.134000
     21 C20         8.8120   -0.7500   -7.9860 ca        1 JPA     -0.118000
     22 C21         9.3970    0.0350   -6.9910 ca        1 JPA     -0.135000
     23 C22         8.7990    0.1230   -5.7380 ca        1 JPA     -0.113000
     24 H3          2.2330    0.2770    2.8190 ha        1 JPA      0.162000
     25 H5          1.1590    0.0210   -1.3740 ha        1 JPA      0.151000
     26 H6          3.5710   -0.1140   -1.9850 ha        1 JPA      0.153000
     27 HO2         6.3020    2.8620   -2.3410 ho        1 JPA      0.423000
     28 H7          7.0430    1.7170   -4.1740 ha        1 JPA      0.144000
     29 H11         6.9240   -2.5910   -3.7760 ha        1 JPA      0.146000
     30 H10         5.9930   -2.3580   -1.4650 ha        1 JPA      0.154000
     31 H231        5.1480   -1.6420   -5.4310 hc        1 JPA      0.048367
     32 H232        5.1590   -2.1680   -7.1670 hc        1 JPA      0.048367
     33 H233        6.0050   -3.1650   -5.9130 hc        1 JPA      0.048367
     34 H19         7.1700   -2.0550   -8.5060 ha        1 JPA      0.134000
     35 H20         9.2810   -0.8230   -8.9780 ha        1 JPA      0.134000
     36 H21        10.3290    0.5830   -7.1970 ha        1 JPA      0.135000
     37 H22         9.2600    0.7400   -4.9510 ha        1 JPA      0.136000
@<TRIPOS>BOND
     1    1    2 1   
     2    2    3 ar  
     3    2    4 ar  
     4    3    7 ar  
     5    3   24 1   
     6    4    5 ar  
     7    4   25 1   
     8    5    6 ar  
     9    5   26 1   
    10    6    7 ar  
    11    6    9 1   
    12    7    8 1   
    13    9   10 1   
    14   10   11 ar  
    15   10   16 ar  
    16   11   12 1   
    17   11   13 ar  
    18   12   27 1   
    19   13   14 ar  
    20   13   28 1   
    21   14   15 ar  
    22   14   17 1   
    23   15   16 ar  
    24   15   29 1   
    25   16   30 1   
    26   17   18 ar  
    27   17   23 ar  
    28   18   19 1   
    29   18   20 ar  
    30   19   31 1   
    31   19   32 1   
    32   19   33 1   
    33   20   21 ar  
    34   20   34 1   
    35   21   22 ar  
    36   21   35 1   
    37   22   23 ar  
    38   22   36 1   
    39   23   37 1   
@<TRIPOS>SUBSTRUCTURE
     1 JPA         1 TEMP              0 ****  ****    0 ROOT
