@<TRIPOS>MOLECULE
JPA
   37    31     1     0     0
SMALL
bcc


@<TRIPOS>ATOM
      1 CLL2        2.5110   -0.7210    6.2860 cl        1 JPA     -0.011000
      2 C4          1.1610   -0.5160    5.2010 c2        1 JPA     -0.088000
      3 C3          0.6480    0.7500    4.9650 c2        1 JPA     -0.096000
      4 C5          0.6260   -1.6140    4.5460 c1        1 JPA     -0.092000
      5 C6         -0.4210   -1.4460    3.6540 c1        1 JPA     -0.176000
      6 C1         -0.9340   -0.1800    3.4170 c1        1 JPA      0.093000
      7 C2         -0.3990    0.9180    4.0720 c1        1 JPA     -0.079000
      8 CLL1       -1.0790    2.5030    3.8150 cl        1 JPA      0.016000
      9 O1         -1.9970   -0.0100    2.5130 os        1 JPA     -0.129000
     10 C9         -1.4980   -0.0040    1.1990 c2        1 JPA     -0.001000
     11 C8         -1.2660    1.1990    0.5520 c2        1 JPA      0.082000
     12 O2         -1.4790    2.4140    1.2280 oh        1 JPA     -0.230000
     13 C7         -0.8320    1.2050   -0.7650 c1        1 JPA     -0.202000
     14 C12        -0.6300    0.0090   -1.4340 c1        1 JPA     -0.022500
     15 C11        -0.8630   -1.1950   -0.7870 c1        1 JPA     -0.129500
     16 C10        -1.2970   -1.2010    0.5300 c1        1 JPA     -0.096000
     17 C17        -0.1920    0.0150   -2.7490 c1        1 JPA     -0.022500
     18 C18         1.1660    0.0610   -3.0260 c1        1 JPA     -0.050000
     19 C23         2.1650    0.1660   -1.8950 c3        1 JPA     -0.183000
     20 C19         1.6080    0.0060   -4.3380 c1        1 JPA     -0.134000
     21 C20         0.6920   -0.0960   -5.3740 c1        1 JPA     -0.127500
     22 C21        -0.6650   -0.1420   -5.0970 c1        1 JPA     -0.127500
     23 C22        -1.1070   -0.0860   -3.7850 c1        1 JPA     -0.129500
     24 H3          1.0250    1.5230    5.4260 ha        1 JPA      0.162000
     25 H5          0.9870   -2.5050    4.7120 ha        1 JPA      0.151000
     26 H6         -0.7970   -2.2190    3.1920 ha        1 JPA      0.153000
     27 HO2        -1.6220    3.0610    0.6350 ho        1 JPA      0.222000
     28 H7         -0.6680    2.0530   -1.2210 ha        1 JPA      0.146000
     29 H11        -0.7210   -2.0380   -1.2580 ha        1 JPA      0.142500
     30 H10        -1.4600   -2.0490    0.9850 ha        1 JPA      0.154000
     31 H231        1.9660   -0.5140   -1.2190 hc        1 JPA      0.087000
     32 H232        2.1070    1.0570   -1.4900 hc        1 JPA      0.087000
     33 H233        3.0690    0.0250   -2.2450 hc        1 JPA      0.087000
     34 H19         2.5640    0.0380   -4.5330 ha        1 JPA      0.134000
     35 H20         1.0040   -0.1350   -6.2980 ha        1 JPA      0.134500
     36 H21        -1.3090   -0.2130   -5.8260 ha        1 JPA      0.134500
     37 H22        -2.0630   -0.1190   -3.5900 ha        1 JPA      0.142500
@<TRIPOS>BOND
     1    1    2 1   
     2    2    3 1   
     3    2    4 1   
     4    3    7 1   
     5    3   24 1   
     6    4   25 1   
     7    5    6 1   
     8    5   26 1   
     9    6    9 1   
    10    7    8 1   
    11    9   10 1   
    12   10   11 1   
    13   10   16 1   
    14   11   12 1   
    15   11   13 1   
    16   12   27 1   
    17   13   28 1   
    18   14   15 1   
    19   15   29 1   
    20   16   30 1   
    21   17   23 1   
    22   18   19 1   
    23   18   20 1   
    24   19   31 1   
    25   19   32 1   
    26   19   33 1   
    27   20   34 1   
    28   21   22 1   
    29   21   35 1   
    30   22   36 1   
    31   23   37 1   
@<TRIPOS>SUBSTRUCTURE
     1 JPA         1 TEMP              0 ****  ****    0 ROOT
