@<TRIPOS>MOLECULE
JPC
   44    46     1     0     0
SMALL
bcc


@<TRIPOS>ATOM
      1 N1          0.1940   -0.0970    0.1250 n         1 JPC     -0.322000
      2 C2          1.5700    0.0330    0.6190 c3        1 JPC      0.102700
      3 C3          1.6550    0.1600    2.1410 c3        1 JPC     -0.109600
      4 C4          2.4660   -1.1150    0.1530 c3        1 JPC     -0.109600
      5 C5         -0.6230   -1.1180    0.5720 c         1 JPC      0.677700
      6 O6         -0.1790   -2.0840    1.2330 o         1 JPC     -0.624100
      7 C7         -2.0770   -1.1180    0.1970 ca        1 JPC     -0.101600
      8 C8         -2.5060   -1.9960   -0.8040 ca        1 JPC     -0.089000
      9 C9         -3.8550   -2.0970   -1.1320 ca        1 JPC     -0.141000
     10 C10        -4.7840   -1.3110   -0.4430 ca        1 JPC      0.031400
     11 C11        -4.3770   -0.4310    0.5590 ca        1 JPC     -0.133000
     12 C12        -3.0160   -0.3360    0.8830 ca        1 JPC      0.052400
     13 CL13       -6.4390   -1.4310   -0.8330 cl        1 JPC     -0.116400
     14 CL14       -2.5350    0.7370    2.0940 cl        1 JPC     -0.013400
     15 C15        -0.3130    0.9580   -0.6630 cc        1 JPC     -0.041400
     16 C16        -0.2490    2.3220   -0.3670 cd        1 JPC     -0.103700
     17 S17        -0.9220    3.2390   -1.5750 ss        1 JPC      0.063200
     18 C18        -1.3270    1.9200   -2.5440 cd        1 JPC     -0.144100
     19 C19        -0.9360    0.7360   -1.9430 cc        1 JPC     -0.128000
     20 C20         0.3850    2.9570    0.8610 c         1 JPC      0.930200
     21 O21        -0.3600    3.2300    1.8360 o         1 JPC     -0.803800
     22 O22         1.6270    3.1740    0.8090 o         1 JPC     -0.803800
     23 C23        -1.9850    2.0530   -3.8180 ca        1 JPC      0.046000
     24 C24        -1.9540    1.0150   -4.7640 ca        1 JPC     -0.138500
     25 C25        -2.5940    1.1570   -5.9920 ca        1 JPC     -0.127500
     26 C26        -3.2730    2.3340   -6.3010 ca        1 JPC     -0.157000
     27 C27        -3.3080    3.3740   -5.3720 ca        1 JPC     -0.127500
     28 C28        -2.6720    3.2370   -4.1410 ca        1 JPC     -0.138500
     29 H2          1.9750    1.0040    0.1850 h1        1 JPC      0.112700
     30 H31         1.2090   -0.7280    2.6480 hc        1 JPC      0.042367
     31 H32         2.7290    0.2420    2.4310 hc        1 JPC      0.042367
     32 H33         1.1260    1.0900    2.4700 hc        1 JPC      0.042367
     33 H41         2.1330   -2.0840    0.5980 hc        1 JPC      0.042367
     34 H42         2.4560   -1.2070   -0.9590 hc        1 JPC      0.042367
     35 H43         3.5110   -0.9040    0.4830 hc        1 JPC      0.042367
     36 H8         -1.7640   -2.6160   -1.3310 ha        1 JPC      0.144000
     37 H9         -4.1830   -2.7860   -1.9230 ha        1 JPC      0.140000
     38 H11        -5.1140    0.1900    1.0920 ha        1 JPC      0.156000
     39 H19        -1.0910   -0.2610   -2.3610 ha        1 JPC      0.139000
     40 H24        -1.4140    0.0850   -4.5300 ha        1 JPC      0.134000
     41 H25        -2.5620    0.3340   -6.7220 ha        1 JPC      0.119000
     42 H26        -3.7770    2.4440   -7.2710 ha        1 JPC      0.117000
     43 H27        -3.8420    4.3050   -5.6090 ha        1 JPC      0.119000
     44 H28        -2.7070    4.0580   -3.4090 ha        1 JPC      0.134000
@<TRIPOS>BOND
     1    1    2 1   
     2    1    5 1   
     3    1   15 1   
     4    2    3 1   
     5    2    4 1   
     6    2   29 1   
     7    3   30 1   
     8    3   31 1   
     9    3   32 1   
    10    4   33 1   
    11    4   34 1   
    12    4   35 1   
    13    5    6 2   
    14    5    7 1   
    15    7    8 ar  
    16    7   12 ar  
    17    8    9 ar  
    18    8   36 1   
    19    9   10 ar  
    20    9   37 1   
    21   10   11 ar  
    22   10   13 1   
    23   11   12 ar  
    24   11   38 1   
    25   12   14 1   
    26   15   16 2   
    27   15   19 1   
    28   16   17 1   
    29   16   20 1   
    30   17   18 1   
    31   18   19 2   
    32   18   23 1   
    33   19   39 1   
    34   20   21 1   
    35   20   22 1   
    36   23   24 ar  
    37   23   28 ar  
    38   24   25 ar  
    39   24   40 1   
    40   25   26 ar  
    41   25   41 1   
    42   26   27 ar  
    43   26   42 1   
    44   27   28 ar  
    45   27   43 1   
    46   28   44 1   
@<TRIPOS>SUBSTRUCTURE
     1 JPC         1 TEMP              0 ****  ****    0 ROOT
