@<TRIPOS>MOLECULE
JPC
   44    39     1     0     0
SMALL
bcc


@<TRIPOS>ATOM
      1 N1          0.3740   -0.7050   -0.7380 n         1 JPC     -0.245000
      2 C2          1.8140   -0.7040   -0.6620 c3        1 JPC      0.049000
      3 C3          2.2530   -0.2710    0.7540 c3        1 JPC     -0.231500
      4 C4          2.3960    0.2970   -1.7400 c3        1 JPC     -0.231500
      5 C5         -0.3290   -1.8980   -1.1720 c2        1 JPC      0.374000
      6 O6         -1.5660   -1.9120   -1.1830 o         1 JPC     -0.339000
      7 C7          0.4340   -3.0880   -1.6670 c2        1 JPC     -0.094000
      8 C8          0.7820   -3.1950   -3.1030 c1        1 JPC     -0.071000
      9 C9          1.3610   -4.3260   -3.5780 c1        1 JPC     -0.136000
     10 C10         1.6320   -5.4000   -2.7070 c1        1 JPC     -0.053000
     11 C11         1.2920   -5.3000   -1.2960 c1        1 JPC     -0.148000
     12 C12         0.7020   -4.1510   -0.8070 c2        1 JPC     -0.031000
     13 CL13        2.2950   -6.8650   -3.3330 cl        1 JPC     -0.042000
     14 CL14        0.1800   -4.0810    0.8670 cl        1 JPC     -0.015000
     15 C15        -0.4180    0.5190   -0.2940 c2        1 JPC     -0.001000
     16 C16        -1.2310    1.3690   -1.1490 c1        1 JPC     -0.372000
     17 S17        -1.8410    2.5200   -0.2420 ss        1 JPC      0.635000
     18 C18        -1.3280    2.2900    1.2190 c2        1 JPC     -0.427000
     19 C19        -0.4810    1.1090    1.2190 c1        1 JPC     -0.120000
     20 C20        -1.5610    1.1100   -2.6680 c1        1 JPC      0.388000
     21 O21        -2.7890    0.8350   -3.0370 o         1 JPC     -0.557000
     22 O22        -0.6260    1.0970   -3.5220 o         1 JPC     -0.557000
     23 C23        -1.6780    3.0370    2.3410 c1        1 JPC      0.047000
     24 C24        -0.8160    3.9740    2.8280 c1        1 JPC     -0.137500
     25 C25        -1.2070    4.8000    3.9170 c1        1 JPC     -0.137500
     26 C26        -2.4560    4.6560    4.4830 c1        1 JPC     -0.137500
     27 C27        -3.3540    3.6810    3.9790 c1        1 JPC     -0.137500
     28 C28        -2.9890    2.8860    2.9380 c1        1 JPC     -0.144000
     29 H2          2.1490   -1.6190   -0.8450 h1        1 JPC      0.089000
     30 H31         3.0900   -0.5490    0.9070 hc        1 JPC      0.081167
     31 H32         1.5880   -0.7130    1.4800 hc        1 JPC      0.081167
     32 H33         2.2170    0.6350    0.8210 hc        1 JPC      0.081167
     33 H41         2.4020    1.2010   -1.3740 hc        1 JPC      0.081167
     34 H42         3.3480    0.0220   -1.9890 hc        1 JPC      0.081167
     35 H43         1.8110    0.2720   -2.5640 hc        1 JPC      0.081167
     36 H8          0.4670   -2.4460   -3.7810 ha        1 JPC      0.231000
     37 H9          1.5120   -4.4150   -4.4650 ha        1 JPC      0.151000
     38 H11         1.5500   -5.9710   -0.7100 ha        1 JPC      0.148000
     39 H19         0.0060    0.7330    2.0250 DU        1 JPC      0.141000
     40 H24         0.0870    4.0780    2.4250 ha        1 JPC      0.121250
     41 H25        -0.5820    5.4780    4.2720 ha        1 JPC      0.121250
     42 H26        -2.7210    5.2150    5.2180 ha        1 JPC      0.121250
     43 H27        -4.1510    3.5890    4.3430 ha        1 JPC      0.121250
     44 H28        -3.6180    2.2060    2.5910 ha        1 JPC      0.138000
@<TRIPOS>BOND
     1    1    2 1   
     2    1    5 1   
     3    1   15 1   
     4    2    3 1   
     5    2    4 1   
     6    2   29 1   
     7    3   30 1   
     8    3   31 1   
     9    3   32 1   
    10    4   33 1   
    11    4   34 1   
    12    4   35 1   
    13    5    6 1   
    14    5    7 1   
    15    7    8 1   
    16    7   12 1   
    17    8   36 1   
    18    9   10 1   
    19    9   37 1   
    20   10   13 1   
    21   11   12 1   
    22   11   38 1   
    23   12   14 1   
    24   15   16 1   
    25   15   19 1   
    26   16   17 1   
    27   17   18 1   
    28   18   19 1   
    29   18   23 1   
    30   20   21 1   
    31   20   22 1   
    32   23   28 1   
    33   24   25 1   
    34   24   40 1   
    35   25   41 1   
    36   26   27 1   
    37   26   42 1   
    38   27   43 1   
    39   28   44 1   
@<TRIPOS>SUBSTRUCTURE
     1 JPC         1 TEMP              0 ****  ****    0 ROOT
