@<TRIPOS>MOLECULE
JPC
   44    46     1     0     0
SMALL
bcc


@<TRIPOS>ATOM
      1 N1         -2.1700   -0.3040   -0.4970 n         1 JPC     -0.322000
      2 C2         -3.5720    0.0560   -0.7370 c3        1 JPC      0.102700
      3 C3         -3.8010    0.7190   -2.0960 c3        1 JPC     -0.109600
      4 C4         -4.5140   -1.1400   -0.5890 c3        1 JPC     -0.109600
      5 C5         -1.4970   -1.1380   -1.3700 c         1 JPC      0.677700
      6 O6         -2.0890   -1.7830   -2.2640 o         1 JPC     -0.624100
      7 C7         -0.0180   -1.3390   -1.2050 ca        1 JPC     -0.101600
      8 C8          0.4310   -2.5350   -0.6350 ca        1 JPC     -0.089000
      9 C9          1.7920   -2.8080   -0.5360 ca        1 JPC     -0.141000
     10 C10         2.7120   -1.8730   -1.0200 ca        1 JPC      0.031400
     11 C11         2.2850   -0.6760   -1.5940 ca        1 JPC     -0.133000
     12 C12         0.9120   -0.4080   -1.6890 ca        1 JPC      0.052400
     13 CL13        4.3820   -2.2010   -0.9090 cl        1 JPC     -0.116400
     14 CL14        0.4070    1.0460   -2.3800 cl        1 JPC     -0.013400
     15 C15        -1.4950    0.3770    0.5380 cc        1 JPC     -0.041400
     16 C16        -1.4680    1.7580    0.7450 cd        1 JPC     -0.103700
     17 S17        -0.5980    2.1530    2.1010 ss        1 JPC      0.063200
     18 C18        -0.2140    0.5590    2.4920 cd        1 JPC     -0.144100
     19 C19        -0.7660   -0.3150    1.5710 cc        1 JPC     -0.128000
     20 C20        -2.1660    2.8170   -0.0950 c         1 JPC      0.930200
     21 O21        -1.5030    3.3840   -1.0010 o         1 JPC     -0.803800
     22 O22        -3.3720    3.0590    0.1850 o         1 JPC     -0.803800
     23 C23         0.5790    0.2000    3.6380 ca        1 JPC      0.046000
     24 C24         0.5550   -1.1050    4.1600 ca        1 JPC     -0.138500
     25 C25         1.3270   -1.4390    5.2690 ca        1 JPC     -0.127500
     26 C26         2.1330   -0.4800    5.8810 ca        1 JPC     -0.157000
     27 C27         2.1630    0.8200    5.3750 ca        1 JPC     -0.127500
     28 C28         1.3960    1.1590    4.2650 ca        1 JPC     -0.138500
     29 H2         -3.8440    0.8270    0.0550 h1        1 JPC      0.112700
     30 H31        -3.2280    1.6800   -2.1460 hc        1 JPC      0.042367
     31 H32        -3.4890    0.0500   -2.9320 hc        1 JPC      0.042367
     32 H33        -4.8880    0.9500   -2.2010 hc        1 JPC      0.042367
     33 H41        -4.4000   -1.6210    0.4110 hc        1 JPC      0.042367
     34 H42        -5.5650   -0.7770   -0.6910 hc        1 JPC      0.042367
     35 H43        -4.3150   -1.9010   -1.3820 hc        1 JPC      0.042367
     36 H8         -0.3050   -3.2660   -0.2670 ha        1 JPC      0.144000
     37 H9          2.1370   -3.7480   -0.0830 ha        1 JPC      0.140000
     38 H11         3.0150    0.0590   -1.9650 ha        1 JPC      0.156000
     39 H19        -0.6580   -1.4020    1.5940 ha        1 JPC      0.139000
     40 H24        -0.0840   -1.8650    3.6870 ha        1 JPC      0.134000
     41 H25         1.2980   -2.4640    5.6650 ha        1 JPC      0.119000
     42 H26         2.7400   -0.7460    6.7570 ha        1 JPC      0.117000
     43 H27         2.7970    1.5800    5.8530 ha        1 JPC      0.119000
     44 H28         1.4270    2.1850    3.8660 ha        1 JPC      0.134000
@<TRIPOS>BOND
     1    1    2 1   
     2    1    5 1   
     3    1   15 1   
     4    2    3 1   
     5    2    4 1   
     6    2   29 1   
     7    3   30 1   
     8    3   31 1   
     9    3   32 1   
    10    4   33 1   
    11    4   34 1   
    12    4   35 1   
    13    5    6 2   
    14    5    7 1   
    15    7    8 ar  
    16    7   12 ar  
    17    8    9 ar  
    18    8   36 1   
    19    9   10 ar  
    20    9   37 1   
    21   10   11 ar  
    22   10   13 1   
    23   11   12 ar  
    24   11   38 1   
    25   12   14 1   
    26   15   16 2   
    27   15   19 1   
    28   16   17 1   
    29   16   20 1   
    30   17   18 1   
    31   18   19 2   
    32   18   23 1   
    33   19   39 1   
    34   20   21 1   
    35   20   22 1   
    36   23   24 ar  
    37   23   28 ar  
    38   24   25 ar  
    39   24   40 1   
    40   25   26 ar  
    41   25   41 1   
    42   26   27 ar  
    43   26   42 1   
    44   27   28 ar  
    45   27   43 1   
    46   28   44 1   
@<TRIPOS>SUBSTRUCTURE
     1 JPC         1 TEMP              0 ****  ****    0 ROOT
