@<TRIPOS>MOLECULE
JPC
   44    46     1     0     0
SMALL
bcc


@<TRIPOS>ATOM
      1 N1          0.1950   -0.0910    0.1270 n         1 JPC     -0.322000
      2 C2          1.5740    0.0340    0.6130 c3        1 JPC      0.102700
      3 C3          1.6670    0.1790    2.1320 c3        1 JPC     -0.109600
      4 C4          2.4580   -1.1270    0.1570 c3        1 JPC     -0.109600
      5 C5         -0.6280   -1.1000    0.5900 c         1 JPC      0.677700
      6 O6         -0.1890   -2.0610    1.2620 o         1 JPC     -0.624100
      7 C7         -2.0830   -1.0940    0.2210 ca        1 JPC     -0.101600
      8 C8         -2.5230   -1.9810   -0.7660 ca        1 JPC     -0.089000
      9 C9         -3.8750   -2.0760   -1.0860 ca        1 JPC     -0.141000
     10 C10        -4.7950   -1.2740   -0.4040 ca        1 JPC      0.031400
     11 C11        -4.3770   -0.3830    0.5850 ca        1 JPC     -0.133000
     12 C12        -3.0140   -0.2950    0.9010 ca        1 JPC      0.052400
     13 Cl13       -6.4530   -1.3860   -0.7850 cl        1 JPC     -0.116400
     14 Cl14       -2.5190    0.7900    2.0950 cl        1 JPC     -0.013400
     15 C15        -0.3070    0.9580   -0.6730 cc        1 JPC     -0.041400
     16 C16        -0.2310    2.3250   -0.3950 cd        1 JPC     -0.103700
     17 S17        -0.9010    3.2310   -1.6120 ss        1 JPC      0.063200
     18 C18        -1.3220    1.9030   -2.5610 cd        1 JPC     -0.144100
     19 C19        -0.9380    0.7240   -1.9470 cc        1 JPC     -0.128000
     20 C20         0.4140    2.9700    0.8220 c         1 JPC      0.930200
     21 O21        -0.3240    3.2620    1.7970 o         1 JPC     -0.803300
     22 O22         1.6570    3.1770    0.7620 o         1 JPC     -0.803300
     23 C23        -1.9850    2.0260   -3.8340 ca        1 JPC      0.046000
     24 C24        -1.9680    0.9750   -4.7660 ca        1 JPC     -0.138500
     25 C25        -2.6120    1.1060   -5.9930 ca        1 JPC     -0.127500
     26 C26        -3.2810    2.2860   -6.3150 ca        1 JPC     -0.157000
     27 C27        -3.3020    3.3380   -5.3990 ca        1 JPC     -0.127500
     28 C28        -2.6620    3.2120   -4.1700 ca        1 JPC     -0.138500
     29 H2          1.9850    0.9960    0.1650 h1        1 JPC      0.112700
     30 H31         1.2160   -0.6980    2.6530 hc        1 JPC      0.042367
     31 H32         2.7430    0.2580    2.4170 hc        1 JPC      0.042367
     32 H33         1.1470    1.1190    2.4520 hc        1 JPC      0.042367
     33 H41         2.1200   -2.0870    0.6170 hc        1 JPC      0.042367
     34 H42         2.4430   -1.2330   -0.9530 hc        1 JPC      0.042367
     35 H43         3.5070   -0.9200    0.4800 hc        1 JPC      0.042367
     36 H8         -1.7890   -2.6140   -1.2880 ha        1 JPC      0.144000
     37 H9         -4.2120   -2.7730   -1.8660 ha        1 JPC      0.140000
     38 H11        -5.1060    0.2510    1.1120 ha        1 JPC      0.156000
     39 H19        -1.1030   -0.2770   -2.3520 ha        1 JPC      0.139000
     40 H24        -1.4360    0.0430   -4.5220 ha        1 JPC      0.134000
     41 H25        -2.5910    0.2740   -6.7120 ha        1 JPC      0.119000
     42 H26        -3.7890    2.3870   -7.2840 ha        1 JPC      0.117000
     43 H27        -3.8290    4.2710   -5.6470 ha        1 JPC      0.119000
     44 H28        -2.6860    4.0430   -3.4480 ha        1 JPC      0.134000
@<TRIPOS>BOND
     1    1    2 1   
     2    1    5 1   
     3    1   15 1   
     4    2    3 1   
     5    2    4 1   
     6    2   29 1   
     7    3   30 1   
     8    3   31 1   
     9    3   32 1   
    10    4   33 1   
    11    4   34 1   
    12    4   35 1   
    13    5    6 2   
    14    5    7 1   
    15    7    8 ar  
    16    7   12 ar  
    17    8    9 ar  
    18    8   36 1   
    19    9   10 ar  
    20    9   37 1   
    21   10   11 ar  
    22   10   13 1   
    23   11   12 ar  
    24   11   38 1   
    25   12   14 1   
    26   15   16 2   
    27   15   19 1   
    28   16   17 1   
    29   16   20 1   
    30   17   18 1   
    31   18   19 2   
    32   18   23 1   
    33   19   39 1   
    34   20   21 1   
    35   20   22 1   
    36   23   24 ar  
    37   23   28 ar  
    38   24   25 ar  
    39   24   40 1   
    40   25   26 ar  
    41   25   41 1   
    42   26   27 ar  
    43   26   42 1   
    44   27   28 ar  
    45   27   43 1   
    46   28   44 1   
@<TRIPOS>SUBSTRUCTURE
     1 JPC         1 TEMP              0 ****  ****    0 ROOT
