@<TRIPOS>MOLECULE
JPC
   45    47     1     0     0
SMALL
bcc


@<TRIPOS>ATOM
      1 N1          0.6260   -0.6380   -0.4500 nh        1 JPC     -0.700600
      2 C2          1.8300   -0.2860    0.3040 c3        1 JPC      0.183500
      3 C3          2.2320   -1.4300    1.2370 c3        1 JPC     -0.114100
      4 C4          3.0250    0.0860   -0.5740 c3        1 JPC     -0.114100
      5 C5         -1.3140   -0.1320    1.9900 c         1 JPC      0.685700
      6 O6         -0.8170   -1.0570    2.6260 o         1 JPC     -0.458000
      7 C7         -2.6660   -0.1050    1.3960 ca        1 JPC     -0.151600
      8 C8         -2.9670   -1.0470    0.4040 ca        1 JPC     -0.061000
      9 C9         -4.2380   -1.1020   -0.1610 ca        1 JPC     -0.134000
     10 C10        -5.2250   -0.2140    0.2800 ca        1 JPC      0.044400
     11 C11        -4.9490    0.7180    1.2840 ca        1 JPC     -0.133000
     12 C12        -3.6670    0.7690    1.8450 ca        1 JPC      0.055400
     13 CL13       -6.7770   -0.2710   -0.4030 cl        1 JPC     -0.073400
     14 CL14       -3.3680    1.8890    3.0800 cl        1 JPC     -0.046400
     15 C15        -0.0960    0.3790   -1.0720 cc        1 JPC      0.166600
     16 C16        -0.6570    1.5090   -0.4530 cd        1 JPC     -0.280700
     17 S17        -1.5300    2.4390   -1.5410 ss        1 JPC      0.134200
     18 C18        -1.2760    1.4030   -2.8230 cd        1 JPC     -0.027100
     19 C19        -0.4790    0.3310   -2.4630 cc        1 JPC     -0.217000
     20 C20        -0.5130    1.9160    0.9290 c         1 JPC      0.704700
     21 O21        -0.3210    3.0490    1.3670 o         1 JPC     -0.464000
     22 O22        -0.4840    0.9710    1.9490 os        1 JPC     -0.453200
     23 C23        -1.8240    1.6390   -4.1400 ca        1 JPC     -0.026000
     24 C24        -1.1550    1.1790   -5.2840 ca        1 JPC     -0.113000
     25 C25        -1.6880    1.4110   -6.5500 ca        1 JPC     -0.127000
     26 C26        -2.8900    2.1030   -6.6900 ca        1 JPC     -0.118000
     27 C27        -3.5610    2.5650   -5.5580 ca        1 JPC     -0.127000
     28 C28        -3.0340    2.3360   -4.2890 ca        1 JPC     -0.113000
     29 H2          1.5740    0.6100    0.9480 h1        1 JPC      0.080700
     30 H31         2.4960   -2.3480    0.6600 hc        1 JPC      0.046200
     31 H32         1.3990   -1.6680    1.9440 hc        1 JPC      0.046200
     32 H33         3.1230   -1.1100    1.8280 hc        1 JPC      0.046200
     33 H41         2.7740    0.9370   -1.2520 hc        1 JPC      0.046200
     34 H42         3.8770    0.3930    0.0790 hc        1 JPC      0.046200
     35 H43         3.3520   -0.7830   -1.1950 hc        1 JPC      0.046200
     36 H8         -2.1830   -1.7470    0.0720 ha        1 JPC      0.163000
     37 H9         -4.4620   -1.8420   -0.9440 ha        1 JPC      0.158000
     38 H11        -5.7340    1.4060    1.6380 ha        1 JPC      0.168000
     39 H19        -0.1740   -0.4720   -3.1390 ha        1 JPC      0.160000
     40 H24        -0.2020    0.6380   -5.1780 ha        1 JPC      0.136500
     41 H25        -1.1550    1.0480   -7.4420 ha        1 JPC      0.137000
     42 H26        -3.3090    2.2850   -7.6910 ha        1 JPC      0.136000
     43 H27        -4.5110    3.1110   -5.6640 ha        1 JPC      0.137000
     44 H28        -3.5700    2.6980   -3.3980 ha        1 JPC      0.136500
     45 H111        0.8100   -1.3970   -1.0800 hn        1 JPC      0.387800
@<TRIPOS>BOND
     1    1    2 1   
     2    1   15 1   
     3    1   45 1   
     4    2    3 1   
     5    2    4 1   
     6    2   29 1   
     7    3   30 1   
     8    3   31 1   
     9    3   32 1   
    10    4   33 1   
    11    4   34 1   
    12    4   35 1   
    13    5    6 2   
    14    5    7 1   
    15    5   22 1   
    16    7    8 ar  
    17    7   12 ar  
    18    8    9 ar  
    19    8   36 1   
    20    9   10 ar  
    21    9   37 1   
    22   10   11 ar  
    23   10   13 1   
    24   11   12 ar  
    25   11   38 1   
    26   12   14 1   
    27   15   16 2   
    28   15   19 1   
    29   16   17 1   
    30   16   20 1   
    31   17   18 1   
    32   18   19 2   
    33   18   23 1   
    34   19   39 1   
    35   20   21 2   
    36   20   22 1   
    37   23   24 ar  
    38   23   28 ar  
    39   24   25 ar  
    40   24   40 1   
    41   25   26 ar  
    42   25   41 1   
    43   26   27 ar  
    44   26   42 1   
    45   27   28 ar  
    46   27   43 1   
    47   28   44 1   
@<TRIPOS>SUBSTRUCTURE
     1 JPC         1 TEMP              0 ****  ****    0 ROOT
