@<TRIPOS>MOLECULE
JPJ
   40    42     1     0     0
SMALL
bcc


@<TRIPOS>ATOM
      1 Cl20        0.2050   -1.3460   -0.2850 cl        1 JPJ     -0.060400
      2 C15         1.7510   -0.6710   -0.1110 ca        1 JPJ      0.000400
      3 C16         2.4540   -0.9030    1.0750 ca        1 JPJ     -0.099000
      4 C17         3.7290   -0.3580    1.2480 ca        1 JPJ     -0.002600
      5 Cl21        4.5710   -0.6440    2.6960 cl        1 JPJ     -0.082400
      6 C22         4.3170    0.4180    0.2440 ca        1 JPJ     -0.094000
      7 C19         3.6260    0.6490   -0.9400 ca        1 JPJ     -0.168000
      8 C14         2.3470    0.1080   -1.1230 ca        1 JPJ      0.117100
      9 O13         1.6260    0.2580   -2.3020 os        1 JPJ     -0.244200
     10 C2          2.0210    1.3060   -3.1360 ca        1 JPJ     -0.011900
     11 C1          2.4190    0.9650   -4.4430 ca        1 JPJ      0.138100
     12 O22         2.5380   -0.3310   -4.8730 oh        1 JPJ     -0.489100
     13 C3          1.8990    2.6470   -2.7570 ca        1 JPJ     -0.101000
     14 C4          2.1840    3.6440   -3.6830 ca        1 JPJ     -0.155000
     15 C5          2.5870    3.3170   -4.9870 ca        1 JPJ     -0.043300
     16 C6          2.7020    1.9810   -5.3700 ca        1 JPJ     -0.152000
     17 C7          2.8770    4.4020   -5.9650 c3        1 JPJ     -0.039100
     18 C18         4.1920    5.1000   -5.6500 c3        1 JPJ     -0.033100
     19 C28         4.4790    6.1850   -6.6280 ca        1 JPJ     -0.082300
     20 C27         4.9130    5.8690   -7.9210 ca        1 JPJ     -0.126500
     21 C26         5.1910    6.8820   -8.8370 ca        1 JPJ     -0.127500
     22 C25         5.0390    8.2190   -8.4690 ca        1 JPJ     -0.130000
     23 C24         4.6080    8.5400   -7.1820 ca        1 JPJ     -0.127500
     24 C23         4.3290    7.5270   -6.2650 ca        1 JPJ     -0.126500
     25 H16         1.9980   -1.5130    1.8710 ha        1 JPJ      0.165000
     26 H22         5.3230    0.8430    0.3850 ha        1 JPJ      0.155000
     27 H19         4.0790    1.2600   -1.7360 ha        1 JPJ      0.159000
     28 HO22        2.2710   -0.9140   -4.1440 ho        1 JPJ      0.439000
     29 H3          1.5780    2.8960   -1.7350 ha        1 JPJ      0.150000
     30 H4          2.0900    4.7010   -3.3930 ha        1 JPJ      0.140000
     31 H6          3.0080    1.7030   -6.3890 ha        1 JPJ      0.156000
     32 H71         2.0420    5.1540   -5.9420 hc        1 JPJ      0.057700
     33 H72         2.9210    3.9850   -7.0070 hc        1 JPJ      0.057700
     34 H181        4.1480    5.5180   -4.6090 hc        1 JPJ      0.052200
     35 H182        5.0260    4.3480   -5.6730 hc        1 JPJ      0.052200
     36 H27         5.0350    4.8150   -8.2110 ha        1 JPJ      0.130500
     37 H26         5.5330    6.6250   -9.8500 ha        1 JPJ      0.131500
     38 H25         5.2590    9.0180   -9.1920 ha        1 JPJ      0.132000
     39 H24         4.4880    9.5930   -6.8890 ha        1 JPJ      0.131500
     40 H23         3.9900    7.7860   -5.2500 ha        1 JPJ      0.130500
@<TRIPOS>BOND
     1    1    2 1   
     2    2    3 ar  
     3    2    8 ar  
     4    3    4 ar  
     5    3   25 1   
     6    4    5 1   
     7    4    6 ar  
     8    6    7 ar  
     9    6   26 1   
    10    7    8 ar  
    11    7   27 1   
    12    8    9 1   
    13    9   10 1   
    14   10   11 ar  
    15   10   13 ar  
    16   11   12 1   
    17   11   16 ar  
    18   12   28 1   
    19   13   14 ar  
    20   13   29 1   
    21   14   15 ar  
    22   14   30 1   
    23   15   16 ar  
    24   15   17 1   
    25   16   31 1   
    26   17   18 1   
    27   17   32 1   
    28   17   33 1   
    29   18   19 1   
    30   18   34 1   
    31   18   35 1   
    32   19   20 ar  
    33   19   24 ar  
    34   20   21 ar  
    35   20   36 1   
    36   21   22 ar  
    37   21   37 1   
    38   22   23 ar  
    39   22   38 1   
    40   23   24 ar  
    41   23   39 1   
    42   24   40 1   
@<TRIPOS>SUBSTRUCTURE
     1 JPJ         1 TEMP              0 ****  ****    0 ROOT
