@<TRIPOS>MOLECULE
JPJ
   40    42     1     0     0
SMALL
bcc


@<TRIPOS>ATOM
      1 CL20       -6.1230   -4.9290    1.8160 cl        1 JPJ     -0.060400
      2 C15        -5.8860   -3.2850    2.1560 ca        1 JPJ      0.000400
      3 C16        -6.8400   -2.3640    1.7140 ca        1 JPJ     -0.099000
      4 C17        -6.6710   -1.0020    1.9780 ca        1 JPJ     -0.002600
      5 CL21       -7.8360    0.1070    1.4320 cl        1 JPJ     -0.082400
      6 C22        -5.5540   -0.5450    2.6850 ca        1 JPJ     -0.094000
      7 C19        -4.6020   -1.4550    3.1320 ca        1 JPJ     -0.168000
      8 C14        -4.7630   -2.8220    2.8720 ca        1 JPJ      0.117100
      9 O13        -3.8760   -3.7880    3.3350 os        1 JPJ     -0.244200
     10 C2         -2.6080   -3.3340    3.7000 ca        1 JPJ     -0.011900
     11 C1         -2.2030   -3.5720    5.0280 ca        1 JPJ      0.138100
     12 O22        -3.0320   -4.1150    5.9750 oh        1 JPJ     -0.489100
     13 C3         -1.7130   -2.7950    2.7700 ca        1 JPJ     -0.101000
     14 C4         -0.4190   -2.4850    3.1720 ca        1 JPJ     -0.155000
     15 C5         -0.0040   -2.7130    4.4930 ca        1 JPJ     -0.043300
     16 C6         -0.8920   -3.2580    5.4210 ca        1 JPJ     -0.152000
     17 C7          1.3910   -2.3840    4.8990 c3        1 JPJ     -0.039100
     18 C18         1.5990   -0.8810    5.0110 c3        1 JPJ     -0.033100
     19 C28         2.9940   -0.5550    5.4130 ca        1 JPJ     -0.082300
     20 C27         3.4080   -0.7510    6.7360 ca        1 JPJ     -0.126500
     21 C26         4.7110   -0.4380    7.1200 ca        1 JPJ     -0.127500
     22 C25         5.6110    0.0740    6.1850 ca        1 JPJ     -0.130000
     23 C24         5.2040    0.2720    4.8660 ca        1 JPJ     -0.127500
     24 C23         3.9010   -0.0400    4.4810 ca        1 JPJ     -0.126500
     25 H16        -7.7230   -2.7160    1.1560 ha        1 JPJ      0.165000
     26 H22        -5.4260    0.5290    2.8920 ha        1 JPJ      0.155000
     27 H19        -3.7190   -1.1050    3.6880 ha        1 JPJ      0.159000
     28 HO22       -3.8810   -4.3170    5.5500 ho        1 JPJ      0.439000
     29 H3         -2.0430   -2.6230    1.7350 ha        1 JPJ      0.150000
     30 H4          0.2920   -2.0620    2.4460 ha        1 JPJ      0.140000
     31 H6         -0.5860   -3.4520    6.4600 ha        1 JPJ      0.156000
     32 H71         1.6330   -2.8650    5.8840 hc        1 JPJ      0.057700
     33 H72         2.1050   -2.8030    4.1390 hc        1 JPJ      0.057700
     34 H181        0.8840   -0.4630    5.7700 hc        1 JPJ      0.052200
     35 H182        1.3560   -0.4010    4.0250 hc        1 JPJ      0.052200
     36 H27         2.6980   -1.1530    7.4740 ha        1 JPJ      0.130500
     37 H26         5.0280   -0.5950    8.1610 ha        1 JPJ      0.131500
     38 H25         6.6390    0.3210    6.4880 ha        1 JPJ      0.132000
     39 H24         5.9120    0.6770    4.1270 ha        1 JPJ      0.131500
     40 H23         3.5850    0.1200    3.4390 ha        1 JPJ      0.130500
@<TRIPOS>BOND
     1    1    2 1   
     2    2    3 ar  
     3    2    8 ar  
     4    3    4 ar  
     5    3   25 1   
     6    4    5 1   
     7    4    6 ar  
     8    6    7 ar  
     9    6   26 1   
    10    7    8 ar  
    11    7   27 1   
    12    8    9 1   
    13    9   10 1   
    14   10   11 ar  
    15   10   13 ar  
    16   11   12 1   
    17   11   16 ar  
    18   12   28 1   
    19   13   14 ar  
    20   13   29 1   
    21   14   15 ar  
    22   14   30 1   
    23   15   16 ar  
    24   15   17 1   
    25   16   31 1   
    26   17   18 1   
    27   17   32 1   
    28   17   33 1   
    29   18   19 1   
    30   18   34 1   
    31   18   35 1   
    32   19   20 ar  
    33   19   24 ar  
    34   20   21 ar  
    35   20   36 1   
    36   21   22 ar  
    37   21   37 1   
    38   22   23 ar  
    39   22   38 1   
    40   23   24 ar  
    41   23   39 1   
    42   24   40 1   
@<TRIPOS>SUBSTRUCTURE
     1 JPJ         1 TEMP              0 ****  ****    0 ROOT
