@<TRIPOS>MOLECULE
JPL
   43    41     1     0     0
SMALL
bcc


@<TRIPOS>ATOM
      1 C2          0.5230    0.1910    0.0810 ca        1 JPL      0.015000
      2 C3          1.8750    0.4470    0.3950 ca        1 JPL      0.086000
      3 C4          2.2690    0.6030    1.7330 ca        1 JPL     -0.144000
      4 C5          1.3220    0.5110    2.7450 ca        1 JPL     -0.089000
      5 C7          3.2950    0.9110   -2.8580 ca        1 JPL     -0.061000
      6 C8          2.7890    1.3140   -1.6070 ca        1 JPL      0.080000
      7 C9          2.2970    2.6130   -1.4220 ca        1 JPL     -0.154000
      8 C10         2.3090    3.5170   -2.4780 ca        1 JPL     -0.100000
      9 C11         2.8180    3.1210   -3.7200 ca        1 JPL     -0.073000
     10 C12         3.3110    1.8290   -3.9130 ca        1 JPL     -0.104000
     11 C15        -1.3110    3.4800    9.1460 c1        1 JPL     -0.238500
     12 C16        -3.2600    3.4800    1.8460 c3        1 JPL     -0.220000
     13 C19        -2.0420    0.9870    5.5000 c1        1 JPL     -0.043000
     14 O2          0.1980    0.0430   -1.2470 oh        1 JPL     -0.237000
     15 C1         -0.4210    0.0980    1.1090 ca        1 JPL     -0.081000
     16 C6         -0.0340    0.2600    2.4540 ca        1 JPL     -0.133000
     17 C13        -0.8890    0.3770    4.8440 c3        1 JPL     -0.283000
     18 C14        -1.5490    2.7800    8.2050 c1        1 JPL     -0.238500
     19 C17        -3.7390    2.2060    2.4780 c3        1 JPL     -0.220000
     20 O1          2.8910    0.4110   -0.5520 os        1 JPL     -0.139000
     21 Cl5         2.8370    4.2240   -5.0120 cl        1 JPL     -0.004000
     22 H1          1.6430    0.6330    3.7920 ha        1 JPL      0.143000
     23 H2          3.3300    0.7860    1.9590 ha        1 JPL      0.161000
     24 H3          1.8990    2.9090   -0.4400 ha        1 JPL      0.152000
     25 H4          1.9230    4.5370   -2.3330 ha        1 JPL      0.154000
     26 H5          3.7080    1.5260   -4.8960 ha        1 JPL      0.165000
     27 H6         -2.8240    3.2830    0.8370 hc        1 JPL      0.073167
     28 H7         -2.4750    3.9620    2.4780 hc        1 JPL      0.073167
     29 H8         -4.1030    4.2030    1.7260 hc        1 JPL      0.073167
     30 H9         -1.1020    4.0990    9.9800 ha        1 JPL      0.232500
     31 H12        -3.0000    0.9160    4.9580 ha        1 JPL      0.061000
     32 H13        -1.7710    3.1480    5.1300 ha        1 JPL      0.013000
     33 H14        -0.7550   -0.1230   -1.3020 ho        1 JPL      0.227000
     34 H15        -1.4800   -0.1080    0.8800 ha        1 JPL      0.163000
     35 H16        -2.0120    3.0240    4.5030 ha        1 JPL      0.013000
     36 H17        -1.7630    2.1530    7.3620 ha        1 JPL      0.232500
     37 H18        -4.1670    2.4050    3.4900 hc        1 JPL      0.073167
     38 H19         0.0420    0.9450    5.1360 hc        1 JPL      0.150500
     39 H20        -4.5310    1.7280    1.8520 hc        1 JPL      0.073167
     40 C18        -1.0660    0.1220    3.4240 c1        1 JPL     -0.096000
     41 Cl1         3.8960   -0.6510   -3.1260 cl        1 JPL      0.022000
     42 H10        -0.8030   -0.6470    5.3430 hc        1 JPL      0.150500
     43 H11        -2.8970    1.4740    2.5950 hc        1 JPL      0.073167
@<TRIPOS>BOND
     1    1    2 1   
     2    1   14 1   
     3    1   15 1   
     4    2    3 1   
     5    2   20 1   
     6    3    4 1   
     7    3   23 1   
     8    4   16 1   
     9    4   22 1   
    10    5    6 1   
    11    5   10 1   
    12    5   41 1   
    13    6    7 1   
    14    6   20 1   
    15    7    8 1   
    16    7   24 1   
    17    8    9 1   
    18    8   25 1   
    19    9   10 1   
    20    9   21 1   
    21   10   26 1   
    22   11   18 1   
    23   11   30 1   
    24   12   19 1   
    25   12   27 1   
    26   12   28 1   
    27   12   29 1   
    28   13   17 1   
    29   13   31 1   
    30   14   33 1   
    31   15   16 1   
    32   15   34 1   
    33   16   40 1   
    34   17   38 1   
    35   17   40 1   
    36   17   42 1   
    37   18   36 1   
    38   19   37 1   
    39   19   39 1   
    40   19   43 1   
    41   32   35 1   
@<TRIPOS>SUBSTRUCTURE
     1 JPL         1 TEMP              0 ****  ****    0 ROOT
