@<TRIPOS>MOLECULE
JPL
   39    41     1     0     0
SMALL
bcc


@<TRIPOS>ATOM
      1 C2         -0.6400   -1.5300   -1.3780 ca        1 JPL      0.138100
      2 C3          0.1610   -1.4400   -0.2230 ca        1 JPL     -0.012900
      3 C4         -0.4230   -1.3770    1.0450 ca        1 JPL     -0.101000
      4 C5         -1.8090   -1.3920    1.1570 ca        1 JPL     -0.155000
      5 C7          3.6850   -0.6980    0.1850 ca        1 JPL      0.000400
      6 C8          2.3060   -0.4710    0.0050 ca        1 JPL      0.117100
      7 C9          1.7690    0.8100    0.1840 ca        1 JPL     -0.168000
      8 C10         2.5990    1.8690    0.5400 ca        1 JPL     -0.094000
      9 C11         3.9680    1.6460    0.7160 ca        1 JPL     -0.002600
     10 C12         4.5130    0.3720    0.5390 ca        1 JPL     -0.099000
     11 C15        -6.1750    2.3400    0.0990 c3        1 JPL     -0.047200
     12 C16        -5.1580    1.9750    1.1150 c2        1 JPL     -0.156200
     13 C19        -5.4790    0.1970   -1.0440 c2        1 JPL     -0.151200
     14 O2         -0.1200   -1.6160   -2.6440 oh        1 JPL     -0.489100
     15 C1         -2.0380   -1.5470   -1.2530 ca        1 JPL     -0.148000
     16 C6         -2.6190   -1.4730    0.0140 ca        1 JPL     -0.034300
     17 C13        -4.7170   -0.1470    0.0120 ce        1 JPL     -0.087200
     18 C14        -6.0810    1.5430   -1.1920 c3        1 JPL     -0.045200
     19 C17        -4.4910    0.8110    1.0830 ce        1 JPL     -0.134000
     20 O1          1.5410   -1.5600   -0.4000 os        1 JPL     -0.244200
     21 CL5         4.9840    2.9370    1.1490 cl        1 JPL     -0.083400
     22 H4          0.2170   -1.3170    1.9370 ha        1 JPL      0.150000
     23 H5         -2.2750   -1.3430    2.1530 ha        1 JPL      0.139000
     24 H9          0.6890    0.9750    0.0450 ha        1 JPL      0.161000
     25 H10         2.1750    2.8750    0.6790 ha        1 JPL      0.155000
     26 H12         5.5930    0.2050    0.6790 ha        1 JPL      0.164000
     27 H15        -7.1910    2.1890    0.5600 hc        1 JPL      0.049200
     28 H15A       -6.0880    3.4340   -0.1410 hc        1 JPL      0.049200
     29 H16        -5.0020    2.7060    1.9230 ha        1 JPL      0.124000
     30 H18        -4.5340   -2.1930   -0.6250 hc        1 JPL      0.058700
     31 H18A       -4.3810   -1.9190    1.1580 hc        1 JPL      0.058700
     32 H19        -5.6630   -0.5030   -1.8730 ha        1 JPL      0.125000
     33 HO2         0.8490   -1.6310   -2.5680 ho        1 JPL      0.438000
     34 H1         -2.6560   -1.6160   -2.1590 ha        1 JPL      0.157000
     35 H14        -7.1100    1.4440   -1.6330 hc        1 JPL      0.050200
     36 H14A       -5.4620    2.1140   -1.9390 hc        1 JPL      0.050200
     37 H17        -3.7520    0.5380    1.8510 ha        1 JPL      0.129000
     38 C18        -4.1060   -1.5000    0.1510 c3        1 JPL      0.002100
     39 CL1         4.3810   -2.2310   -0.0190 cl        1 JPL     -0.060400
@<TRIPOS>BOND
     1    1    2 ar  
     2    1   14 1   
     3    1   15 ar  
     4    2    3 ar  
     5    2   20 1   
     6    3    4 ar  
     7    3   22 1   
     8    4   16 ar  
     9    4   23 1   
    10    5    6 ar  
    11    5   10 ar  
    12    5   39 1   
    13    6    7 ar  
    14    6   20 1   
    15    7    8 ar  
    16    7   24 1   
    17    8    9 ar  
    18    8   25 1   
    19    9   10 ar  
    20    9   21 1   
    21   10   26 1   
    22   11   12 1   
    23   11   18 1   
    24   11   27 1   
    25   11   28 1   
    26   12   19 2   
    27   12   29 1   
    28   13   17 2   
    29   13   18 1   
    30   13   32 1   
    31   14   33 1   
    32   15   16 ar  
    33   15   34 1   
    34   16   38 1   
    35   17   19 1   
    36   17   38 1   
    37   18   35 1   
    38   18   36 1   
    39   19   37 1   
    40   30   38 1   
    41   31   38 1   
@<TRIPOS>SUBSTRUCTURE
     1 JPL         1 TEMP              0 ****  ****    0 ROOT
