@<TRIPOS>MOLECULE
JPL
   39    34     1     0     0
SMALL
bcc


@<TRIPOS>ATOM
      1 C2         -0.3730   -0.6590   -1.8440 c1        1 JPL      0.090000
      2 C3          1.0140   -0.6360   -1.9350 c1        1 JPL     -0.039000
      3 C4          1.7850   -0.6520   -0.7820 c1        1 JPL     -0.124500
      4 C5          1.1700   -0.6900    0.4650 c1        1 JPL     -0.124500
      5 C7          1.7680    1.6420   -3.8830 c1        1 JPL     -0.065000
      6 C8          2.3890    0.4990   -3.4030 c1        1 JPL      0.050000
      7 C9          3.7600    0.4940   -3.1870 c1        1 JPL     -0.124500
      8 C10         4.5070    1.6320   -3.4510 c1        1 JPL     -0.124500
      9 C11         3.8850    2.7740   -3.9310 c1        1 JPL     -0.058000
     10 C12         2.5160    2.7790   -4.1470 c1        1 JPL     -0.114000
     11 C15        -4.1450   -0.6890    4.0350 c3        1 JPL     -0.130000
     12 C16        -3.4380    0.6240    3.9450 c2        1 JPL     -0.152000
     13 C18        -0.1220   -0.6090    2.0690 c3        1 JPL     -0.086000
     14 C19        -2.1410   -1.9230    3.1240 c1        1 JPL     -0.150000
     15 O2         -1.1510   -0.6910   -3.0080 o         1 JPL     -0.245000
     16 C1         -0.9880   -0.6980   -0.5980 c2        1 JPL     -0.142000
     17 C6         -0.2170   -0.7130    0.5560 c1        1 JPL     -0.036000
     18 C13        -1.5210   -0.6150    2.6670 c2        1 JPL     -0.081000
     19 C14        -3.1870   -1.8790    4.1920 c2        1 JPL     -0.127000
     20 C17        -2.1410    0.6920    3.1620 c2        1 JPL     -0.131000
     21 O1          1.6400   -0.6820   -3.2040 os        1 JPL     -0.171000
     22 CL1         0.0610    1.6260   -4.2210 cl        1 JPL      0.016000
     23 CL5         4.8390    4.1760   -4.3500 cl        1 JPL     -0.000000
     24 H4          2.7580   -0.6350   -0.8450 ha        1 JPL      0.148250
     25 H5          1.7110   -0.7010    1.2750 ha        1 JPL      0.148250
     26 H9          4.1950   -0.3060   -2.8510 ha        1 JPL      0.148250
     27 H10         5.4710    1.6280   -3.2990 ha        1 JPL      0.148250
     28 H12         2.0770    3.5850   -4.4860 ha        1 JPL      0.166000
     29 H15        -4.8800   -0.6290    4.6850 hc        1 JPL      0.088500
     30 H15A       -4.6550   -0.8530    3.2130 hc        1 JPL      0.088500
     31 H16        -3.9020    1.4480    4.1960 ha        1 JPL      0.124000
     32 H18         0.3320    0.2240    2.3100 hc        1 JPL      0.095500
     33 H18A        0.3840   -1.3700    2.4170 hc        1 JPL      0.095500
     34 H19        -1.7190   -2.7710    2.8900 ha        1 JPL      0.124000
     35 HO2        -1.3320   -1.5350   -3.2200 ho        1 JPL      0.236000
     36 H1         -1.9610   -0.7140   -0.5350 ha        1 JPL      0.155000
     37 H14        -2.8020   -2.0460    5.0720 ha        1 JPL      0.088000
     38 H14A       -3.7580   -2.6730    4.1070 ha        1 JPL      0.088000
     39 H17        -1.8310    1.5480    2.8020 ha        1 JPL      0.128000
@<TRIPOS>BOND
     1    1    2 1   
     2    1   16 1   
     3    2   21 1   
     4    3    4 1   
     5    3   24 1   
     6    4   25 1   
     7    5    6 1   
     8    5   22 1   
     9    6   21 1   
    10    7    8 1   
    11    7   26 1   
    12    8   27 1   
    13    9   10 1   
    14    9   23 1   
    15   10   28 1   
    16   11   12 1   
    17   11   19 1   
    18   11   29 1   
    19   11   30 1   
    20   12   20 1   
    21   12   31 1   
    22   13   17 1   
    23   13   18 1   
    24   13   32 1   
    25   13   33 1   
    26   14   18 1   
    27   14   34 1   
    28   15   35 1   
    29   16   17 1   
    30   16   36 1   
    31   18   20 1   
    32   19   37 1   
    33   19   38 1   
    34   20   39 1   
@<TRIPOS>SUBSTRUCTURE
     1 JPL         1 TEMP              0 ****  ****    0 ROOT
