@<TRIPOS>MOLECULE
JPL
   39    38     1     0     0
SMALL
bcc


@<TRIPOS>ATOM
      1 C2         -0.0220   -0.0740    0.4760 ca        1 JPL      0.088000
      2 C3          1.3170    0.3560    0.3600 ca        1 JPL      0.005000
      3 C4          2.0260    0.7500    1.5000 ca        1 JPL     -0.091000
      4 C5          1.4070    0.7180    2.7460 ca        1 JPL     -0.159000
      5 C7          2.4230    1.1400   -3.0130 ca        1 JPL     -0.077000
      6 C8          1.8820    1.3190   -1.7230 ca        1 JPL      0.089000
      7 C9          1.2970    2.5410   -1.3660 ca        1 JPL     -0.177000
      8 C10         1.2470    3.5850   -2.2840 ca        1 JPL     -0.092000
      9 C11         1.7850    3.4090   -3.5620 ca        1 JPL     -0.086000
     10 C12         2.3710    2.1950   -3.9290 ca        1 JPL     -0.096000
     11 C15        -3.9050    3.6960    4.8670 c1        1 JPL      0.206000
     12 C16        -1.4140    1.5330    7.3380 c1        1 JPL     -0.166000
     13 C19        -1.8850    2.3480    3.9520 c2        1 JPL      0.176000
     14 O2         -0.6690   -0.4440   -0.6740 oh        1 JPL     -0.226000
     15 C1         -0.6370   -0.0990    1.7360 ca        1 JPL     -0.211000
     16 C6          0.0760    0.2980    2.8700 ca        1 JPL     -0.046000
     17 C13        -0.8430    1.6560    4.7710 c3        1 JPL     -0.005000
     18 C14        -2.9070    3.0310    4.4240 c1        1 JPL     -0.566000
     19 C17        -1.1620    1.5850    6.1700 c1        1 JPL     -0.185000
     20 O1          1.9940    0.2420   -0.8510 os        1 JPL     -0.129000
     21 CL5         1.7270    4.6830   -4.6850 cl        1 JPL     -0.007000
     22 H4          1.9700    1.0180    3.6430 ha        1 JPL      0.144000
     23 H5          3.0750    1.0690    1.3990 ha        1 JPL      0.158000
     24 H9          0.8720    2.6740   -0.3580 ha        1 JPL      0.151000
     25 H10         0.7850    4.5430   -2.0000 ha        1 JPL      0.152000
     26 H12         2.7910    2.0630   -4.9390 ha        1 JPL      0.163000
     27 H15         1.5540    3.9640    3.5900 ha        1 JPL      0.000750
     28 H15A        1.6340    3.3370    3.3450 ha        1 JPL      0.000750
     29 H16        -1.6420    1.4910    8.3730 ha        1 JPL      0.229000
     30 H18        -1.5310   -0.3220    4.1680 hc        1 JPL      0.110000
     31 H18A        0.1110   -0.2870    4.9270 hc        1 JPL      0.110000
     32 H19        -1.7160    2.2600    2.8560 ha        1 JPL      0.132000
     33 HO2        -1.5540   -0.7600   -0.4330 ho        1 JPL      0.224000
     34 H1         -1.6790   -0.4420    1.8260 ha        1 JPL      0.143000
     35 H14        -0.4910    3.8060    1.2060 ha        1 JPL      0.000750
     36 H14A       -0.0680    3.7540    1.7330 ha        1 JPL      0.000750
     37 H17         0.1070    2.2740    4.6530 hc        1 JPL      0.138000
     38 C18        -0.5680    0.2520    4.2120 c3        1 JPL     -0.121000
     39 CL1         3.1410   -0.3190   -3.4960 cl        1 JPL      0.018000
@<TRIPOS>BOND
     1    1    2 1   
     2    1   14 1   
     3    1   15 1   
     4    2    3 1   
     5    2   20 1   
     6    3    4 1   
     7    3   23 1   
     8    4   16 1   
     9    4   22 1   
    10    5    6 1   
    11    5   10 1   
    12    5   39 1   
    13    6    7 1   
    14    6   20 1   
    15    7    8 1   
    16    7   24 1   
    17    8    9 1   
    18    8   25 1   
    19    9   10 1   
    20    9   21 1   
    21   10   26 1   
    22   11   18 1   
    23   12   19 1   
    24   12   29 1   
    25   13   17 1   
    26   13   18 1   
    27   13   32 1   
    28   14   33 1   
    29   15   16 1   
    30   15   34 1   
    31   16   38 1   
    32   17   19 1   
    33   17   37 1   
    34   17   38 1   
    35   27   28 1   
    36   30   38 1   
    37   31   38 1   
    38   35   36 1   
@<TRIPOS>SUBSTRUCTURE
     1 JPL         1 TEMP              0 ****  ****    0 ROOT
