@<TRIPOS>MOLECULE
JPM
   37    39     1     0     0
SMALL
bcc


@<TRIPOS>ATOM
      1 C2         -0.6200   -1.9640   -1.2110 ca        1 JPM      0.138100
      2 C3          0.0700   -1.4870   -0.0800 ca        1 JPM     -0.011900
      3 C4         -0.6310   -0.9790    1.0180 ca        1 JPM     -0.101000
      4 C5         -2.0200   -0.9420    0.9810 ca        1 JPM     -0.149000
      5 C7          3.5760   -0.6990    0.4130 ca        1 JPM      0.000400
      6 C8          2.2260   -0.5220    0.0470 ca        1 JPM      0.117100
      7 C9          1.7300    0.7580   -0.2330 ca        1 JPM     -0.168000
      8 C10         2.5720    1.8630   -0.1540 ca        1 JPM     -0.094000
      9 C11         3.9120    1.6880    0.2050 ca        1 JPM     -0.003600
     10 C12         4.4160    0.4160    0.4870 ca        1 JPM     -0.099000
     11 C15        -5.8630    2.5210    0.4650 ca        1 JPM     -0.129000
     12 C16        -5.7140    1.6470    1.5420 ca        1 JPM     -0.128000
     13 C19        -4.9280    0.8520   -1.0130 ca        1 JPM     -0.124500
     14 O2          0.0150   -2.4880   -2.3080 oh        1 JPM     -0.490100
     15 O1          1.4530   -1.6730   -0.0600 os        1 JPM     -0.244200
     16 CL5         4.9410    3.0360    0.3020 cl        1 JPM     -0.083400
     17 C1         -2.0240   -1.9250   -1.2370 ca        1 JPM     -0.153000
     18 C6         -2.7190   -1.4110   -0.1420 ca        1 JPM     -0.039300
     19 C13        -4.7750   -0.0280    0.0650 ca        1 JPM     -0.079300
     20 C17        -5.1730    0.3780    1.3440 ca        1 JPM     -0.124500
     21 C14        -5.4690    2.1210   -0.8120 ca        1 JPM     -0.128000
     22 H4         -0.0770   -0.6150    1.8960 ha        1 JPM      0.150000
     23 H5         -2.5830   -0.5370    1.8350 ha        1 JPM      0.144000
     24 H9          0.6730    0.8850   -0.5130 ha        1 JPM      0.161000
     25 H10         2.1800    2.8670   -0.3760 ha        1 JPM      0.155000
     26 H12         5.4730    0.2870    0.7690 ha        1 JPM      0.164000
     27 H15        -6.2900    3.5210    0.6220 ha        1 JPM      0.132000
     28 H16        -6.0260    1.9580    2.5500 ha        1 JPM      0.132500
     29 H18        -4.5910   -1.7940   -1.1330 hc        1 JPM      0.061200
     30 H18A       -4.5800   -2.0850    0.6530 hc        1 JPM      0.061200
     31 H19        -4.6190    0.5390   -2.0220 ha        1 JPM      0.132500
     32 HO2         0.9700   -2.4830   -2.1310 ho        1 JPM      0.439000
     33 H1         -2.5510   -2.3030   -2.1250 ha        1 JPM      0.155000
     34 H17        -5.0600   -0.3090    2.1960 ha        1 JPM      0.132500
     35 H14        -5.5860    2.8070   -1.6640 ha        1 JPM      0.132500
     36 C18        -4.2120   -1.3920   -0.1530 c3        1 JPM      0.003200
     37 CL1         4.2220   -2.2280    0.7630 cl        1 JPM     -0.061400
@<TRIPOS>BOND
     1    1    2 ar  
     2    1   14 1   
     3    1   17 ar  
     4    2    3 ar  
     5    2   15 1   
     6    3    4 ar  
     7    3   22 1   
     8    4   18 ar  
     9    4   23 1   
    10    5    6 ar  
    11    5   10 ar  
    12    5   37 1   
    13    6    7 ar  
    14    6   15 1   
    15    7    8 ar  
    16    7   24 1   
    17    8    9 ar  
    18    8   25 1   
    19    9   10 ar  
    20    9   16 1   
    21   10   26 1   
    22   11   12 ar  
    23   11   21 ar  
    24   11   27 1   
    25   12   20 ar  
    26   12   28 1   
    27   13   19 ar  
    28   13   21 ar  
    29   13   31 1   
    30   14   32 1   
    31   17   18 ar  
    32   17   33 1   
    33   18   36 1   
    34   19   20 ar  
    35   19   36 1   
    36   20   34 1   
    37   21   35 1   
    38   29   36 1   
    39   30   36 1   
@<TRIPOS>SUBSTRUCTURE
     1 JPM         1 TEMP              0 ****  ****    0 ROOT
