@<TRIPOS>MOLECULE
JPM
   37    38     1     0     0
SMALL
bcc


@<TRIPOS>ATOM
      1 C2         -0.1300   -0.0950    0.2930 c2        1 JPM      0.181000
      2 C3          1.1050    0.2660   -0.2480 c2        1 JPM     -0.098000
      3 C4          2.1910    0.6270    0.5570 c1        1 JPM     -0.127000
      4 C5          2.0420    0.6000    2.0050 c3        1 JPM     -0.188000
      5 C7          2.3490    0.8070   -3.6120 ca        1 JPM     -0.083000
      6 C8          1.9120    1.1220   -2.3070 ca        1 JPM      0.111000
      7 C9          2.1290    2.4060   -1.7870 ca        1 JPM     -0.148000
      8 C10         2.7710    3.3720   -2.5540 ca        1 JPM     -0.098000
      9 C11         3.1940    3.0600   -3.8490 ca        1 JPM     -0.088000
     10 C12         2.9860    1.7850   -4.3800 ca        1 JPM     -0.101000
     11 C15        -2.6310    3.1060    5.6670 c2        1 JPM     -0.096000
     12 C16        -1.4450    2.4050    6.1180 c2        1 JPM     -0.065000
     13 C19        -3.1680    3.7980    3.2150 c2        1 JPM     -0.174000
     14 O2         -1.1530   -0.4230   -0.5340 oh        1 JPM     -0.199000
     15 O1          1.2260    0.1260   -1.6320 os        1 JPM     -0.122000
     16 Cl5         3.9730    4.2430   -4.7920 cl        1 JPM     -0.019000
     17 C1         -0.3000   -0.1310    1.7280 c2        1 JPM     -0.242000
     18 C6          0.7210    0.2010    2.5570 c2        1 JPM     -0.015000
     19 C13         0.5010    1.5380    4.6140 c2        1 JPM     -0.121000
     20 C17        -0.4820    1.9660    5.3510 c1        1 JPM     -0.146000
     21 C14        -2.8900    3.4450    4.4310 c1        1 JPM     -0.135000
     22 H4          2.3150    1.6270    2.3930 hc        1 JPM      0.165000
     23 H5          2.8410   -0.1010    2.3970 hc        1 JPM      0.165000
     24 H9          1.8120    2.6400   -0.7600 ha        1 JPM      0.153000
     25 H10         2.9430    4.3760   -2.1390 ha        1 JPM      0.147000
     26 H12         3.3270    1.5450   -5.4000 ha        1 JPM      0.159000
     27 H15        -3.3550    3.3630    6.4640 ha        1 JPM      0.145000
     28 H16        -1.3790    2.2480    7.2120 ha        1 JPM      0.145000
     29 H18        -0.3490   -0.4220    4.3200 hc        1 JPM      0.105500
     30 H18A        1.4550   -0.3650    4.4840 hc        1 JPM      0.105500
     31 H19        -3.7310    3.1490    2.5270 ha        1 JPM      0.136500
     32 HO2        -1.9200   -0.6920   -0.0010 ho        1 JPM      0.226000
     33 H1         -1.2870   -0.4290    2.1180 ha        1 JPM      0.143000
     34 H17         1.3640    2.1920    4.3910 ha        1 JPM      0.142000
     35 H14        -2.8600    4.7700    2.8000 ha        1 JPM      0.136500
     36 C18         0.5670    0.1660    4.0380 c3        1 JPM     -0.106000
     37 Cl1         2.1210   -0.7330   -4.2930 cl        1 JPM      0.006000
@<TRIPOS>BOND
     1    1    2 1   
     2    1   14 1   
     3    1   17 1   
     4    2    3 1   
     5    2   15 1   
     6    3    4 1   
     7    4   18 1   
     8    4   22 1   
     9    4   23 1   
    10    5    6 1   
    11    5   10 1   
    12    5   37 1   
    13    6    7 1   
    14    6   15 1   
    15    7    8 1   
    16    7   24 1   
    17    8    9 1   
    18    8   25 1   
    19    9   10 1   
    20    9   16 1   
    21   10   26 1   
    22   11   12 1   
    23   11   21 1   
    24   11   27 1   
    25   12   20 1   
    26   12   28 1   
    27   13   21 1   
    28   13   31 1   
    29   13   35 1   
    30   14   32 1   
    31   17   18 1   
    32   17   33 1   
    33   18   36 1   
    34   19   20 1   
    35   19   34 1   
    36   19   36 1   
    37   29   36 1   
    38   30   36 1   
@<TRIPOS>SUBSTRUCTURE
     1 JPM         1 TEMP              0 ****  ****    0 ROOT
