@<TRIPOS>MOLECULE
JPM
   37    36     1     0     0
SMALL
bcc


@<TRIPOS>ATOM
      1 C2         -0.5300   -0.2470   -0.3400 ce        1 JPM      0.163100
      2 C3          0.7880    0.3880   -0.2040 ce        1 JPM      0.073000
      3 C4          1.1650    1.1250    0.8140 c1        1 JPM     -0.031800
      4 C5          1.5320    1.8690    1.8090 c2        1 JPM     -0.183100
      5 C7          3.4990    1.2820   -2.2080 ca        1 JPM      0.015400
      6 C8          2.1170    1.1200   -2.0080 ca        1 JPM      0.104100
      7 C9          1.2000    1.9590   -2.6560 ca        1 JPM     -0.135000
      8 C10         1.6550    2.9610   -3.5060 ca        1 JPM     -0.112000
      9 C11         3.0310    3.1190   -3.7100 ca        1 JPM      0.011400
     10 C12         3.9520    2.2860   -3.0720 ca        1 JPM     -0.114000
     11 C15        -1.6670    5.1080    4.8100 c1        1 JPM     -0.155000
     12 C16         0.6490    1.7870    7.0010 c1        1 JPM     -0.155000
     13 C19        -1.9530    2.4960    4.7330 c3        1 JPM      0.000700
     14 O2         -1.0490   -0.0500   -1.6010 oh        1 JPM     -0.498100
     15 O1          1.6710    0.0460   -1.2410 os        1 JPM     -0.230200
     16 CL5         3.5910    4.3410   -4.7500 cl        1 JPM     -0.086400
     17 C1         -1.1990   -0.9370    0.6140 cf        1 JPM     -0.123700
     18 C6         -0.7320   -1.1930    1.9060 ch        1 JPM     -0.147300
     19 C13        -0.6280    1.7420    4.7040 c3        1 JPM      0.000700
     20 C17         0.0630    1.7710    5.9580 c1        1 JPM     -0.142100
     21 C14        -1.7880    3.9190    4.7750 c1        1 JPM     -0.142100
     22 H4          1.3670    2.9580    1.8240 ha        1 JPM      0.144500
     23 H5          2.0310    1.4510    2.6990 ha        1 JPM      0.144500
     24 H9          0.1210    1.8020   -2.4870 ha        1 JPM      0.169000
     25 H10         0.9370    3.6190   -4.0170 ha        1 JPM      0.153000
     26 H12         5.0320    2.4170   -3.2420 ha        1 JPM      0.163000
     27 H15        -1.5590    6.1620    4.8430 ha        1 JPM      0.164500
     28 H16         1.1680    1.8030    7.9250 ha        1 JPM      0.164500
     29 H18        -0.8340    0.6690    4.4200 hc        1 JPM      0.065450
     30 H18A       -0.0440   -1.6650    4.0040 ha        1 JPM      0.168500
     31 H19        -2.5560    2.1630    5.6230 hc        1 JPM      0.065450
     32 HO2        -1.8390   -0.6030   -1.6990 ho        1 JPM      0.425000
     33 H1         -2.1950   -1.3600    0.3830 ha        1 JPM      0.144000
     34 H17         0.0350    2.1750    3.9000 hc        1 JPM      0.065450
     35 H14        -2.5360    2.2210    3.8080 hc        1 JPM      0.065450
     36 C18        -0.3700   -1.4390    3.0220 c1        1 JPM     -0.152500
     37 CL1         4.6410    0.2900   -1.4420 cl        1 JPM     -0.062400
@<TRIPOS>BOND
     1    1    2 1   
     2    1   14 1   
     3    1   17 2   
     4    2    3 2   
     5    2   15 1   
     6    3    4 2   
     7    4   22 1   
     8    4   23 1   
     9    5    6 ar  
    10    5   10 ar  
    11    5   37 1   
    12    6    7 ar  
    13    6   15 1   
    14    7    8 ar  
    15    7   24 1   
    16    8    9 ar  
    17    8   25 1   
    18    9   10 ar  
    19    9   16 1   
    20   10   26 1   
    21   11   21 3   
    22   11   27 1   
    23   12   20 3   
    24   12   28 1   
    25   13   19 1   
    26   13   21 1   
    27   13   31 1   
    28   13   35 1   
    29   14   32 1   
    30   17   18 1   
    31   17   33 1   
    32   18   36 3   
    33   19   20 1   
    34   19   29 1   
    35   19   34 1   
    36   30   36 1   
@<TRIPOS>SUBSTRUCTURE
     1 JPM         1 TEMP              0 ****  ****    0 ROOT
