@<TRIPOS>MOLECULE
JPN
   43    45     1     0     0
SMALL
bcc


@<TRIPOS>ATOM
      1 CL24        0.1970   -1.1240   -0.1370 cl        1 JPN     -0.060400
      2 C18         1.7770   -0.5130   -0.0510 ca        1 JPN      0.000400
      3 C19         2.5230   -0.7460    1.1080 ca        1 JPN     -0.099000
      4 C17         2.3570    0.2140   -1.1090 ca        1 JPN      0.117100
      5 C22         3.6660    0.7030   -0.9990 ca        1 JPN     -0.168000
      6 C21         4.4000    0.4710    0.1590 ca        1 JPN     -0.094000
      7 C20         3.8270   -0.2530    1.2090 ca        1 JPN     -0.002600
      8 CL25        4.7220   -0.5390    2.6240 cl        1 JPN     -0.082400
      9 O16         1.5890    0.3670   -2.2580 os        1 JPN     -0.244200
     10 C13         1.9940    1.3700   -3.1400 ca        1 JPN     -0.012900
     11 C14         1.9500    2.7250   -2.7990 ca        1 JPN     -0.101000
     12 C15         2.2400    3.6800   -3.7660 ca        1 JPN     -0.155000
     13 C10         2.5700    3.2970   -5.0760 ca        1 JPN     -0.041300
     14 C11         2.6060    1.9460   -5.4220 ca        1 JPN     -0.152000
     15 C12         2.3180    0.9720   -4.4520 ca        1 JPN      0.138100
     16 O23         2.3570   -0.3400   -4.8460 oh        1 JPN     -0.489100
     17 C9          2.8670    4.3380   -6.0990 c3        1 JPN     -0.042100
     18 C8          4.2080    5.0020   -5.8490 c3        1 JPN     -0.073400
     19 C7          4.4780    6.0770   -6.8850 c3        1 JPN     -0.037100
     20 C3          5.7750    6.7630   -6.6370 ca        1 JPN     -0.079300
     21 C4          5.8910    7.6960   -5.5980 ca        1 JPN     -0.127000
     22 C5          7.1010    8.3460   -5.3680 ca        1 JPN     -0.128000
     23 C6          8.2070    8.0720   -6.1730 ca        1 JPN     -0.132000
     24 C1          8.0980    7.1450   -7.2090 ca        1 JPN     -0.128000
     25 C2          6.8880    6.4930   -7.4410 ca        1 JPN     -0.127000
     26 H19         2.0790   -1.3150    1.9410 ha        1 JPN      0.164000
     27 H22         4.1070    1.2740   -1.8310 ha        1 JPN      0.160000
     28 H21         5.4280    0.8560    0.2420 ha        1 JPN      0.155000
     29 H14         1.6870    3.0190   -1.7720 ha        1 JPN      0.150000
     30 H15         2.2080    4.7480   -3.5060 ha        1 JPN      0.140000
     31 H11         2.8550    1.6240   -6.4430 ha        1 JPN      0.156000
     32 HO23        2.0990   -0.8890   -4.0870 ho        1 JPN      0.439000
     33 H91         2.0550    5.1160   -6.0770 hc        1 JPN      0.052700
     34 H92         2.8620    3.8830   -7.1250 hc        1 JPN      0.052700
     35 H81         4.2200    5.4560   -4.8230 hc        1 JPN      0.049700
     36 H82         5.0230    4.2320   -5.8830 hc        1 JPN      0.049700
     37 H71         4.4750    5.6160   -7.9080 hc        1 JPN      0.048200
     38 H72         3.6470    6.8340   -6.8600 hc        1 JPN      0.048200
     39 H4          5.0190    7.9130   -4.9630 ha        1 JPN      0.130500
     40 H5          7.1840    9.0770   -4.5500 ha        1 JPN      0.131000
     41 H6          9.1620    8.5860   -5.9900 ha        1 JPN      0.131000
     42 H1          8.9680    6.9280   -7.8460 ha        1 JPN      0.131000
     43 H2          6.8070    5.7640   -8.2610 ha        1 JPN      0.130500
@<TRIPOS>BOND
     1    1    2 1   
     2    2    3 ar  
     3    2    4 ar  
     4    3    7 ar  
     5    3   26 1   
     6    4    5 ar  
     7    4    9 1   
     8    5    6 ar  
     9    5   27 1   
    10    6    7 ar  
    11    6   28 1   
    12    7    8 1   
    13    9   10 1   
    14   10   11 ar  
    15   10   15 ar  
    16   11   12 ar  
    17   11   29 1   
    18   12   13 ar  
    19   12   30 1   
    20   13   14 ar  
    21   13   17 1   
    22   14   15 ar  
    23   14   31 1   
    24   15   16 1   
    25   16   32 1   
    26   17   18 1   
    27   17   33 1   
    28   17   34 1   
    29   18   19 1   
    30   18   35 1   
    31   18   36 1   
    32   19   20 1   
    33   19   37 1   
    34   19   38 1   
    35   20   21 ar  
    36   20   25 ar  
    37   21   22 ar  
    38   21   39 1   
    39   22   23 ar  
    40   22   40 1   
    41   23   24 ar  
    42   23   41 1   
    43   24   25 ar  
    44   24   42 1   
    45   25   43 1   
@<TRIPOS>SUBSTRUCTURE
     1 JPN         1 TEMP              0 ****  ****    0 ROOT
