@<TRIPOS>MOLECULE
JPN
   43    45     1     0     0
SMALL
bcc


@<TRIPOS>ATOM
      1 Cl24        0.1920   -1.1170   -0.1340 cl        1 JPN     -0.060400
      2 C18         1.7710   -0.5050   -0.0460 ca        1 JPN      0.000400
      3 C19         2.5160   -0.7350    1.1150 ca        1 JPN     -0.099000
      4 C17         2.3530    0.2200   -1.1050 ca        1 JPN      0.117100
      5 C22         3.6610    0.7100   -0.9940 ca        1 JPN     -0.168000
      6 C21         4.3940    0.4810    0.1660 ca        1 JPN     -0.094000
      7 C20         3.8190   -0.2420    1.2170 ca        1 JPN     -0.002600
      8 Cl25        4.7110   -0.5240    2.6340 cl        1 JPN     -0.082400
      9 O16         1.5870    0.3690   -2.2560 os        1 JPN     -0.244200
     10 C13         1.9930    1.3700   -3.1400 ca        1 JPN     -0.012900
     11 C14         1.9480    2.7260   -2.8020 ca        1 JPN     -0.100000
     12 C15         2.2400    3.6790   -3.7720 ca        1 JPN     -0.155000
     13 C10         2.5730    3.2920   -5.0790 ca        1 JPN     -0.041300
     14 C11         2.6110    1.9400   -5.4220 ca        1 JPN     -0.152000
     15 C12         2.3210    0.9690   -4.4490 ca        1 JPN      0.138100
     16 O23         2.3620   -0.3450   -4.8400 oh        1 JPN     -0.489100
     17 C9          2.8720    4.3300   -6.1050 c3        1 JPN     -0.042100
     18 C8          4.2120    4.9970   -5.8530 c3        1 JPN     -0.073400
     19 C7          4.4830    6.0690   -6.8910 c3        1 JPN     -0.037100
     20 C3          5.7780    6.7590   -6.6410 ca        1 JPN     -0.079300
     21 C4          5.8880    7.6950   -5.6050 ca        1 JPN     -0.127000
     22 C5          7.0970    8.3480   -5.3720 ca        1 JPN     -0.128000
     23 C6          8.2070    8.0730   -6.1710 ca        1 JPN     -0.132000
     24 C1          8.1030    7.1430   -7.2050 ca        1 JPN     -0.128000
     25 C2          6.8950    6.4880   -7.4390 ca        1 JPN     -0.127000
     26 H19         2.0700   -1.3030    1.9470 ha        1 JPN      0.164000
     27 H22         4.1040    1.2790   -1.8260 ha        1 JPN      0.160000
     28 H21         5.4210    0.8660    0.2510 ha        1 JPN      0.155000
     29 H14         1.6820    3.0230   -1.7770 ha        1 JPN      0.150000
     30 H15         2.2070    4.7480   -3.5150 ha        1 JPN      0.140000
     31 H11         2.8630    1.6150   -6.4410 ha        1 JPN      0.156000
     32 HO23        2.1020   -0.8910   -4.0800 ho        1 JPN      0.439000
     33 H91         2.0600    5.1070   -6.0880 hc        1 JPN      0.052700
     34 H92         2.8720    3.8720   -7.1300 hc        1 JPN      0.052700
     35 H81         4.2190    5.4540   -4.8280 hc        1 JPN      0.049700
     36 H82         5.0280    4.2290   -5.8810 hc        1 JPN      0.049700
     37 H71         4.4860    5.6040   -7.9130 hc        1 JPN      0.048200
     38 H72         3.6510    6.8240   -6.8730 hc        1 JPN      0.048200
     39 H4          5.0140    7.9130   -4.9740 ha        1 JPN      0.130500
     40 H5          7.1750    9.0820   -4.5570 ha        1 JPN      0.131000
     41 H6          9.1600    8.5900   -5.9870 ha        1 JPN      0.131000
     42 H1          8.9760    6.9240   -7.8380 ha        1 JPN      0.131000
     43 H2          6.8190    5.7550   -8.2570 ha        1 JPN      0.130500
@<TRIPOS>BOND
     1    1    2 1   
     2    2    3 ar  
     3    2    4 ar  
     4    3    7 ar  
     5    3   26 1   
     6    4    5 ar  
     7    4    9 1   
     8    5    6 ar  
     9    5   27 1   
    10    6    7 ar  
    11    6   28 1   
    12    7    8 1   
    13    9   10 1   
    14   10   11 ar  
    15   10   15 ar  
    16   11   12 ar  
    17   11   29 1   
    18   12   13 ar  
    19   12   30 1   
    20   13   14 ar  
    21   13   17 1   
    22   14   15 ar  
    23   14   31 1   
    24   15   16 1   
    25   16   32 1   
    26   17   18 1   
    27   17   33 1   
    28   17   34 1   
    29   18   19 1   
    30   18   35 1   
    31   18   36 1   
    32   19   20 1   
    33   19   37 1   
    34   19   38 1   
    35   20   21 ar  
    36   20   25 ar  
    37   21   22 ar  
    38   21   39 1   
    39   22   23 ar  
    40   22   40 1   
    41   23   24 ar  
    42   23   41 1   
    43   24   25 ar  
    44   24   42 1   
    45   25   43 1   
@<TRIPOS>SUBSTRUCTURE
     1 JPN         1 TEMP              0 ****  ****    0 ROOT
