@<TRIPOS>MOLECULE
JPN
   43    45     1     0     0
SMALL
bcc


@<TRIPOS>ATOM
      1 CL24        5.6340    0.7720   -2.2030 cl        1 JPN     -0.070400
      2 C18         6.6500    1.9180   -1.4710 ca        1 JPN      0.015400
      3 C19         7.9850    1.9920   -1.8850 ca        1 JPN     -0.117000
      4 C17         6.1870    2.7930   -0.4730 ca        1 JPN      0.101100
      5 C22         7.0550    3.7240    0.1130 ca        1 JPN     -0.123000
      6 C21         8.3820    3.7900   -0.2950 ca        1 JPN     -0.116000
      7 C20         8.8410    2.9240   -1.2940 ca        1 JPN      0.016400
      8 CL25       10.4630    3.0030   -1.7960 cl        1 JPN     -0.086400
      9 O16         4.8280    2.8160   -0.1520 os        1 JPN     -0.236200
     10 C13         4.5310    2.3270    1.1210 ca        1 JPN      0.054100
     11 C14         4.2790    0.9630    1.2950 ca        1 JPN     -0.095000
     12 C15         3.8360    0.4900    2.5270 ca        1 JPN     -0.153000
     13 C10         3.6390    1.3680    3.5990 ca        1 JPN     -0.035300
     14 C11         3.8940    2.7330    3.4330 ca        1 JPN     -0.206000
     15 C12         4.3470    3.2170    2.1990 ca        1 JPN      0.123100
     16 O23         4.6390    4.5450    1.9910 oh        1 JPN     -0.490100
     17 C9          3.1500    0.8610    4.9110 c3        1 JPN     -0.042100
     18 C8          4.2340    0.9110    5.9720 c3        1 JPN     -0.073400
     19 C7          3.7070    0.4080    7.3030 c3        1 JPN     -0.037100
     20 C3          4.7590    0.4330    8.3560 ca        1 JPN     -0.080300
     21 C4          5.8150   -0.4860    8.3180 ca        1 JPN     -0.127000
     22 C5          6.7970   -0.4720    9.3060 ca        1 JPN     -0.127500
     23 C6          6.7330    0.4600   10.3430 ca        1 JPN     -0.131000
     24 C1          5.6840    1.3770   10.3870 ca        1 JPN     -0.127500
     25 C2          4.7000    1.3650    9.3990 ca        1 JPN     -0.127000
     26 H19         8.3550    1.3170   -2.6720 ha        1 JPN      0.162000
     27 H22         6.6640    4.4000    0.8920 ha        1 JPN      0.170000
     28 H21         9.0640    4.5230    0.1630 ha        1 JPN      0.153000
     29 H14         4.4260    0.2780    0.4460 ha        1 JPN      0.155000
     30 H15         3.6350   -0.5840    2.6550 ha        1 JPN      0.140000
     31 H11         3.7400    3.4270    4.2720 ha        1 JPN      0.138000
     32 HO23        4.3480    5.0390    2.7720 ho        1 JPN      0.422000
     33 H91         2.7840   -0.1950    4.8020 hc        1 JPN      0.052200
     34 H92         2.2750    1.4820    5.2430 hc        1 JPN      0.052200
     35 H81         5.1070    0.2830    5.6530 hc        1 JPN      0.049700
     36 H82         4.6030    1.9640    6.0840 hc        1 JPN      0.049700
     37 H71         2.8320    1.0370    7.6190 hc        1 JPN      0.048200
     38 H72         3.3320   -0.6440    7.1810 hc        1 JPN      0.048200
     39 H4          5.8660   -1.2220    7.5010 ha        1 JPN      0.130500
     40 H5          7.6230   -1.1970    9.2690 ha        1 JPN      0.131000
     41 H6          7.5080    0.4700   11.1230 ha        1 JPN      0.131000
     42 H1          5.6300    2.1110   11.2040 ha        1 JPN      0.131000
     43 H2          3.8740    2.0900    9.4400 ha        1 JPN      0.130500
@<TRIPOS>BOND
     1    1    2 1   
     2    2    3 ar  
     3    2    4 ar  
     4    3    7 ar  
     5    3   26 1   
     6    4    5 ar  
     7    4    9 1   
     8    5    6 ar  
     9    5   27 1   
    10    6    7 ar  
    11    6   28 1   
    12    7    8 1   
    13    9   10 1   
    14   10   11 ar  
    15   10   15 ar  
    16   11   12 ar  
    17   11   29 1   
    18   12   13 ar  
    19   12   30 1   
    20   13   14 ar  
    21   13   17 1   
    22   14   15 ar  
    23   14   31 1   
    24   15   16 1   
    25   16   32 1   
    26   17   18 1   
    27   17   33 1   
    28   17   34 1   
    29   18   19 1   
    30   18   35 1   
    31   18   36 1   
    32   19   20 1   
    33   19   37 1   
    34   19   38 1   
    35   20   21 ar  
    36   20   25 ar  
    37   21   22 ar  
    38   21   39 1   
    39   22   23 ar  
    40   22   40 1   
    41   23   24 ar  
    42   23   41 1   
    43   24   25 ar  
    44   24   42 1   
    45   25   43 1   
@<TRIPOS>SUBSTRUCTURE
     1 JPN         1 TEMP              0 ****  ****    0 ROOT
