@<TRIPOS>MOLECULE
JPP
   66    83     1     0     0
SMALL
bcc


@<TRIPOS>ATOM
      1 S           0.0000    0.0000    0.0000 ss        1 JPP     -0.024000
      2 O01         1.1090   -3.2350   -0.7430 o         1 JPP     -0.130000
      3 O02         2.7590    2.5570    1.4260 o         1 JPP     -0.255000
      4 O03         1.4510    3.2060    3.0840 o         1 JPP     -0.255000
      5 O06         3.8080   -2.5590   -2.5600 o         1 JPP     -0.299000
      6 O04         2.0920   -3.1000   -6.8000 o         1 JPP     -0.307000
      7 O05         4.7220   -5.4240  -10.2160 o         1 JPP     -0.135000
      8 O           2.8060   -4.0370   -8.8400 o         1 JPP     -0.162000
      9 N02         2.1230    0.0000    1.4630 ny        1 JPP     -0.185000
     10 N03         2.0970   -1.2240   -2.1020 ny        1 JPP     -0.707000
     11 N04         3.5390   -2.6910   -5.1660 ny        1 JPP     -0.307000
     12 N01         4.1480   -3.8940   -7.0710 nx        1 JPP     -0.026000
     13 N           5.8890   -5.7090   -8.3410 nx        1 JPP      0.664000
     14 C17         1.8420    0.0000    0.0000 DU        1 JPP     -0.450000
     15 C19        -0.1560    1.0400    1.5060 DU        1 JPP     -0.185000
     16 C18         1.2300    0.9250    2.1680 c3        1 JPP      0.034000
     17 C20         2.3930   -1.2610   -0.6690 DU        1 JPP     -0.305000
     18 C01         1.7500   -2.4780   -0.0540 c2        1 JPP      0.126000
     19 C02        -1.2450    0.4910    2.4290 c3        1 JPP     -0.277000
     20 C03        -0.4530    2.4930    1.1290 c3        1 JPP     -0.208000
     21 C04         1.8700    2.2890    2.1990 c2        1 JPP      0.336000
     22 C21         2.8680   -1.9100   -2.9680 c3        1 JPP      0.668000
     23 CA          2.5640   -1.8720   -4.4440 DU        1 JPP     -0.051000
     24 C05         2.6410   -0.4490   -4.9360 c2        1 JPP      0.451000
     25 C07         3.8700    0.1200   -5.2150 c3        1 JPP      0.021000
     26 C08         1.4830    0.2850   -5.1130 c2        1 JPP     -0.134000
     27 C09         5.4660   -4.1490   -6.4910 DU        1 JPP     -0.309000
     28 C10         5.9700   -5.5330   -6.8910 c3        1 JPP     -0.626000
     29 C11         3.8580   -4.3330   -8.3120 c2        1 JPP      0.224000
     30 C12         3.9400    1.4250   -5.6660 c3        1 JPP     -0.146000
     31 C13         1.5540    1.5890   -5.5630 c2        1 JPP      0.026000
     32 C14         4.8510   -5.1900   -9.0320 c2        1 JPP      0.102000
     33 C15         6.9440   -6.4400   -9.0480 c3        1 JPP     -0.303000
     34 C16         2.7820    2.1600   -5.8380 c2        1 JPP      0.472000
     35 C           8.0440   -5.4640   -9.4720 c3        1 JPP     -0.063000
     36 H2          2.2910   -0.3970    0.5600 DU        1 JPP      0.430000
     37 H4          2.0720   -1.1490   -1.1040 hn        1 JPP     -0.039500
     38 H5          2.9360   -2.4060   -4.4190 DU        1 JPP      0.040500
     39 H6          2.2940   -0.5250   -0.8320 DU        1 JPP      0.227000
     40 H7          1.6140    0.9160    1.1550 DU        1 JPP      0.244000
     41 H8          2.0790   -0.8170    0.2680 DU        1 JPP      0.101000
     42 H9          2.8200   -2.3220    0.0080 h4        1 JPP      0.289000
     43 H10        -0.5190   -0.2430    2.1000 hc        1 JPP      0.154000
     44 H11        -2.1910    0.4760    1.9020 hc        1 JPP      0.154000
     45 H12        -0.9860   -0.5160    2.7340 hc        1 JPP      0.154000
     46 H13        -0.8020    1.9480    1.9980 DU        1 JPP      0.264000
     47 H14        -1.4200    2.5490    0.6430 hc        1 JPP      0.115500
     48 H15         0.3120    2.8540    0.4530 hc        1 JPP      0.115500
     49 H16         2.1870   -1.2530   -3.6390 DU        1 JPP      0.494000
     50 H17         3.1280   -0.6460   -5.0230 hc        1 JPP     -0.134000
     51 H18         2.5400    0.0470   -5.1020 ha        1 JPP     -0.222000
     52 H19         4.6480   -3.4900   -6.2280 DU        1 JPP      0.472000
     53 H20         5.3970   -4.0940   -5.4120 hx        1 JPP      0.187000
     54 H21         6.0700   -4.4550   -6.8710 DU        1 JPP      0.210000
     55 H22         7.0010   -5.6420   -6.5770 hx        1 JPP      0.146000
     56 H23         4.1350    0.3640   -5.7670 DU        1 JPP      0.150000
     57 H24         2.6280    1.6800   -5.6660 ha        1 JPP     -0.405000
     58 H25         6.3330   -5.6060   -8.7250 DU        1 JPP     -0.022000
     59 H26         7.3630   -7.1930   -8.3920 hx        1 JPP      0.114000
     60 H27         3.1630    1.2350   -6.2550 DU        1 JPP      0.120000
     61 H28         7.5130   -4.5820   -9.1370 hc        1 JPP      0.059667
     62 H29         8.7350   -5.3200   -8.6500 hc        1 JPP      0.059667
     63 H30         8.5770   -5.8690  -10.3240 hc        1 JPP      0.059667
     64 H032        2.6490   -1.5540   -2.8690 hn        1 JPP     -0.039500
     65 H042        2.6730   -2.4490   -4.7270 DU        1 JPP      0.040500
     66 C06         3.2190   -3.2240   -6.3610 c2        1 JPP      0.186000
@<TRIPOS>BOND
     1    1   14 1   
     2    1   15 1   
     3    2   18 1   
     4    3   21 1   
     5    4   21 1   
     6    5   22 1   
     7    6   66 1   
     8    7   32 1   
     9    8   29 1   
    10    9   14 1   
    11    9   16 1   
    12    9   36 1   
    13    9   40 1   
    14   10   17 1   
    15   10   22 1   
    16   10   37 1   
    17   10   64 1   
    18   11   23 1   
    19   11   38 1   
    20   11   65 1   
    21   11   66 1   
    22   12   27 1   
    23   12   29 1   
    24   12   52 1   
    25   12   66 1   
    26   13   28 1   
    27   13   32 1   
    28   13   33 1   
    29   13   58 1   
    30   14   17 1   
    31   14   36 1   
    32   14   39 1   
    33   14   41 1   
    34   15   16 1   
    35   15   19 1   
    36   15   20 1   
    37   15   46 1   
    38   16   21 1   
    39   16   40 1   
    40   17   18 1   
    41   17   39 1   
    42   17   41 1   
    43   18   42 1   
    44   19   43 1   
    45   19   44 1   
    46   19   45 1   
    47   20   46 1   
    48   20   47 1   
    49   20   48 1   
    50   22   23 1   
    51   22   49 1   
    52   23   24 1   
    53   23   38 1   
    54   23   49 1   
    55   23   65 1   
    56   24   25 1   
    57   24   26 1   
    58   25   30 1   
    59   25   50 1   
    60   25   56 1   
    61   26   31 1   
    62   26   51 1   
    63   27   28 1   
    64   27   52 1   
    65   27   53 1   
    66   27   54 1   
    67   28   54 1   
    68   28   55 1   
    69   29   32 1   
    70   30   34 1   
    71   30   56 1   
    72   30   60 1   
    73   31   34 1   
    74   31   57 1   
    75   33   35 1   
    76   33   58 1   
    77   33   59 1   
    78   34   60 1   
    79   35   61 1   
    80   35   62 1   
    81   35   63 1   
    82   36   41 1   
    83   38   65 1   
@<TRIPOS>SUBSTRUCTURE
     1 JPP         1 TEMP              0 ****  ****    0 ROOT
