@<TRIPOS>MOLECULE
JPP
   64    63     1     0     0
SMALL
bcc


@<TRIPOS>ATOM
      1 S          -2.2210   -2.7630    3.3140 ss        1 JPP     -0.504200
      2 O01         1.1110   -3.5510    1.9160 o         1 JPP     -0.537100
      3 O02        -2.1350   -2.5920    6.8350 o         1 JPP     -0.819800
      4 O03        -1.1670   -4.5730    7.0240 o         1 JPP     -0.819800
      5 O06        -0.4410    0.7300    1.2250 o         1 JPP     -0.633100
      6 O04         2.5760    0.6110   -1.6110 o         1 JPP     -0.624100
      7 O05        -0.1770    3.0770   -3.3300 o         1 JPP     -0.565500
      8 O           0.5180    5.8720   -3.2510 o         1 JPP     -0.586500
      9 N02        -0.7350   -1.6700    4.8990 n3        1 JPP     -0.806200
     10 N03        -0.3290   -1.5230    1.2980 n         1 JPP     -0.523900
     11 N04         0.3110    1.0850   -1.2770 n         1 JPP     -0.517900
     12 N01         1.8650    2.5970   -2.5830 n         1 JPP     -0.504400
     13 N           2.6120    5.1740   -3.4050 n         1 JPP     -0.470800
     14 C17        -1.1440   -1.5170    3.6360 c3        1 JPP      0.304600
     15 C19        -1.7220   -3.8920    3.9700 c3        1 JPP      0.155100
     16 C18        -0.8550   -3.3280    5.2340 c3        1 JPP      0.025500
     17 C20         0.1130   -1.6070    2.6500 c3        1 JPP     -0.048300
     18 C01         0.8050   -2.8690    2.8590 c         1 JPP      0.557900
     19 C02        -2.8670   -4.7460    4.4730 c3        1 JPP     -0.086600
     20 C03        -0.8510   -4.6860    3.0520 c3        1 JPP     -0.086600
     21 C04        -1.4000   -3.4960    6.3490 c         1 JPP      0.945600
     22 C21        -0.2640   -0.3020    0.6220 c         1 JPP      0.637100
     23 CA         -0.0250   -0.2750   -0.8630 c3        1 JPP      0.048800
     24 C05        -1.2770   -0.7280   -1.5850 c1        1 JPP     -0.063100
     25 C06         1.6490    1.3850   -1.8110 c         1 JPP      0.781100
     26 C07        -1.3660   -2.0200   -2.0680 c1        1 JPP     -0.067000
     27 C08        -2.3290    0.1550   -1.7720 c1        1 JPP     -0.043500
     28 C09         3.2450    2.9490   -3.1730 c3        1 JPP      0.075000
     29 C10         3.6080    4.0580   -2.9390 c3        1 JPP      0.074000
     30 C11         0.8640    3.4680   -2.8250 c         1 JPP      0.647500
     31 C12        -2.5090   -2.4360   -2.7420 c1        1 JPP     -0.067000
     32 C13        -3.4630   -0.2550   -2.4400 c1        1 JPP     -0.067000
     33 C14         1.3340    5.0120   -3.0270 c         1 JPP      0.636500
     34 C15         3.0960    6.4710   -3.7240 c3        1 JPP      0.094000
     35 C16        -3.5520   -1.5610   -2.9270 c1        1 JPP     -0.067000
     36 C           2.6230    6.8680   -5.1890 c3        1 JPP     -0.120100
     37 H2          0.1390   -1.4100    4.9690 hn        1 JPP      0.398800
     38 H4         -0.5470   -2.2700    0.8530 hn        1 JPP      0.337500
     39 H5         -0.3350    1.7610   -1.2290 hn        1 JPP      0.350500
     40 H6         -1.5980   -0.6400    3.5300 h2        1 JPP      0.081700
     41 H7          0.0030   -3.8510    5.3540 h1        1 JPP      0.011700
     42 H8          0.7290   -0.8610    2.8400 h1        1 JPP      0.099700
     43 H9          1.0330   -3.1560    3.7630 h4        1 JPP      0.025200
     44 H10        -3.5010   -4.1870    4.9570 hc        1 JPP      0.049033
     45 H11        -3.3370   -5.1850    3.6810 hc        1 JPP      0.049033
     46 H12        -2.5190   -5.4370    5.0710 hc        1 JPP      0.049033
     47 H13        -1.1560   -5.6350    3.0430 hc        1 JPP      0.049033
     48 H14         0.0310   -4.6470    3.3480 hc        1 JPP      0.049033
     49 H15        -0.9060   -4.3230    2.1620 hc        1 JPP      0.049033
     50 H16         0.7300   -0.8870   -1.0890 h1        1 JPP      0.107700
     51 H17        -0.6200   -2.6450   -1.9350 ha        1 JPP      0.073250
     52 H18        -2.2670    1.0460   -1.4380 ha        1 JPP      0.100500
     53 H19         3.9000    2.3290   -2.8150 h1        1 JPP      0.081200
     54 H20         3.2070    2.8360   -4.1260 h1        1 JPP      0.081200
     55 H21         4.4900    4.2050   -3.3960 h1        1 JPP      0.063700
     56 H22         3.7400    4.1440   -1.9760 h1        1 JPP      0.063700
     57 H23        -2.5200   -3.3060   -3.1860 ha        1 JPP      0.073250
     58 H24        -4.2190    0.3800   -2.5740 ha        1 JPP      0.073250
     59 H25         4.0700    6.4740   -3.6840 h1        1 JPP      0.062700
     60 H26         2.7430    7.1160   -3.0830 h1        1 JPP      0.062700
     61 H27        -4.3410   -1.8480   -3.3920 ha        1 JPP      0.073250
     62 H28         1.6330    6.7310   -5.2700 hc        1 JPP      0.043033
     63 H29         2.8420    7.8300   -5.3610 hc        1 JPP      0.043033
     64 H30         3.0770    6.3150   -5.8320 hc        1 JPP      0.043033
@<TRIPOS>BOND
     1    1   14 1   
     2    1   15 1   
     3    2   18 2   
     4    3   21 1   
     5    4   21 1   
     6    5   22 2   
     7    6   25 2   
     8    7   30 2   
     9    8   33 2   
    10    9   14 1   
    11    9   16 1   
    12    9   37 1   
    13   10   17 1   
    14   10   22 1   
    15   10   38 1   
    16   11   23 1   
    17   11   25 1   
    18   11   39 1   
    19   12   25 1   
    20   12   28 1   
    21   12   30 1   
    22   13   29 1   
    23   13   33 1   
    24   13   34 1   
    25   14   17 1   
    26   14   40 1   
    27   15   16 1   
    28   15   19 1   
    29   15   20 1   
    30   16   21 1   
    31   16   41 1   
    32   17   18 1   
    33   17   42 1   
    34   18   43 1   
    35   19   44 1   
    36   19   45 1   
    37   19   46 1   
    38   20   47 1   
    39   20   48 1   
    40   20   49 1   
    41   22   23 1   
    42   23   24 1   
    43   23   50 1   
    44   24   27 3   
    45   26   31 3   
    46   26   51 1   
    47   27   52 1   
    48   28   29 1   
    49   28   53 1   
    50   28   54 1   
    51   29   55 1   
    52   29   56 1   
    53   30   33 1   
    54   31   57 1   
    55   32   35 3   
    56   32   58 1   
    57   34   36 1   
    58   34   59 1   
    59   34   60 1   
    60   35   61 1   
    61   36   62 1   
    62   36   63 1   
    63   36   64 1   
@<TRIPOS>SUBSTRUCTURE
     1 JPP         1 TEMP              0 ****  ****    0 ROOT
