@<TRIPOS>MOLECULE
JPP
   64    63     1     0     0
SMALL
bcc


@<TRIPOS>ATOM
      1 S           1.2460    0.6500   -0.7500 s4        1 JPP      0.804000
      2 O01         0.2800   -4.2440   -1.0240 o         1 JPP     -0.164000
      3 O02         3.1810    1.6170    2.6880 o         1 JPP     -0.530500
      4 O03         3.8080    0.0830    1.1720 o         1 JPP     -0.530500
      5 O06         3.0740   -0.2150   -3.3580 os        1 JPP     -0.285000
      6 O04         1.7910   -4.5970   -5.7310 o         1 JPP     -0.446000
      7 O05         2.8900   -4.9450   -8.4000 o         1 JPP     -0.293000
      8 O           5.1200   -6.6570   -8.8690 o         1 JPP     -0.192000
      9 N02         1.2360   -0.9250    2.7790 n2        1 JPP     -0.194000
     10 N03         1.7370   -1.6080   -2.1310 n2        1 JPP     -0.297000
     11 N04         2.8920   -2.5430   -5.2860 n2        1 JPP     -0.513000
     12 N01         3.9790   -4.3520   -6.4270 n         1 JPP     -0.322000
     13 N           6.4970   -5.0080   -7.7950 n4        1 JPP      0.147000
     14 C17         2.5210    1.8270   -0.9050 c3        1 JPP     -0.521000
     15 C19         0.6340    0.6850    0.9600 c3        1 JPP     -0.260000
     16 C18         1.5510    0.0080    1.9680 c2        1 JPP     -0.086000
     17 C20         2.1480   -0.9700   -0.9440 c3        1 JPP     -0.215000
     18 C01        -0.0140   -3.2560   -0.4720 c1        1 JPP      0.165000
     19 C02         0.4340    2.1310    1.3590 c3        1 JPP     -0.232500
     20 C03        -0.7000   -0.0140    0.7870 c3        1 JPP     -0.232500
     21 C04         2.9870    0.6110    1.9700 c2        1 JPP      0.369000
     22 C21         2.2120   -1.2840   -3.3060 c2        1 JPP      0.199000
     23 CA          1.7540   -2.0480   -4.5770 c3        1 JPP      0.156000
     24 C05         0.9040   -1.1200   -5.3190 c1        1 JPP     -0.078000
     25 C07         4.2870    1.5180   -4.3730 c3        1 JPP     -0.230000
     26 C08         0.1760   -0.3940   -5.9390 c1        1 JPP     -0.117000
     27 C09         5.2520   -3.9900   -5.8600 c3        1 JPP     -0.033000
     28 C10         6.4330   -4.8650   -6.3070 c3        1 JPP     -0.120000
     29 C11         3.8960   -4.9320   -7.6750 c2        1 JPP      0.289000
     30 C12         3.7270    0.1290   -4.5910 c3        1 JPP      0.000000
     31 C13        -0.6500    0.4240   -6.6340 c1        1 JPP     -0.019000
     32 C14         5.1610   -5.6400   -8.1920 c2        1 JPP      0.113000
     33 C15         7.6750   -5.6540   -8.2030 c2        1 JPP     -0.690000
     34 C16        -1.3810    1.1470   -7.2500 c1        1 JPP     -0.228000
     35 C           8.2580   -5.3830   -9.5180 c3        1 JPP     -0.080000
     36 H2          0.2910   -1.2530    2.7430 hn        1 JPP      0.115000
     37 H4          1.8170   -1.5970   -0.0700 h2        1 JPP      0.167000
     38 H5          2.9930    0.1140   -5.4380 h1        1 JPP      0.113000
     39 H6          2.1030    2.8500   -0.7680 h1        1 JPP      0.164333
     40 H7          3.3710    1.6910   -0.1800 h1        1 JPP      0.164333
     41 H8          2.9390    1.7200   -1.9400 h1        1 JPP      0.164333
     42 H9          3.2480   -0.7520   -0.8340 h2        1 JPP      0.167000
     43 H10         1.4200    2.6140    1.5930 hc        1 JPP      0.104500
     44 H11        -0.0880    2.6980    0.5500 hc        1 JPP      0.104500
     45 H12        -0.1920    2.1770    2.2840 hc        1 JPP      0.104500
     46 H13        -1.2780    0.0280    1.7430 hc        1 JPP      0.104500
     47 H14        -1.3100    0.4940   -0.0010 hc        1 JPP      0.104500
     48 H15        -0.5600   -1.0890    0.4990 hc        1 JPP      0.104500
     49 H16         1.0550   -2.8870   -4.2330 h1        1 JPP      0.141000
     50 H17         4.9430    1.5400   -3.4700 hc        1 JPP      0.081667
     51 H18         4.8870    1.8080   -5.2680 hc        1 JPP      0.081667
     52 H19         5.1760   -4.0730   -4.7370 h1        1 JPP      0.105000
     53 H20         5.4880   -2.9110   -6.1040 h1        1 JPP      0.105000
     54 H21         6.3590   -5.8960   -5.8650 hx        1 JPP      0.129500
     55 H22         7.3950   -4.3980   -5.9620 hx        1 JPP      0.129500
     56 H23         3.4650    2.2590   -4.2300 hc        1 JPP      0.081667
     57 H24         4.5430   -0.6170   -4.7750 h1        1 JPP      0.113000
     58 H25         6.4730   -4.0730   -8.2160 hn        1 JPP      0.210000
     59 H26         7.8900   -6.6000   -7.7050 hx        1 JPP      0.130000
     60 H27        -2.0270    1.7800   -7.7990 ha        1 JPP      0.219000
     61 H28         8.4480   -4.2900   -9.6840 hc        1 JPP      0.035333
     62 H29         7.6140   -5.7370  -10.3680 hc        1 JPP      0.035333
     63 H30         9.2380   -5.9180   -9.5840 hc        1 JPP      0.035333
     64 C06         2.7730   -3.8090   -5.7720 c2        1 JPP      0.351000
@<TRIPOS>BOND
     1    1   14 1   
     2    1   15 1   
     3    1   17 1   
     4    2   18 1   
     5    3   21 1   
     6    4   21 1   
     7    5   22 1   
     8    5   30 1   
     9    6   64 1   
    10    7   29 1   
    11    8   32 1   
    12    9   16 1   
    13    9   36 1   
    14   10   17 1   
    15   10   22 1   
    16   11   23 1   
    17   11   64 1   
    18   12   27 1   
    19   12   29 1   
    20   12   64 1   
    21   13   28 1   
    22   13   32 1   
    23   13   33 1   
    24   13   58 1   
    25   14   39 1   
    26   14   40 1   
    27   14   41 1   
    28   15   16 1   
    29   15   19 1   
    30   15   20 1   
    31   16   21 1   
    32   17   37 1   
    33   17   42 1   
    34   19   43 1   
    35   19   44 1   
    36   19   45 1   
    37   20   46 1   
    38   20   47 1   
    39   20   48 1   
    40   22   23 1   
    41   23   24 1   
    42   23   49 1   
    43   24   26 1   
    44   25   30 1   
    45   25   50 1   
    46   25   51 1   
    47   25   56 1   
    48   26   31 1   
    49   27   28 1   
    50   27   52 1   
    51   27   53 1   
    52   28   54 1   
    53   28   55 1   
    54   29   32 1   
    55   30   38 1   
    56   30   57 1   
    57   31   34 1   
    58   33   35 1   
    59   33   59 1   
    60   34   60 1   
    61   35   61 1   
    62   35   62 1   
    63   35   63 1   
@<TRIPOS>SUBSTRUCTURE
     1 JPP         1 TEMP              0 ****  ****    0 ROOT
