@<TRIPOS>MOLECULE
JPP
   64    66     1     0     0
SMALL
bcc


@<TRIPOS>ATOM
      1 S           3.2580   -0.5210    0.3160 ss        1 JPP     -0.513200
      2 O01         3.2710    0.7330   -3.3690 o         1 JPP     -0.549100
      3 O02         6.7290    2.5080    1.7440 o         1 JPP     -0.817800
      4 O03         4.7820    3.0480    2.7260 o         1 JPP     -0.817800
      5 O06        -0.6370    0.8760   -0.3700 o         1 JPP     -0.655100
      6 O04        -3.6570   -0.5140   -2.4460 o         1 JPP     -0.557100
      7 O05        -6.2040   -0.7420   -1.3020 o         1 JPP     -0.535500
      8 O          -7.6710    0.2220    0.8520 o         1 JPP     -0.594500
      9 N02         3.3580    2.1580    0.4900 n3        1 JPP     -0.803200
     10 N03         1.0540    0.1940   -1.7700 n         1 JPP     -0.521900
     11 N04        -2.2280   -1.3220   -0.8060 n         1 JPP     -0.489900
     12 N01        -4.2550   -0.0860   -0.2360 n         1 JPP     -0.525400
     13 N          -5.9160    1.6050    1.4020 n         1 JPP     -0.472800
     14 C17         2.4590    1.1020    0.0940 c3        1 JPP      0.287600
     15 C19         4.7820    0.1790    1.0380 c3        1 JPP      0.101100
     16 C18         4.7180    1.6890    0.7060 c3        1 JPP      0.016500
     17 C20         1.9660    1.2480   -1.3790 c3        1 JPP     -0.012300
     18 C01         3.1420    1.3900   -2.3350 c         1 JPP      0.583900
     19 C02         4.7630   -0.0780    2.5250 c3        1 JPP     -0.084600
     20 C03         5.9870   -0.4570    0.3940 c3        1 JPP     -0.084600
     21 C04         5.4750    2.4960    1.8310 c         1 JPP      0.928600
     22 C21        -0.1680    0.0360   -1.1730 c         1 JPP      0.629100
     23 CA         -1.0220   -1.1880   -1.6090 c3        1 JPP      0.060000
     24 C05        -0.2270   -2.4680   -1.5730 ca        1 JPP     -0.112300
     25 C07         0.7930   -2.6840   -0.6420 ca        1 JPP     -0.106000
     26 C08        -0.5520   -3.4730   -2.4930 ca        1 JPP     -0.106000
     27 C09        -3.6800    0.6300    0.8810 c3        1 JPP      0.058000
     28 C10        -4.5030    1.8690    1.2860 c3        1 JPP      0.081000
     29 C11        -5.6420   -0.1360   -0.3850 c         1 JPP      0.650500
     30 C12         1.4920   -3.8920   -0.6440 ca        1 JPP     -0.131000
     31 C13         0.1480   -4.6770   -2.4900 ca        1 JPP     -0.131000
     32 C14        -6.4910    0.5720    0.6880 c         1 JPP      0.634500
     33 C15        -6.6710    2.3430    2.3880 c3        1 JPP      0.094000
     34 C16         1.1720   -4.8880   -1.5650 ca        1 JPP     -0.122000
     35 C          -6.4890    1.8810    3.8260 c3        1 JPP     -0.119100
     36 H2          3.0290    2.6240    1.3230 hn        1 JPP      0.404800
     37 H4          1.4530   -0.5720   -2.2690 hn        1 JPP      0.337500
     38 H5         -2.0420   -1.3060    0.1770 hn        1 JPP      0.299500
     39 H6          1.5310    1.0970    0.7350 h2        1 JPP      0.077700
     40 H7          5.2810    1.8600   -0.2580 h1        1 JPP      0.058700
     41 H8          1.3890    2.2260   -1.4280 h1        1 JPP      0.095700
     42 H9          3.8760    2.1710   -2.0340 h4        1 JPP      0.047200
     43 H10         4.6270   -1.1650    2.7360 hc        1 JPP      0.047367
     44 H11         5.7300    0.2670    2.9730 hc        1 JPP      0.047367
     45 H12         3.9390    0.5010    3.0100 hc        1 JPP      0.047367
     46 H13         6.1010   -1.5160    0.7260 hc        1 JPP      0.047367
     47 H14         5.9040   -0.4370   -0.7190 hc        1 JPP      0.047367
     48 H15         6.8980    0.1230    0.6980 hc        1 JPP      0.047367
     49 H16        -1.3400   -0.9880   -2.6820 h1        1 JPP      0.116700
     50 H17         1.0750   -1.9040    0.0880 ha        1 JPP      0.151500
     51 H18        -1.3660   -3.3090   -3.2170 ha        1 JPP      0.151500
     52 H19        -3.6020   -0.0690    1.7630 h1        1 JPP      0.081700
     53 H20        -2.6400    0.9890    0.6170 h1        1 JPP      0.081700
     54 H21        -4.3460    2.6870    0.5240 h1        1 JPP      0.063200
     55 H22        -4.1050    2.2320    2.2760 h1        1 JPP      0.063200
     56 H23         2.3040   -4.0480    0.0820 ha        1 JPP      0.136500
     57 H24        -0.1080   -5.4610   -3.2170 ha        1 JPP      0.136500
     58 H25        -6.3650    3.4260    2.3100 h1        1 JPP      0.060700
     59 H26        -7.7640    2.2630    2.1180 h1        1 JPP      0.060700
     60 H27         1.7270   -5.8370   -1.5660 ha        1 JPP      0.128000
     61 H28        -6.8200    0.8220    3.9510 hc        1 JPP      0.043367
     62 H29        -5.4230    1.9600    4.1490 hc        1 JPP      0.043367
     63 H30        -7.1100    2.5290    4.4900 hc        1 JPP      0.043367
     64 C06        -3.3740   -0.6180   -1.2390 c         1 JPP      0.770100
@<TRIPOS>BOND
     1    1   14 1   
     2    1   15 1   
     3    2   18 2   
     4    3   21 1   
     5    4   21 1   
     6    5   22 2   
     7    6   64 2   
     8    7   29 2   
     9    8   32 2   
    10    9   14 1   
    11    9   16 1   
    12    9   36 1   
    13   10   17 1   
    14   10   22 1   
    15   10   37 1   
    16   11   23 1   
    17   11   38 1   
    18   11   64 1   
    19   12   27 1   
    20   12   29 1   
    21   12   64 1   
    22   13   28 1   
    23   13   32 1   
    24   13   33 1   
    25   14   17 1   
    26   14   39 1   
    27   15   16 1   
    28   15   19 1   
    29   15   20 1   
    30   16   21 1   
    31   16   40 1   
    32   17   18 1   
    33   17   41 1   
    34   18   42 1   
    35   19   43 1   
    36   19   44 1   
    37   19   45 1   
    38   20   46 1   
    39   20   47 1   
    40   20   48 1   
    41   22   23 1   
    42   23   24 1   
    43   23   49 1   
    44   24   25 ar  
    45   24   26 ar  
    46   25   30 ar  
    47   25   50 1   
    48   26   31 ar  
    49   26   51 1   
    50   27   28 1   
    51   27   52 1   
    52   27   53 1   
    53   28   54 1   
    54   28   55 1   
    55   29   32 1   
    56   30   34 ar  
    57   30   56 1   
    58   31   34 ar  
    59   31   57 1   
    60   33   35 1   
    61   33   58 1   
    62   33   59 1   
    63   34   60 1   
    64   35   61 1   
    65   35   62 1   
    66   35   63 1   
@<TRIPOS>SUBSTRUCTURE
     1 JPP         1 TEMP              0 ****  ****    0 ROOT
