@<TRIPOS>MOLECULE
JPR
   52    52     1     0     0
SMALL
bcc


@<TRIPOS>ATOM
      1 CL1       572.4960  311.1420-1141.3020 cl        1 JPR      0.093000
      2 N1        572.6880  315.7510-1139.6950 n3        1 JPR     -0.125000
      3 O1        573.8730  313.6690-1139.1210 os        1 JPR     -0.003000
      4 S1       -359.7570 -196.2280  727.5100 ss        1 JPR      1.095000
      5 C2        573.7190  313.2010-1142.5090 c2        1 JPR     -0.002000
      6 N2       -360.6680 -193.9790  728.9330 n3        1 JPR     -0.406000
      7 O2       -357.4610 -197.8040  725.4880 os        1 JPR     -0.258000
      8 C3        574.5340  314.4510-1142.5070 c3        1 JPR     -0.250000
      9 N3       -354.9530 -199.6710  726.0570 n3        1 JPR     -0.207000
     10 C4        573.4230  312.5650-1141.3460 c2        1 JPR     -0.266000
     11 C5        574.1030  315.5370-1141.6640 c1        1 JPR      0.008000
     12 C6        573.9820  312.8310-1140.0500 c1        1 JPR      0.209000
     13 C7        572.7110  315.5770-1141.1380 c3        1 JPR     -0.166000
     14 C8        573.1890  314.8850-1138.8520 c2        1 JPR      0.098000
     15 C9       -361.1770 -195.1970  729.4920 c3        1 JPR     -0.056000
     16 C10      -360.6850 -196.3940  728.7190 c2        1 JPR     -0.450000
     17 C11      -359.4380 -197.8530  726.9280 c3        1 JPR     -0.532000
     18 C12      -358.9330 -197.7730  725.5060 c3        1 JPR      0.073000
     19 C13      -359.3990 -198.9070  724.5640 c2        1 JPR     -0.164000
     20 C14      -358.2520 -199.4810  724.2680 c1        1 JPR      0.177000
     21 C15      -356.9700 -198.9660  724.7610 c3        1 JPR      0.013000
     22 C16      -356.2710 -200.0060  725.7450 c3        1 JPR     -0.013000
     23 C17      -354.7020 -198.7450  727.1240 c3        1 JPR     -0.119500
     24 C18      -353.9000 -199.9550  725.1230 c3        1 JPR     -0.119500
     25 H11       572.1600  312.5810-1143.8480 hc        1 JPR      0.123667
     26 H12       573.6000  313.3340-1144.6630 hc        1 JPR      0.123667
     27 H13A      573.7060  311.6530-1143.9850 hc        1 JPR      0.123667
     28 HN1       572.2380  316.4850-1141.6360 h1        1 JPR      0.156500
     29 HN2      -361.3890 -193.3810  728.5800 hn        1 JPR      0.208500
     30 H3        575.6080  314.2030-1142.2210 hc        1 JPR      0.204500
     31 H5        574.6350  314.8900-1143.5540 hc        1 JPR      0.204500
     32 H6        572.0550  314.6850-1141.3760 h1        1 JPR      0.156500
     33 H91      -360.0750 -193.4770  729.5650 hn        1 JPR      0.208500
     34 H92      -362.3120 -195.2480  729.4830 h1        1 JPR      0.163000
     35 H101     -360.8620 -195.3550  730.5720 h1        1 JPR      0.163000
     36 H102     -361.0880 -197.3330  729.1580 h4        1 JPR      0.219000
     37 H111     -360.3440 -198.5160  726.9660 h1        1 JPR      0.182000
     38 H112     -358.6600 -198.3510  727.5720 h1        1 JPR      0.182000
     39 H13      -359.2100 -196.8080  724.9840 h1        1 JPR      0.187000
     40 H14      -360.4350 -199.0440  724.2400 ha        1 JPR      0.251000
     41 H161     -356.3320 -200.9880  725.1860 h1        1 JPR      0.140000
     42 H162     -356.9060 -200.0360  726.6760 h1        1 JPR      0.140000
     43 H171     -354.9910 -199.2150  728.1050 h1        1 JPR      0.119500
     44 H172     -353.6130 -198.4740  727.1590 h1        1 JPR      0.119500
     45 H173     -355.3120 -197.8080  726.9790 h1        1 JPR      0.119500
     46 H181     -352.9330 -200.0910  725.6840 h1        1 JPR      0.119500
     47 H182     -354.1230 -200.8980  724.5550 h1        1 JPR      0.119500
     48 H183     -353.7700 -199.1070  724.3930 h1        1 JPR      0.119500
     49 H121      572.3040  316.6210-1139.3580 hn        1 JPR      0.289000
     50 H22       573.1570  315.0650-1137.7480 h5        1 JPR      0.239000
     51 H31      -356.2370 -198.6020  723.9870 h1        1 JPR      0.208000
     52 C1        573.2760  312.6770-1143.8180 c3        1 JPR     -0.217000
@<TRIPOS>BOND
     1    1   10 1   
     2    2   13 1   
     3    2   14 1   
     4    2   49 1   
     5    3   12 1   
     6    3   14 1   
     7    4   16 1   
     8    4   17 1   
     9    5    8 1   
    10    5   10 1   
    11    5   52 1   
    12    6   15 1   
    13    6   29 1   
    14    6   33 1   
    15    7   18 1   
    16    7   21 1   
    17    8   11 1   
    18    8   30 1   
    19    8   31 1   
    20    9   22 1   
    21    9   23 1   
    22    9   24 1   
    23   10   12 1   
    24   11   13 1   
    25   13   28 1   
    26   13   32 1   
    27   14   50 1   
    28   15   16 1   
    29   15   34 1   
    30   15   35 1   
    31   16   36 1   
    32   17   18 1   
    33   17   37 1   
    34   17   38 1   
    35   18   19 1   
    36   18   39 1   
    37   19   20 1   
    38   19   40 1   
    39   20   21 1   
    40   21   22 1   
    41   21   51 1   
    42   22   41 1   
    43   22   42 1   
    44   23   43 1   
    45   23   44 1   
    46   23   45 1   
    47   24   46 1   
    48   24   47 1   
    49   24   48 1   
    50   25   52 1   
    51   26   52 1   
    52   27   52 1   
@<TRIPOS>SUBSTRUCTURE
     1 JPR         1 TEMP              0 ****  ****    0 ROOT
