@<TRIPOS>MOLECULE
JPR
   49    50     1     0     0
SMALL
bcc


@<TRIPOS>ATOM
      1 CL1         3.8650   -4.0090   -0.4420 cl        1 JPR     -0.091400
      2 N1          3.6500    0.9220    0.9550 n         1 JPR     -0.457100
      3 O1          1.6550    0.3260   -0.0980 o         1 JPR     -0.618100
      4 S1         -2.2170    2.4590    1.3310 ss        1 JPR     -0.273200
      5 C2          6.0200   -2.4090   -0.1770 ca        1 JPR     -0.088300
      6 N2          1.8000    2.4680    0.7730 n         1 JPR     -0.534900
      7 O2         -4.9330    0.3240    0.4360 os        1 JPR     -0.360800
      8 C3          6.5930   -1.1640    0.1100 ca        1 JPR     -0.101000
      9 N3         -7.6640   -1.2940   -0.4330 n3        1 JPR     -0.734600
     10 C4          4.6240   -2.5220   -0.1050 ca        1 JPR      0.036400
     11 C5          5.8120   -0.0690    0.4510 ca        1 JPR     -0.176000
     12 C6          3.8160   -1.4370    0.2420 ca        1 JPR     -0.132000
     13 C7          4.4040   -0.1890    0.5280 ca        1 JPR      0.064600
     14 C8          2.3340    1.1810    0.5140 c         1 JPR      0.744100
     15 C9          0.3850    2.6620    0.5670 c3        1 JPR      0.079000
     16 C10        -0.5240    2.1090    1.6590 c3        1 JPR     -0.067300
     17 C11        -2.6640    1.1620    0.1960 c3        1 JPR     -0.038600
     18 C12        -4.0860    1.3050   -0.1040 cc        1 JPR      0.247000
     19 C13        -4.8260    2.2110   -0.8440 cd        1 JPR     -0.233300
     20 C14        -6.2040    1.7890   -0.7640 cd        1 JPR     -0.243300
     21 C15        -6.2280    0.6500    0.0180 cc        1 JPR      0.256000
     22 C16        -7.3130   -0.2360    0.5080 c3        1 JPR      0.137500
     23 C17        -6.5980   -2.2460   -0.6490 c3        1 JPR      0.154600
     24 C18        -8.9220   -1.9240   -0.1000 c3        1 JPR      0.154600
     25 H11         6.7330   -4.3970    0.1850 hc        1 JPR      0.050033
     26 H12         6.6040   -3.9350   -1.5620 hc        1 JPR      0.050033
     27 H13A        7.9560   -3.2740   -0.5480 hc        1 JPR      0.050033
     28 HN1         4.2020    1.7090    1.2220 hn        1 JPR      0.308500
     29 HN2         2.1730    2.9580    1.5560 hn        1 JPR      0.289500
     30 H3          7.6870   -1.0500    0.0590 ha        1 JPR      0.137000
     31 H5          6.3040    0.8920    0.6660 ha        1 JPR      0.132000
     32 H6          2.7200   -1.5610    0.2780 ha        1 JPR      0.183000
     33 H91         0.2220    3.7740    0.4760 h1        1 JPR      0.076200
     34 H92         0.1070    2.1790   -0.4150 h1        1 JPR      0.076200
     35 H101       -0.3060    2.5980    2.6420 h1        1 JPR      0.080700
     36 H102       -0.3590    1.0090    1.7720 h1        1 JPR      0.080700
     37 H111       -2.0610    1.2530   -0.7430 h1        1 JPR      0.085700
     38 H112       -2.4500    0.1620    0.6500 h1        1 JPR      0.085700
     39 H13        -4.4560    3.0790   -1.3820 ha        1 JPR      0.165000
     40 H14        -7.0490    2.2800   -1.2380 ha        1 JPR      0.165000
     41 H161       -8.2270    0.4070    0.6650 h1        1 JPR      0.052700
     42 H162       -7.0020   -0.6560    1.5130 h1        1 JPR      0.052700
     43 H171       -6.8730   -2.8970   -1.5200 h1        1 JPR      0.034533
     44 H172       -5.6530   -1.6920   -0.8910 h1        1 JPR      0.034533
     45 H173       -6.4060   -2.9040    0.2430 h1        1 JPR      0.034533
     46 H181       -8.9090   -2.4440    0.8980 h1        1 JPR      0.034533
     47 H182       -9.7290   -1.1460   -0.0860 h1        1 JPR      0.034533
     48 H183       -9.1640   -2.6790   -0.8920 h1        1 JPR      0.034533
     49 C1          6.8750   -3.5590   -0.5430 c3        1 JPR     -0.051800
@<TRIPOS>BOND
     1    1   10 1   
     2    2   13 1   
     3    2   14 1   
     4    2   28 1   
     5    3   14 2   
     6    4   16 1   
     7    4   17 1   
     8    5    8 ar  
     9    5   10 ar  
    10    5   49 1   
    11    6   14 1   
    12    6   15 1   
    13    6   29 1   
    14    7   18 1   
    15    7   21 1   
    16    8   11 ar  
    17    8   30 1   
    18    9   22 1   
    19    9   23 1   
    20    9   24 1   
    21   10   12 ar  
    22   11   13 ar  
    23   11   31 1   
    24   12   13 ar  
    25   12   32 1   
    26   15   16 1   
    27   15   33 1   
    28   15   34 1   
    29   16   35 1   
    30   16   36 1   
    31   17   18 1   
    32   17   37 1   
    33   17   38 1   
    34   18   19 2   
    35   19   20 1   
    36   19   39 1   
    37   20   21 2   
    38   20   40 1   
    39   21   22 1   
    40   22   41 1   
    41   22   42 1   
    42   23   43 1   
    43   23   44 1   
    44   23   45 1   
    45   24   46 1   
    46   24   47 1   
    47   24   48 1   
    48   25   49 1   
    49   26   49 1   
    50   27   49 1   
@<TRIPOS>SUBSTRUCTURE
     1 JPR         1 TEMP              0 ****  ****    0 ROOT
