@<TRIPOS>MOLECULE
JPR
   49    46     1     0     0
SMALL
bcc


@<TRIPOS>ATOM
      1 CL1         2.6130    3.1950   -6.4420 cl        1 JPR     -0.017000
      2 C1          5.2140    1.7700   -7.2830 c3        1 JPR     -0.177000
      3 N1          1.9930   -1.2810   -3.5780 n         1 JPR     -0.312000
      4 O1          0.1350    0.0160   -3.3190 o         1 JPR     -0.377000
      5 S1         -2.6280   -1.7600    0.6350 ss        1 JPR      0.068000
      6 C2          4.3320    1.1260   -6.1990 c2        1 JPR     -0.082000
      7 N2          0.1180   -1.8940   -2.0700 n         1 JPR     -0.345000
      8 O2         -2.0820   -0.8960    4.0030 os        1 JPR     -0.086000
      9 C3          4.7420   -0.0900   -5.6750 c2        1 JPR     -0.100000
     10 N3         -1.4130    1.9000    5.4160 n3        1 JPR     -0.257000
     11 C4          3.0760    1.6410   -5.8770 c2        1 JPR     -0.042000
     12 C5          3.8820   -0.8130   -4.8090 c1        1 JPR     -0.177000
     13 C6          2.2270    0.9290   -5.0230 c2        1 JPR     -0.135000
     14 C7          2.6370   -0.3040   -4.4890 c1        1 JPR      0.075000
     15 C8          0.6960   -1.0040   -3.0350 c2        1 JPR      0.374000
     16 C9         -1.2790   -1.7280   -1.6710 c3        1 JPR     -0.030000
     17 C10        -1.5730   -2.6100   -0.4740 c3        1 JPR     -0.317000
     18 C11        -2.6880   -2.5970    2.1290 c3        1 JPR     -0.200000
     19 C12        -3.0050   -1.6020    3.2550 c2        1 JPR     -0.071000
     20 C13        -4.2680   -1.1850    3.6300 c1        1 JPR     -0.160000
     21 C14        -4.1290   -0.2310    4.6000 c1        1 JPR     -0.199000
     22 C15        -2.7630   -0.0500    4.8320 c1        1 JPR     -0.028000
     23 C16        -2.1180    0.8520    5.9840 c2        1 JPR     -0.003000
     24 C17        -0.1170    2.0080    6.0400 c3        1 JPR     -0.125000
     25 C18        -2.1310    3.1270    5.5850 c3        1 JPR     -0.125000
     26 H11         5.5370    2.6060   -6.9710 hc        1 JPR      0.088667
     27 H12         5.9740    1.1790   -7.4810 hc        1 JPR      0.088667
     28 H13A        4.6710    1.9090   -8.1190 hc        1 JPR      0.088667
     29 HN1         2.4460   -2.0130   -3.3090 hn        1 JPR      0.221000
     30 HN2         0.6180   -2.6280   -1.7440 hn        1 JPR      0.203000
     31 H3          5.6120   -0.4430   -5.9000 ha        1 JPR      0.137000
     32 H5          4.1700   -1.6710   -4.4390 ha        1 JPR      0.132000
     33 H6          1.3460    1.2950   -4.7930 ha        1 JPR      0.184000
     34 H91        -1.4450   -0.7570   -1.4280 h1        1 JPR      0.121500
     35 H92        -1.8440   -1.9730   -2.3870 h1        1 JPR      0.121500
     36 H101       -2.0160   -3.4440   -0.7780 h1        1 JPR      0.119000
     37 H102       -0.7010   -2.8420   -0.0040 h1        1 JPR      0.119000
     38 H111       -1.8030   -3.0420    2.3070 h1        1 JPR      0.132000
     39 H112       -3.3920   -3.2770    2.0910 h1        1 JPR      0.132000
     40 H13        -5.1640   -1.5340    3.2440 DU        1 JPR      0.163000
     41 H14        -4.8600    0.2410    5.0510 DU        1 JPR      0.163000
     42 H161       -2.8310    1.2090    6.5590 h4        1 JPR      0.088500
     43 H162       -1.4940    0.2930    6.5310 h4        1 JPR      0.088500
     44 H171        0.4020    1.1700    5.8710 h1        1 JPR      0.076333
     45 H172        0.3910    2.8140    5.6420 h1        1 JPR      0.076333
     46 H173       -0.2280    2.1370    7.0100 h1        1 JPR      0.076333
     47 H181       -1.7630    3.8140    4.9510 h1        1 JPR      0.076333
     48 H182       -2.0210    3.4560    6.5390 h1        1 JPR      0.076333
     49 H183       -3.0790    2.9830    5.3940 h1        1 JPR      0.076333
@<TRIPOS>BOND
     1    1   11 1   
     2    2    6 1   
     3    2   26 1   
     4    2   27 1   
     5    2   28 1   
     6    3   14 1   
     7    3   15 1   
     8    3   29 1   
     9    4   15 1   
    10    5   17 1   
    11    5   18 1   
    12    6    9 1   
    13    6   11 1   
    14    7   15 1   
    15    7   16 1   
    16    7   30 1   
    17    8   19 1   
    18    8   22 1   
    19    9   12 1   
    20    9   31 1   
    21   10   23 1   
    22   10   24 1   
    23   10   25 1   
    24   11   13 1   
    25   12   32 1   
    26   13   14 1   
    27   13   33 1   
    28   16   17 1   
    29   16   34 1   
    30   16   35 1   
    31   17   36 1   
    32   17   37 1   
    33   18   19 1   
    34   18   38 1   
    35   18   39 1   
    36   19   20 1   
    37   20   21 1   
    38   21   22 1   
    39   23   42 1   
    40   23   43 1   
    41   24   44 1   
    42   24   45 1   
    43   24   46 1   
    44   25   47 1   
    45   25   48 1   
    46   25   49 1   
@<TRIPOS>SUBSTRUCTURE
     1 JPR         1 TEMP              0 ****  ****    0 ROOT
