@<TRIPOS>MOLECULE
JPS
   37    39     1     0     0
SMALL
bcc


@<TRIPOS>ATOM
      1 CAA         0.0700   -0.1140   -0.1410 cx        1 JPS     -0.116700
      2 CAG        -0.6420   -1.3950   -0.4320 c3        1 JPS     -0.053400
      3 CAH        -2.0900   -1.1470   -0.8230 c3        1 JPS      0.008900
      4 CAM        -2.8190   -2.4040   -1.0550 cc        1 JPS     -0.119400
      5 CAI        -3.0680   -3.3890   -0.1250 cd        1 JPS     -0.117000
      6 SAK        -3.4960   -2.7920   -2.5540 ss        1 JPS     -0.063800
      7 CAO        -4.1160   -4.2650   -2.0170 cc        1 JPS     -0.150400
      8 CAN        -3.8210   -4.4740   -0.6820 cd        1 JPS     -0.051300
      9 CAR        -4.2360   -5.6770    0.1050 c3        1 JPS      0.075100
     10 CAL        -4.8190   -5.2170    1.4940 c         1 JPS      0.910600
     11 OAC        -6.0460   -4.9680    1.5860 o         1 JPS     -0.819300
     12 OAB        -3.9730   -5.1420    2.4300 o         1 JPS     -0.819300
     13 OAF        -3.0990   -6.5100    0.3160 oh        1 JPS     -0.628800
     14 CAJ        -5.2710   -6.4940   -0.6650 c3        1 JPS     -0.093400
     15 CAP        -4.9340   -6.6010   -2.1440 c3        1 JPS      0.114100
     16 OAD        -5.8330   -7.4660   -2.8220 oh        1 JPS     -0.606800
     17 CAQ        -4.9330   -5.2100   -2.8190 c3        1 JPS      0.196400
     18 OAE        -4.5010   -5.3010   -4.1680 oh        1 JPS     -0.603800
     19 CA0         1.3630   -0.1500    0.6310 cx        1 JPS     -0.137400
     20 CA1         0.1290    0.4140    1.2690 cx        1 JPS     -0.137400
     21 HAA        -0.0210    0.6240   -0.9630 hc        1 JPS      0.069700
     22 HAG1       -0.6140   -2.0720    0.4630 hc        1 JPS      0.051700
     23 HAG2       -0.1140   -1.9270   -1.2670 hc        1 JPS      0.051700
     24 HA01        2.1790    0.5350    0.3390 hc        1 JPS      0.066450
     25 HA02        1.7470   -1.1250    0.9790 hc        1 JPS      0.066450
     26 HA11       -0.3700   -0.1590    2.0720 hc        1 JPS      0.066450
     27 HA12        0.0580    1.5030    1.4340 hc        1 JPS      0.066450
     28 HAH1       -2.5970   -0.5710   -0.0000 hc        1 JPS      0.042200
     29 HAH2       -2.1210   -0.5050   -1.7440 hc        1 JPS      0.042200
     30 HAI        -2.7740   -3.3850    0.9310 ha        1 JPS      0.182000
     31 HAQ        -5.9930   -4.8290   -2.9050 h1        1 JPS      0.073700
     32 HAF        -2.7560   -6.2890    1.1980 ho        1 JPS      0.428000
     33 HAJ1       -6.2710   -6.0040   -0.5240 hc        1 JPS      0.068200
     34 HAJ2       -5.3190   -7.5230   -0.2270 hc        1 JPS      0.068200
     35 HAP        -3.9270   -7.0880   -2.2780 h1        1 JPS      0.080700
     36 HAD        -6.7240   -7.1500   -2.6340 ho        1 JPS      0.392000
     37 HAE        -3.6550   -5.7640   -4.1650 ho        1 JPS      0.398000
@<TRIPOS>BOND
     1    1    2 1   
     2    1   19 1   
     3    1   20 1   
     4    1   21 1   
     5    2    3 1   
     6    2   22 1   
     7    2   23 1   
     8    3    4 1   
     9    3   28 1   
    10    3   29 1   
    11    4    5 2   
    12    4    6 1   
    13    5    8 1   
    14    5   30 1   
    15    6    7 1   
    16    7    8 2   
    17    7   17 1   
    18    8    9 1   
    19    9   10 1   
    20    9   13 1   
    21    9   14 1   
    22   10   11 1   
    23   10   12 1   
    24   13   32 1   
    25   14   15 1   
    26   14   33 1   
    27   14   34 1   
    28   15   16 1   
    29   15   17 1   
    30   15   35 1   
    31   16   36 1   
    32   17   18 1   
    33   17   31 1   
    34   18   37 1   
    35   19   20 1   
    36   19   24 1   
    37   19   25 1   
    38   20   26 1   
    39   20   27 1   
@<TRIPOS>SUBSTRUCTURE
     1 JPS         1 TEMP              0 ****  ****    0 ROOT
