@<TRIPOS>MOLECULE
JPS
   37    39     1     0     0
SMALL
bcc


@<TRIPOS>ATOM
      1 CAA         0.1290   -0.1410   -0.0960 cx        1 JPS     -0.115700
      2 CAG        -0.6000   -1.4100   -0.4010 c3        1 JPS     -0.053400
      3 CAH        -2.0440   -1.1400   -0.7910 c3        1 JPS      0.010900
      4 CAM        -2.7880   -2.3840   -1.0400 cc        1 JPS     -0.132400
      5 CAI        -3.0630   -3.3690   -0.1150 cd        1 JPS     -0.115000
      6 SAK        -3.4460   -2.7590   -2.5490 ss        1 JPS     -0.034800
      7 CAO        -4.1030   -4.2160   -2.0220 cc        1 JPS     -0.117400
      8 CAN        -3.8240   -4.4410   -0.6850 cd        1 JPS     -0.063300
      9 CAR        -4.2520   -5.6450    0.0930 c3        1 JPS      0.078100
     10 CAL        -4.9290   -5.1840    1.4400 c         1 JPS      0.910600
     11 OAC        -6.1680   -4.9830    1.4600 o         1 JPS     -0.819300
     12 OAB        -4.1400   -5.0630    2.4210 o         1 JPS     -0.819300
     13 OAF        -3.1050   -6.4400    0.3870 oh        1 JPS     -0.628800
     14 CAJ        -5.2150   -6.5160   -0.7120 c3        1 JPS     -0.092400
     15 CAP        -4.8540   -6.5610   -2.1870 c3        1 JPS      0.107100
     16 OAD        -5.6970   -7.4360   -2.9250 oh        1 JPS     -0.624800
     17 CAQ        -4.9340   -5.1510   -2.8140 c3        1 JPS      0.200400
     18 OAE        -4.5210   -5.1670   -4.1780 oh        1 JPS     -0.616800
     19 CA0         1.4200   -0.2010    0.6780 cx        1 JPS     -0.137900
     20 CA1         0.1910    0.3720    1.3190 cx        1 JPS     -0.137900
     21 HAA         0.0490    0.6060   -0.9110 hc        1 JPS      0.069700
     22 HAG1       -0.0770   -1.9410   -1.2400 hc        1 JPS      0.051200
     23 HAG2       -0.5830   -2.0960    0.4880 hc        1 JPS      0.051200
     24 HA01        1.7900   -1.1850    1.0180 hc        1 JPS      0.066200
     25 HA02        2.2450    0.4750    0.3940 hc        1 JPS      0.066200
     26 HA11       -0.3160   -0.2010    2.1150 hc        1 JPS      0.066200
     27 HA12        0.1350    1.4600    1.4950 hc        1 JPS      0.066200
     28 HAH1       -2.5450   -0.5660    0.0360 hc        1 JPS      0.040700
     29 HAH2       -2.0650   -0.4870   -1.7060 hc        1 JPS      0.040700
     30 HAI        -2.7820   -3.3710    0.9440 ha        1 JPS      0.178000
     31 HAQ        -6.0110   -4.8020   -2.8010 h1        1 JPS      0.043700
     32 HAF        -2.8100   -6.1780    1.2750 ho        1 JPS      0.427000
     33 HAJ1       -5.1940   -7.5570   -0.2980 hc        1 JPS      0.068700
     34 HAJ2       -6.2500   -6.1020   -0.5760 hc        1 JPS      0.068700
     35 HAP        -3.8190   -6.9810   -2.3300 h1        1 JPS      0.090700
     36 HAD        -6.6030   -7.2640   -2.6420 ho        1 JPS      0.398000
     37 HAE        -4.6610   -6.0670   -4.4980 ho        1 JPS      0.410000
@<TRIPOS>BOND
     1    1    2 1   
     2    1   19 1   
     3    1   20 1   
     4    1   21 1   
     5    2    3 1   
     6    2   22 1   
     7    2   23 1   
     8    3    4 1   
     9    3   28 1   
    10    3   29 1   
    11    4    5 2   
    12    4    6 1   
    13    5    8 1   
    14    5   30 1   
    15    6    7 1   
    16    7    8 2   
    17    7   17 1   
    18    8    9 1   
    19    9   10 1   
    20    9   13 1   
    21    9   14 1   
    22   10   11 1   
    23   10   12 1   
    24   13   32 1   
    25   14   15 1   
    26   14   33 1   
    27   14   34 1   
    28   15   16 1   
    29   15   17 1   
    30   15   35 1   
    31   16   36 1   
    32   17   18 1   
    33   17   31 1   
    34   18   37 1   
    35   19   20 1   
    36   19   24 1   
    37   19   25 1   
    38   20   26 1   
    39   20   27 1   
@<TRIPOS>SUBSTRUCTURE
     1 JPS         1 TEMP              0 ****  ****    0 ROOT
