@<TRIPOS>MOLECULE
JPS
   37    39     1     0     0
SMALL
bcc


@<TRIPOS>ATOM
      1 CAA         5.1730   -0.3120    0.0810 cx        1 JPS     -0.116700
      2 CAG         3.7090   -0.3960    0.3680 c3        1 JPS     -0.053400
      3 CAH         2.8980   -0.5100   -0.9120 c3        1 JPS      0.007900
      4 CAM         1.4510   -0.5330   -0.6470 cc        1 JPS     -0.112400
      5 CAI         0.7100    0.4720   -0.0670 cd        1 JPS     -0.117000
      6 SAK         0.4760   -1.8470   -1.0750 ss        1 JPS     -0.077800
      7 CAO        -0.9350   -1.1290   -0.4880 cc        1 JPS     -0.154400
      8 CAN        -0.6800    0.1280    0.0290 cd        1 JPS     -0.041300
      9 CAR        -1.7160    1.0380    0.6100 c3        1 JPS      0.070100
     10 CAL        -1.4740    2.5030    0.0830 c         1 JPS      0.909600
     11 OAC        -2.0080    2.8600   -0.9940 o         1 JPS     -0.817800
     12 OAB        -0.7340    3.2180    0.8190 o         1 JPS     -0.817800
     13 OAF        -1.6040    1.0160    2.0310 oh        1 JPS     -0.630800
     14 CAJ        -3.1210    0.5580    0.2470 c3        1 JPS     -0.056400
     15 CAP        -3.2400   -0.9490    0.4110 c3        1 JPS      0.120100
     16 OAD        -4.5890   -1.3180    0.1500 oh        1 JPS     -0.606800
     17 CAQ        -2.2980   -1.7030   -0.5560 c3        1 JPS      0.187400
     18 OAE        -2.3450   -3.0950   -0.2580 oh        1 JPS     -0.621800
     19 CA0         6.1050    0.1970    1.1490 cx        1 JPS     -0.136900
     20 CA1         5.8370    1.0320   -0.0680 cx        1 JPS     -0.136900
     21 HAA         5.5300   -1.1370   -0.5670 hc        1 JPS      0.068700
     22 HAG1        3.5130   -1.2900    1.0180 hc        1 JPS      0.051700
     23 HAG2        3.3680    0.5100    0.9390 hc        1 JPS      0.051700
     24 HA01        5.6800    0.5130    2.1180 hc        1 JPS      0.066700
     25 HA02        7.0930   -0.2800    1.2680 hc        1 JPS      0.066700
     26 HA11        6.6340    1.1530   -0.8220 hc        1 JPS      0.066700
     27 HA12        5.2210    1.9430    0.0320 hc        1 JPS      0.066700
     28 HAH1        3.1400    0.3650   -1.5770 hc        1 JPS      0.042700
     29 HAH2        3.2050   -1.4390   -1.4640 hc        1 JPS      0.042700
     30 HAI         1.0770    1.4460    0.2780 ha        1 JPS      0.184000
     31 HAQ        -2.7060   -1.6400   -1.6070 h1        1 JPS      0.086700
     32 HAF        -1.0780    1.7940    2.2800 ho        1 JPS      0.428000
     33 HAJ1       -3.8660    1.0600    0.9150 hc        1 JPS      0.073200
     34 HAJ2       -3.3370    0.8590   -0.8100 hc        1 JPS      0.073200
     35 HAP        -2.9820   -1.2380    1.4700 h1        1 JPS      0.040700
     36 HAD        -4.5970   -2.2820    0.0870 ho        1 JPS      0.394000
     37 HAE        -1.9240   -3.2170    0.6000 ho        1 JPS      0.400000
@<TRIPOS>BOND
     1    1    2 1   
     2    1   19 1   
     3    1   20 1   
     4    1   21 1   
     5    2    3 1   
     6    2   22 1   
     7    2   23 1   
     8    3    4 1   
     9    3   28 1   
    10    3   29 1   
    11    4    5 2   
    12    4    6 1   
    13    5    8 1   
    14    5   30 1   
    15    6    7 1   
    16    7    8 2   
    17    7   17 1   
    18    8    9 1   
    19    9   10 1   
    20    9   13 1   
    21    9   14 1   
    22   10   11 1   
    23   10   12 1   
    24   13   32 1   
    25   14   15 1   
    26   14   33 1   
    27   14   34 1   
    28   15   16 1   
    29   15   17 1   
    30   15   35 1   
    31   16   36 1   
    32   17   18 1   
    33   17   31 1   
    34   18   37 1   
    35   19   20 1   
    36   19   24 1   
    37   19   25 1   
    38   20   26 1   
    39   20   27 1   
@<TRIPOS>SUBSTRUCTURE
     1 JPS         1 TEMP              0 ****  ****    0 ROOT
