@<TRIPOS>MOLECULE
JPY
   37    40     1     0     0
SMALL
bcc


@<TRIPOS>ATOM
      1 C1          0.6970   -0.8310    0.5340 c3        1 JPY     -0.187100
      2 C4          1.1460    0.4580   -0.0620 c         1 JPY      0.546100
      3 O2          1.0800    1.5780    0.4200 o         1 JPY     -0.405100
      4 N1          1.7510    0.3790   -1.4430 n4        1 JPY     -0.693800
      5 C5          3.2320    0.0890   -1.3850 c3        1 JPY      0.192100
      6 C6          3.8040    0.0530   -2.7560 ca        1 JPY     -0.217300
      7 C21         4.0580    1.2400   -3.4690 ca        1 JPY      0.031000
      8 C10         4.6100    1.1460   -4.7760 ca        1 JPY     -0.033000
      9 C20         3.7850    2.5490   -2.9380 ca        1 JPY     -0.206000
     10 C19         4.0310    3.6750   -3.6600 ca        1 JPY     -0.031000
     11 C12         4.5680    3.6090   -4.9900 ca        1 JPY     -0.071000
     12 C13         4.8190    4.7620   -5.7470 ca        1 JPY     -0.073000
     13 C14         5.3550    4.6580   -7.0290 ca        1 JPY     -0.126000
     14 C15         5.6510    3.4120   -7.5750 ca        1 JPY     -0.069000
     15 C16         5.4120    2.2390   -6.8430 ca        1 JPY     -0.054000
     16 C11         4.8630    2.3340   -5.5380 ca        1 JPY     -0.003000
     17 C17         5.7110    0.9380   -7.3780 ca        1 JPY     -0.063000
     18 C18         5.4740   -0.1890   -6.6580 ca        1 JPY     -0.144000
     19 C9          4.9150   -0.1220   -5.3360 ca        1 JPY      0.033000
     20 C8          4.6650   -1.2850   -4.5870 ca        1 JPY     -0.128000
     21 C7          4.1130   -1.1940   -3.3190 ca        1 JPY     -0.084000
     22 H1         -0.1940   -1.2260   -0.0200 hc        1 JPY      0.112700
     23 H2          0.4000   -0.6480    1.6010 hc        1 JPY      0.112700
     24 H3          1.5130   -1.5970    0.5120 hc        1 JPY      0.112700
     25 H4          1.6260    1.2770   -1.9340 hn        1 JPY      0.460800
     26 H5          3.3610   -0.9020   -0.8620 hx        1 JPY      0.104700
     27 H6          3.7070    0.8980   -0.7580 hx        1 JPY      0.104700
     28 H7          3.4110    2.6430   -1.9080 ha        1 JPY      0.115000
     29 H8          3.8290    4.6730   -3.2360 ha        1 JPY      0.149000
     30 H9          4.5930    5.7530   -5.3230 ha        1 JPY      0.148000
     31 H10         5.5500    5.5710   -7.6140 ha        1 JPY      0.155000
     32 H11         6.0780    3.3420   -8.5890 ha        1 JPY      0.152000
     33 H12         6.1410    0.8840   -8.3920 ha        1 JPY      0.153000
     34 H13         5.7070   -1.1850   -7.0670 ha        1 JPY      0.152000
     35 H14         4.9130   -2.2690   -5.0140 ha        1 JPY      0.158000
     36 H15         3.9300   -2.1150   -2.7430 ha        1 JPY      0.134000
     37 H121        1.2880   -0.3530   -1.9900 hn        1 JPY      0.460800
@<TRIPOS>BOND
     1    1    2 1   
     2    1   22 1   
     3    1   23 1   
     4    1   24 1   
     5    2    3 2   
     6    2    4 1   
     7    4    5 1   
     8    4   25 1   
     9    4   37 1   
    10    5    6 1   
    11    5   26 1   
    12    5   27 1   
    13    6    7 ar  
    14    6   21 ar  
    15    7    8 ar  
    16    7    9 ar  
    17    8   16 ar  
    18    8   19 ar  
    19    9   10 ar  
    20    9   28 1   
    21   10   11 ar  
    22   10   29 1   
    23   11   12 ar  
    24   11   16 ar  
    25   12   13 ar  
    26   12   30 1   
    27   13   14 ar  
    28   13   31 1   
    29   14   15 ar  
    30   14   32 1   
    31   15   16 ar  
    32   15   17 ar  
    33   17   18 ar  
    34   17   33 1   
    35   18   19 ar  
    36   18   34 1   
    37   19   20 ar  
    38   20   21 ar  
    39   20   35 1   
    40   21   36 1   
@<TRIPOS>SUBSTRUCTURE
     1 JPY         1 TEMP              0 ****  ****    0 ROOT
