@<TRIPOS>MOLECULE
JPY
   37    40     1     0     0
SMALL
bcc


@<TRIPOS>ATOM
      1 C1          0.7120   -0.8250    0.5480 c3        1 JPY     -0.187100
      2 C4          1.1530    0.4640   -0.0560 c         1 JPY      0.546100
      3 O2          1.0810    1.5860    0.4190 o         1 JPY     -0.405100
      4 N1          1.7570    0.3800   -1.4380 ny        1 JPY     -0.693800
      5 C5          3.2390    0.0980   -1.3800 c3        1 JPY      0.192100
      6 C6          3.8110    0.0580   -2.7500 ca        1 JPY     -0.217300
      7 C21         4.0580    1.2430   -3.4690 ca        1 JPY      0.031000
      8 C10         4.6090    1.1450   -4.7770 ca        1 JPY     -0.033000
      9 C20         3.7800    2.5530   -2.9450 ca        1 JPY     -0.206000
     10 C19         4.0190    3.6760   -3.6720 ca        1 JPY     -0.031000
     11 C12         4.5560    3.6070   -5.0030 ca        1 JPY     -0.071000
     12 C13         4.8010    4.7570   -5.7650 ca        1 JPY     -0.073000
     13 C14         5.3360    4.6500   -7.0470 ca        1 JPY     -0.126000
     14 C15         5.6380    3.4020   -7.5880 ca        1 JPY     -0.069000
     15 C16         5.4040    2.2320   -6.8500 ca        1 JPY     -0.054000
     16 C11         4.8560    2.3300   -5.5450 ca        1 JPY     -0.003000
     17 C17         5.7090    0.9300   -7.3780 ca        1 JPY     -0.063000
     18 C18         5.4780   -0.1960   -6.6520 ca        1 JPY     -0.144000
     19 C9          4.9200   -0.1250   -5.3300 ca        1 JPY      0.033000
     20 C8          4.6760   -1.2840   -4.5750 ca        1 JPY     -0.128000
     21 C7          4.1250   -1.1900   -3.3080 ca        1 JPY     -0.084000
     22 H1         -0.1770   -1.2270   -0.0030 hc        1 JPY      0.112700
     23 H2          0.4150   -0.6370    1.6150 hc        1 JPY      0.112700
     24 H3          1.5320   -1.5860    0.5290 hc        1 JPY      0.112700
     25 H4          1.2970   -0.3560   -1.9800 hn        1 JPY      0.460800
     26 H5          3.3740   -0.8890   -0.8510 hx        1 JPY      0.104700
     27 H6          3.7110    0.9120   -0.7560 hx        1 JPY      0.104700
     28 H7          3.4050    2.6510   -1.9150 ha        1 JPY      0.115000
     29 H8          3.8130    4.6760   -3.2530 ha        1 JPY      0.149000
     30 H9          4.5700    5.7490   -5.3460 ha        1 JPY      0.148000
     31 H10         5.5260    5.5610   -7.6370 ha        1 JPY      0.155000
     32 H11         6.0640    3.3290   -8.6010 ha        1 JPY      0.152000
     33 H12         6.1380    0.8730   -8.3920 ha        1 JPY      0.153000
     34 H13         5.7150   -1.1920   -7.0570 ha        1 JPY      0.152000
     35 H14         4.9280   -2.2700   -4.9980 ha        1 JPY      0.158000
     36 H15         3.9470   -2.1090   -2.7270 ha        1 JPY      0.134000
     37 H121        1.6270    1.2750   -1.9320 hn        1 JPY      0.460800
@<TRIPOS>BOND
     1    1    2 1   
     2    1   22 1   
     3    1   23 1   
     4    1   24 1   
     5    2    3 2   
     6    2    4 1   
     7    4    5 1   
     8    4   25 1   
     9    4   37 1   
    10    5    6 1   
    11    5   26 1   
    12    5   27 1   
    13    6    7 ar  
    14    6   21 ar  
    15    7    8 ar  
    16    7    9 ar  
    17    8   16 ar  
    18    8   19 ar  
    19    9   10 ar  
    20    9   28 1   
    21   10   11 ar  
    22   10   29 1   
    23   11   12 ar  
    24   11   16 ar  
    25   12   13 ar  
    26   12   30 1   
    27   13   14 ar  
    28   13   31 1   
    29   14   15 ar  
    30   14   32 1   
    31   15   16 ar  
    32   15   17 ar  
    33   17   18 ar  
    34   17   33 1   
    35   18   19 ar  
    36   18   34 1   
    37   19   20 ar  
    38   20   21 ar  
    39   20   35 1   
    40   21   36 1   
@<TRIPOS>SUBSTRUCTURE
     1 JPY         1 TEMP              0 ****  ****    0 ROOT
