@<TRIPOS>MOLECULE
JPZ
   17    18     1     0     0
SMALL
bcc


@<TRIPOS>ATOM
      1 C9         -0.0050   -0.0000   -0.0210 ca        1 JPZ     -0.170000
      2 C8          1.3940   -0.0000   -0.0270 ca        1 JPZ     -0.070000
      3 C10        -0.6950   -0.0000    1.1850 ca        1 JPZ     -0.039000
      4 C7          2.1120   -0.0000    1.1610 ca        1 JPZ     -0.191000
      5 C4          1.3490    0.0000    4.7910 cc        1 JPZ      0.671100
      6 C11         0.0000    0.0000    2.3990 ca        1 JPZ     -0.216600
      7 C6          1.4210    0.0000    2.3940 ca        1 JPZ      0.172600
      8 C2         -0.7290    0.0000    3.6950 c         1 JPZ      0.700100
      9 N5          2.0960    0.0000    3.6190 na        1 JPZ     -0.734600
     10 N3          0.0480   -0.0000    4.8880 nd        1 JPZ     -0.678100
     11 O1         -1.9680    0.0000    3.7500 o         1 JPZ     -0.531100
     12 H9         -0.5560   -0.0000   -0.9730 ha        1 JPZ      0.142000
     13 H8          1.9350   -0.0000   -0.9860 ha        1 JPZ      0.137000
     14 H10        -1.7980   -0.0000    1.2100 ha        1 JPZ      0.164000
     15 H7          3.2110    0.0000    1.1400 ha        1 JPZ      0.137000
     16 H4          1.9450   -0.0000    5.7320 h5        1 JPZ      0.052800
     17 H6          3.0870    0.0000    3.6350 hn        1 JPZ      0.454800
@<TRIPOS>BOND
     1    1    2 ar  
     2    1    3 ar  
     3    1   12 1   
     4    2    4 ar  
     5    2   13 1   
     6    3    6 ar  
     7    3   14 1   
     8    4    7 ar  
     9    4   15 1   
    10    5    9 1   
    11    5   10 2   
    12    5   16 1   
    13    6    7 ar  
    14    6    8 1   
    15    7    9 1   
    16    8   10 1   
    17    8   11 2   
    18    9   17 1   
@<TRIPOS>SUBSTRUCTURE
     1 JPZ         1 TEMP              0 ****  ****    0 ROOT
