@<TRIPOS>MOLECULE
JPZ
   17    14     1     0     0
SMALL
bcc


@<TRIPOS>ATOM
      1 C9         -0.7410    0.0030   -2.2600 c1        1 JPZ     -0.060000
      2 C8          0.6480    0.0030   -2.2600 c1        1 JPZ     -0.060000
      3 C10        -1.4350    0.0030   -1.0580 c1        1 JPZ     -0.060000
      4 C7          1.3420    0.0030   -1.0590 c1        1 JPZ     -0.060000
      5 C4          0.6470    0.0030    2.6750 c1        1 JPZ      0.485300
      6 C11        -0.7330    0.0030    0.1590 c1        1 JPZ     -0.196000
      7 C6          0.6400    0.0030    0.1590 c1        1 JPZ      0.311400
      8 C2         -1.4850    0.0030    1.4650 ce        1 JPZ      0.573300
      9 N5          1.3680    0.0030    1.4220 n2        1 JPZ     -0.760800
     10 N3         -0.7820    0.0030    2.6780 n1        1 JPZ     -0.583800
     11 O1         -2.6990   -0.0410    1.4670 o         1 JPZ     -0.557300
     12 H9         -1.2290    0.0030   -3.1060 ha        1 JPZ      0.087500
     13 H8          1.1360    0.0030   -3.1060 ha        1 JPZ      0.087500
     14 H10        -2.4120    0.0030   -1.0590 ha        1 JPZ      0.087500
     15 H7          2.3180    0.0030   -1.0590 ha        1 JPZ      0.087500
     16 H4          1.1360    0.0030    3.5200 ha        1 JPZ      0.124500
     17 H6          2.2800    0.0030    1.4220 hn        1 JPZ      0.494400
@<TRIPOS>BOND
     1    1    3 3   
     2    1   12 1   
     3    2    4 3   
     4    2   13 1   
     5    3   14 1   
     6    4   15 1   
     7    5   10 3   
     8    5   16 1   
     9    6    7 2   
    10    6    8 2   
    11    7    9 2   
    12    8   10 1   
    13    8   11 1   
    14    9   17 1   
@<TRIPOS>SUBSTRUCTURE
     1 JPZ         1 TEMP              0 ****  ****    0 ROOT
