@<TRIPOS>MOLECULE
JPZ
   17    18     1     0     0
SMALL
bcc


@<TRIPOS>ATOM
      1 C9         -2.4130    1.0470   -0.0010 ca        1 JPZ     -0.170000
      2 C8         -2.7450   -0.3120   -0.0010 ca        1 JPZ     -0.070000
      3 C10        -1.0800    1.4360   -0.0010 ca        1 JPZ     -0.039000
      4 C7         -1.7570   -1.2870   -0.0000 ca        1 JPZ     -0.191000
      5 C4          1.9510   -1.3920    0.0000 cc        1 JPZ      0.671100
      6 C11        -0.0610    0.4780   -0.0000 ca        1 JPZ     -0.216600
      7 C6         -0.3970   -0.9030   -0.0000 ca        1 JPZ      0.172600
      8 C2          1.3700    0.8840   -0.0000 c         1 JPZ      0.700100
      9 N5          0.6360   -1.8450    0.0000 na        1 JPZ     -0.734600
     10 N3          2.3480   -0.1490    0.0000 nd        1 JPZ     -0.678100
     11 O1          1.7120    2.0770   -0.0000 o         1 JPZ     -0.531100
     12 H9         -3.2100    1.8050   -0.0010 ha        1 JPZ      0.142000
     13 H8         -3.8040   -0.6150   -0.0010 ha        1 JPZ      0.137000
     14 H10        -0.7970    2.5030   -0.0010 ha        1 JPZ      0.164000
     15 H7         -2.0340   -2.3520   -0.0000 ha        1 JPZ      0.137000
     16 H4          2.7260   -2.1910    0.0010 h5        1 JPZ      0.052800
     17 H6          0.4210   -2.8120    0.0000 hn        1 JPZ      0.454800
@<TRIPOS>BOND
     1    1    2 ar  
     2    1    3 ar  
     3    1   12 1   
     4    2    4 ar  
     5    2   13 1   
     6    3    6 ar  
     7    3   14 1   
     8    4    7 ar  
     9    4   15 1   
    10    5    9 1   
    11    5   10 2   
    12    5   16 1   
    13    6    7 ar  
    14    6    8 1   
    15    7    9 1   
    16    8   10 1   
    17    8   11 2   
    18    9   17 1   
@<TRIPOS>SUBSTRUCTURE
     1 JPZ         1 TEMP              0 ****  ****    0 ROOT
