@<TRIPOS>MOLECULE
JQ1
   57    53     1     0     0
SMALL
bcc


@<TRIPOS>ATOM
      1 CAA        -4.9440   -1.0280   -0.8430 c3        1 JQ1     -0.173000
      2 CAB        -1.7430   -0.7970   -5.4670 c3        1 JQ1     -0.170000
      3 CAC         0.3020    0.5620   -3.4750 c3        1 JQ1     -0.176000
      4 CAD         0.8460    3.7090    3.0810 c3        1 JQ1     -0.234000
      5 CAE         2.4710    2.9500    4.8090 c3        1 JQ1     -0.234000
      6 CAF         0.0300    2.6230    5.1510 c3        1 JQ1     -0.234000
      7 OAG        -0.9870    1.3960    2.8520 o         1 JQ1     -0.414000
      8 CLAH        5.3220   -4.8250   -1.4480 cl        1 JQ1      0.028000
      9 CAI         3.9080   -2.7200   -2.2760 c1        1 JQ1     -0.100000
     10 CAJ         2.7830   -4.0720   -0.6370 c1        1 JQ1     -0.129000
     11 CAK         2.8100   -1.8710   -2.3280 c1        1 JQ1     -0.100000
     12 CAL         1.6840   -3.2230   -0.6890 c1        1 JQ1     -0.094000
     13 CAM         0.4650    0.4990    1.2070 c3        1 JQ1     -0.188000
     14 NAN         0.0130   -1.6020    0.2800 n1        1 JQ1     -0.187000
     15 NAO        -3.5510    0.8190    0.3600 n2        1 JQ1     -0.008000
     16 NAP        -2.2220    1.1110    0.3960 n2        1 JQ1     -0.095000
     17 OAQ         1.2170    1.3670    3.4850 os        1 JQ1     -0.258000
     18 SAR        -2.9560   -1.2900   -2.8850 ss        1 JQ1      0.684000
     19 CAS         0.1590    1.1180    2.5570 c2        1 JQ1      0.326000
     20 CAT         0.3490   -1.5670   -1.0670 c1        1 JQ1      0.148000
     21 CAU         3.8950   -3.8180   -1.4320 c1        1 JQ1     -0.035000
     22 CAV        -3.7010   -0.3840   -0.2470 c2        1 JQ1      0.006000
     23 CAW         1.6970   -2.1250   -1.5320 c1        1 JQ1     -0.090000
     24 CAX        -2.1190   -0.6450   -4.0150 c2        1 JQ1     -0.347000
     25 CAY        -0.7410   -0.5460   -3.5490 c2        1 JQ1     -0.049000
     26 CAZ        -1.5510    0.0850   -0.1890 c1        1 JQ1      0.079000
     27 CBA        -0.6640   -1.1420   -2.0710 c2        1 JQ1     -0.094000
     28 CBB        -1.9870   -1.5810   -1.6860 c2        1 JQ1     -0.350000
     29 CBC        -0.5790   -0.5070    0.8700 c1        1 JQ1      0.041000
     30 NBD        -2.4640   -0.8410   -0.5870 nh        1 JQ1     -0.046000
     31 CBE         1.1390    2.6400    4.1210 c3        1 JQ1      0.104000
     32 HAA        -5.3570   -0.4100   -1.4860 hc        1 JQ1      0.136000
     33 HAAA       -4.6950   -1.8570   -1.3010 hc        1 JQ1      0.136000
     34 HAAB       -5.5860   -1.2300   -0.1250 hc        1 JQ1      0.136000
     35 HAB        -2.4750   -0.4710   -6.0300 hc        1 JQ1      0.111000
     36 HABA       -0.9320   -0.2770   -5.6510 hc        1 JQ1      0.111000
     37 HABB       -1.5760   -1.7410   -5.6630 hc        1 JQ1      0.111000
     38 HAC         1.1240    0.2700   -3.9270 hc        1 JQ1      0.106667
     39 HACA       -0.0440    1.3670   -3.9160 hc        1 JQ1      0.106667
     40 HACB        0.4990    0.7630   -2.5360 hc        1 JQ1      0.106667
     41 HAD        -0.1270    3.7880    2.9580 hc        1 JQ1      0.097778
     42 HADA        1.2640    3.4610    2.2310 hc        1 JQ1      0.097778
     43 HADB        1.2070    4.5640    3.3840 hc        1 JQ1      0.097778
     44 HAE         3.2050    2.8580    4.1600 hc        1 JQ1      0.097778
     45 HAEA        2.6100    2.3240    5.5510 hc        1 JQ1      0.097778
     46 HAEB        2.4530    3.8700    5.1560 hc        1 JQ1      0.097778
     47 HAF        -0.8420    2.6880    4.6960 hc        1 JQ1      0.097778
     48 HAFA        0.0700    1.7890    5.6590 hc        1 JQ1      0.097778
     49 HAFB        0.1380    3.3810    5.7580 hc        1 JQ1      0.097778
     50 HAI         4.6890   -2.5420   -2.8330 ha        1 JQ1      0.159000
     51 HAJ         2.7750   -4.8490   -0.0400 ha        1 JQ1      0.162000
     52 HAK         2.8190   -1.0990   -2.9210 ha        1 JQ1      0.159000
     53 HAL         0.9040   -3.4020   -0.1310 ha        1 JQ1      0.139000
     54 HAM         1.3370    0.0630    1.2400 hc        1 JQ1      0.151500
     55 HAMA        0.4760    1.2010    0.5200 hc        1 JQ1      0.151500
     56 HNAP       -1.8470    1.8630    0.7510 DU        1 JQ1      0.356000
     57 HBC        -0.9690   -0.6670    1.7500 ha        1 JQ1      0.172000
@<TRIPOS>BOND
     1    1   22 1   
     2    1   32 1   
     3    1   33 1   
     4    1   34 1   
     5    2   24 1   
     6    2   35 1   
     7    2   36 1   
     8    2   37 1   
     9    3   25 1   
    10    3   38 1   
    11    3   39 1   
    12    3   40 1   
    13    4   31 1   
    14    4   41 1   
    15    4   42 1   
    16    4   43 1   
    17    5   31 1   
    18    5   44 1   
    19    5   45 1   
    20    5   46 1   
    21    6   31 1   
    22    6   47 1   
    23    6   48 1   
    24    6   49 1   
    25    7   19 1   
    26    8   21 1   
    27    9   11 1   
    28    9   50 1   
    29   10   21 1   
    30   10   51 1   
    31   11   52 1   
    32   12   23 1   
    33   12   53 1   
    34   13   19 1   
    35   13   29 1   
    36   13   54 1   
    37   13   55 1   
    38   14   20 1   
    39   15   16 1   
    40   15   22 1   
    41   16   26 1   
    42   17   19 1   
    43   17   31 1   
    44   18   24 1   
    45   18   28 1   
    46   20   27 1   
    47   22   30 1   
    48   24   25 1   
    49   25   27 1   
    50   26   30 1   
    51   27   28 1   
    52   28   30 1   
    53   29   57 1   
@<TRIPOS>SUBSTRUCTURE
     1 JQ1         1 TEMP              0 ****  ****    0 ROOT
