@<TRIPOS>MOLECULE
JQ1
   57    59     1     0     0
SMALL
bcc


@<TRIPOS>ATOM
      1 CAA         0.6080    0.7640    0.9380 c3        1 JQ1     -0.174000
      2 CAB         2.7090    2.3940   -4.2550 c3        1 JQ1     -0.169000
      3 CAC         5.2410    0.7620   -3.8650 c3        1 JQ1     -0.175000
      4 CAD         7.8370    4.1470    4.6350 c3        1 JQ1     -0.233333
      5 CAE         5.6810    5.3280    4.0990 c3        1 JQ1     -0.233333
      6 CAF         7.8250    6.0850    3.0460 c3        1 JQ1     -0.233333
      7 OAG         5.7220    2.4560    3.4870 o         1 JQ1     -0.414000
      8 CAI         6.4490   -3.2400   -3.0230 c2        1 JQ1      0.095000
      9 CAJ         8.6530   -3.2150   -4.1320 c1        1 JQ1     -0.232000
     10 CAK         6.6280   -1.9960   -2.4950 c2        1 JQ1     -0.196000
     11 CAL         9.6770   -2.6440   -4.3700 c1        1 JQ1     -0.104000
     12 CAM         6.2270    2.1730    1.1100 c3        1 JQ1     -0.192000
     13 NAN         6.0740   -0.1880    0.2340 n2        1 JQ1     -0.269000
     14 NAO         2.3280    0.6290    2.7970 n2        1 JQ1     -0.017000
     15 NAP         3.6680    0.6280    2.8510 na        1 JQ1     -0.099000
     16 OAQ         6.8790    4.0580    2.3870 os        1 JQ1     -0.260000
     17 SAR         2.2370    1.9660   -1.5870 ss        1 JQ1      0.679000
     18 CAS         6.2360    2.8760    2.4410 c2        1 JQ1      0.324000
     19 CAT         5.4570   -0.2910   -0.9200 c2        1 JQ1      0.110000
     20 CAU         7.4510   -3.9440   -3.8710 c3        1 JQ1      0.036000
     21 CAV         1.9850    0.7450    1.4860 c2        1 JQ1      0.007000
     22 CAW         5.6390   -1.4720   -1.6770 c1        1 JQ1     -0.032000
     23 CAX         3.1230    1.7950   -2.9820 c2        1 JQ1     -0.346000
     24 CAY         4.2720    1.0320   -2.7930 c2        1 JQ1     -0.068000
     25 CAZ         4.2440    0.7660    1.6060 c2        1 JQ1      0.090000
     26 CBA         4.3840    0.5800   -1.4430 c2        1 JQ1     -0.066000
     27 CBB         3.3170    1.0530   -0.6610 c2        1 JQ1     -0.338000
     28 CBC         5.7310    0.7260    1.2740 c3        1 JQ1      0.060000
     29 NBD         3.1850    0.8480    0.7120 na        1 JQ1     -0.049000
     30 CBE         7.0380    4.8900    3.5790 c3        1 JQ1      0.103000
     31 HAA         0.6110    0.6810   -0.1790 hc        1 JQ1      0.134667
     32 HAAA        0.0260   -0.0960    1.3610 hc        1 JQ1      0.134667
     33 HAAB        0.1000    1.7180    1.2360 hc        1 JQ1      0.134667
     34 HAB         1.7360    2.9380   -4.1570 hc        1 JQ1      0.109333
     35 HABA        3.4870    3.1190   -4.6120 hc        1 JQ1      0.109333
     36 HABB        2.5940    1.5990   -5.0380 hc        1 JQ1      0.109333
     37 HAC         5.5090    1.7160   -4.3900 hc        1 JQ1      0.102667
     38 HACA        6.1790    0.3020   -3.4660 hc        1 JQ1      0.102667
     39 HACB        4.7940    0.0670   -4.6230 hc        1 JQ1      0.102667
     40 HAD         7.2450    3.2960    5.0500 hc        1 JQ1      0.096667
     41 HADA        8.7830    3.7510    4.1950 hc        1 JQ1      0.096667
     42 HADB        8.0900    4.8490    5.4650 hc        1 JQ1      0.096667
     43 HAE         5.1270    4.4620    4.5330 hc        1 JQ1      0.096667
     44 HAEA        5.0760    5.7720    3.2730 hc        1 JQ1      0.096667
     45 HAEB        5.8240    6.0980    4.8950 hc        1 JQ1      0.096667
     46 HAF         7.2470    6.6030    2.2450 hc        1 JQ1      0.096667
     47 HAFA        8.0120    6.7960    3.8850 hc        1 JQ1      0.096667
     48 HAFB        8.8010    5.7470    2.6240 hc        1 JQ1      0.096667
     49 HAI         5.5140   -3.8050   -2.8300 ha        1 JQ1      0.172000
     50 HAJ         7.7060   -4.9320   -3.3780 h1        1 JQ1      0.169000
     51 HAK         7.5620   -1.4370   -2.7010 ha        1 JQ1      0.143000
     52 HAL        10.5910   -2.1410   -4.5790 ha        1 JQ1      0.241000
     53 HAM         7.2770    2.1630    0.7040 hc        1 JQ1      0.147500
     54 HAMA        5.5920    2.7510    0.3910 hc        1 JQ1      0.147500
     55 HNAP        4.1590    0.6920    3.7320 hn        1 JQ1      0.351000
     56 HBC         6.2530    0.2970    2.1950 h1        1 JQ1      0.162000
     57 CLAH        6.6510   -4.3790   -5.3930 cl        1 JQ1     -0.046000
@<TRIPOS>BOND
     1    1   21 1   
     2    1   31 1   
     3    1   32 1   
     4    1   33 1   
     5    2   23 1   
     6    2   34 1   
     7    2   35 1   
     8    2   36 1   
     9    3   24 1   
    10    3   37 1   
    11    3   38 1   
    12    3   39 1   
    13    4   30 1   
    14    4   40 1   
    15    4   41 1   
    16    4   42 1   
    17    5   30 1   
    18    5   43 1   
    19    5   44 1   
    20    5   45 1   
    21    6   30 1   
    22    6   46 1   
    23    6   47 1   
    24    6   48 1   
    25    7   18 1   
    26    8   10 1   
    27    8   20 1   
    28    8   49 1   
    29    9   11 1   
    30    9   20 1   
    31   10   22 1   
    32   10   51 1   
    33   11   52 1   
    34   12   18 1   
    35   12   28 1   
    36   12   53 1   
    37   12   54 1   
    38   13   19 1   
    39   13   28 1   
    40   14   15 1   
    41   14   21 1   
    42   15   25 1   
    43   15   55 1   
    44   16   18 1   
    45   16   30 1   
    46   17   23 1   
    47   17   27 1   
    48   19   22 1   
    49   19   26 1   
    50   20   50 1   
    51   20   57 1   
    52   21   29 1   
    53   23   24 1   
    54   24   26 1   
    55   25   28 1   
    56   25   29 1   
    57   26   27 1   
    58   27   29 1   
    59   28   56 1   
@<TRIPOS>SUBSTRUCTURE
     1 JQ1         1 TEMP              0 ****  ****    0 ROOT
