@<TRIPOS>MOLECULE
JQ1
   57    58     1     0     0
SMALL
bcc


@<TRIPOS>ATOM
      1 CAA         0.3670   -1.2080   -0.1360 c3        1 JQ1     -0.211000
      2 CAB         2.7080    3.3070   -3.7330 c3        1 JQ1     -0.174000
      3 CAC         5.2660    1.8990   -2.8960 c3        1 JQ1     -0.178000
      4 CAD         8.9510    2.9910    1.1770 c3        1 JQ1     -0.233000
      5 CAE         8.4190    4.0020    3.4170 c3        1 JQ1     -0.233000
      6 CAF         8.1550    5.3610    1.3310 c3        1 JQ1     -0.233000
      7 OAG         6.8830    1.6070    2.7720 o         1 JQ1     -0.342000
      8 CAI         7.1790   -2.2340   -2.3810 c2        1 JQ1     -0.111000
      9 CAJ         8.8550   -1.4400    0.3360 c1        1 JQ1      0.124000
     10 CAK         6.2690   -1.4060   -1.7150 c1        1 JQ1      0.041000
     11 CAL         9.0360   -0.8230    1.4660 c2        1 JQ1     -0.537000
     12 CAM         4.6860    2.3490    1.9750 c3        1 JQ1     -0.189000
     13 NAN         4.8760    0.0440    1.0170 n2        1 JQ1     -0.170000
     14 NAO         1.2780   -0.9020    2.2670 n2        1 JQ1      0.020000
     15 NAP         2.0620   -0.1880    2.8840 n2        1 JQ1      0.069000
     16 OAQ         6.6630    3.6190    1.7560 os        1 JQ1     -0.279000
     17 SAR         1.5560    2.1630   -1.5230 ss        1 JQ1      0.719000
     18 CAS         6.1700    2.4460    2.2190 c2        1 JQ1      0.319000
     19 CAT         4.7460    0.1560   -0.2730 c2        1 JQ1      0.213000
     20 CAU         7.0130   -2.7800   -3.5940 c2        1 JQ1     -0.092000
     21 CAV         1.2180   -0.5030    0.8360 c2        1 JQ1      0.131000
     22 CAW         5.5400   -0.6780   -1.0970 c1        1 JQ1     -0.208000
     23 CAX         2.8260    2.4480   -2.5500 c2        1 JQ1     -0.338000
     24 CAY         3.9980    1.7870   -2.1620 c2        1 JQ1     -0.047000
     25 CAZ         2.6650    0.8680    1.9930 c3        1 JQ1     -0.083000
     26 CBA         3.7890    1.0320   -0.9780 c2        1 JQ1     -0.055000
     27 CBB         2.4600    1.1700   -0.5130 c2        1 JQ1     -0.429000
     28 CBC         4.2350    0.8780    1.9870 c3        1 JQ1     -0.006000
     29 NBD         2.0180    0.5660    0.6600 nh        1 JQ1     -0.040000
     30 CBE         8.0690    3.9630    1.9400 c3        1 JQ1      0.103000
     31 HAA         0.6640   -2.2950   -0.1560 hc        1 JQ1      0.160000
     32 HAAA       -0.7060   -1.1570    0.1950 hc        1 JQ1      0.160000
     33 HAAB        0.4620   -0.7840   -1.1670 hc        1 JQ1      0.160000
     34 HAB         1.6740    3.7180   -3.8440 hc        1 JQ1      0.114000
     35 HABA        2.9620    2.7260   -4.6590 hc        1 JQ1      0.114000
     36 HABB        3.4270    4.1650   -3.6600 hc        1 JQ1      0.114000
     37 HAC         5.1480    1.4840   -3.9300 hc        1 JQ1      0.109667
     38 HACA        6.0900    1.3440   -2.3820 hc        1 JQ1      0.109667
     39 HACB        5.5610    2.9760   -2.9870 hc        1 JQ1      0.109667
     40 HAD         8.6360    2.9430    0.1070 hc        1 JQ1      0.095444
     41 HADA        8.8880    1.9670    1.6190 hc        1 JQ1      0.095444
     42 HADB       10.0110    3.3400    1.2260 hc        1 JQ1      0.095444
     43 HAE         9.4350    4.4480    3.5430 hc        1 JQ1      0.095444
     44 HAEA        7.6790    4.6260    3.9720 hc        1 JQ1      0.095444
     45 HAEB        8.4220    2.9720    3.8490 hc        1 JQ1      0.095444
     46 HAF         7.4890    6.0640    1.8830 hc        1 JQ1      0.095444
     47 HAFA        9.2090    5.7210    1.4010 hc        1 JQ1      0.095444
     48 HAFB        7.8450    5.3360    0.2600 hc        1 JQ1      0.095444
     49 HAI         8.1120   -2.4210   -1.7970 ha        1 JQ1      0.208000
     50 HAJ         7.7760   -3.4280   -4.0540 h4        1 JQ1      0.173000
     51 HAK         9.9850   -0.8260    2.0280 ha        1 JQ1      0.208000
     52 HAL         8.2460   -0.2420    1.9800 ha        1 JQ1      0.208000
     53 HAM         4.4330    2.8430    1.0010 hc        1 JQ1      0.131000
     54 HAMA        4.1770    2.9110    2.8030 hc        1 JQ1      0.131000
     55 HNAP        2.2850    1.8750    2.3530 h2        1 JQ1      0.205000
     56 HBC         4.5690    0.4360    2.9850 h1        1 JQ1      0.188000
     57 CLAH        5.6530   -2.5740   -4.5720 cl        1 JQ1     -0.011000
@<TRIPOS>BOND
     1    1   21 1   
     2    1   31 1   
     3    1   32 1   
     4    1   33 1   
     5    2   23 1   
     6    2   34 1   
     7    2   35 1   
     8    2   36 1   
     9    3   24 1   
    10    3   37 1   
    11    3   38 1   
    12    3   39 1   
    13    4   30 1   
    14    4   40 1   
    15    4   41 1   
    16    4   42 1   
    17    5   30 1   
    18    5   43 1   
    19    5   44 1   
    20    5   45 1   
    21    6   30 1   
    22    6   46 1   
    23    6   47 1   
    24    6   48 1   
    25    7   18 1   
    26    8   10 1   
    27    8   20 1   
    28    8   49 1   
    29    9   11 1   
    30   10   22 1   
    31   11   51 1   
    32   11   52 1   
    33   12   18 1   
    34   12   28 1   
    35   12   53 1   
    36   12   54 1   
    37   13   19 1   
    38   13   28 1   
    39   14   15 1   
    40   14   21 1   
    41   15   25 1   
    42   16   18 1   
    43   16   30 1   
    44   17   23 1   
    45   17   27 1   
    46   19   22 1   
    47   19   26 1   
    48   20   50 1   
    49   20   57 1   
    50   21   29 1   
    51   23   24 1   
    52   24   26 1   
    53   25   28 1   
    54   25   29 1   
    55   25   55 1   
    56   26   27 1   
    57   27   29 1   
    58   28   56 1   
@<TRIPOS>SUBSTRUCTURE
     1 JQ1         1 TEMP              0 ****  ****    0 ROOT
