@<TRIPOS>MOLECULE
JQ1
   57    68     1     0     0
SMALL
bcc


@<TRIPOS>ATOM
      1 CAA         0.0000    0.0000    0.0000 c3        1 JQ1     -0.004000
      2 CAB         3.4850    2.6890   -3.9080 c3        1 JQ1     -0.365000
      3 CAC         5.8050    1.3120   -2.6420 c3        1 JQ1     -0.261000
      4 CAD         8.7710    3.4140    1.2650 c3        1 JQ1     -0.438000
      5 CAE         8.0910    4.1260    3.5620 c3        1 JQ1     -0.358000
      6 CAF         8.1000    5.7830    1.6920 c3        1 JQ1     -0.358000
      7 OAG         6.8410    1.9430    2.5090 o         1 JQ1     -0.361000
      8 CAI         6.6250   -2.3350   -2.5690 c3        1 JQ1     -0.106000
      9 CAJ         8.3950   -1.6030   -1.1210 c2        1 JQ1     -0.141000
     10 CAK         5.7210   -1.5740   -1.8570 c3        1 JQ1     -0.065000
     11 CAL         7.4990   -0.8380   -0.4030 c2        1 JQ1     -0.113000
     12 CAM         4.6430    2.3120    1.7420 c3        1 JQ1     -0.452000
     13 NAN         5.2930    0.0000    1.2920 n2        1 JQ1     -0.035000
     14 NAO         0.9460   -0.2300    2.3070 n2        1 JQ1     -0.016000
     15 NAP         2.1860    0.0040    2.9240 n7        1 JQ1      0.089000
     16 OAQ         6.4570    3.9870    1.7610 os        1 JQ1     -0.271000
     17 SAR         1.9870    1.8580   -1.5770 ss        1 JQ1      0.348000
     18 CAS         6.0610    2.7340    2.0330 c2        1 JQ1      0.339000
     19 CAT         5.1870    0.0000    0.0000 c2        1 JQ1      0.101000
     20 CAU         7.9600   -2.3500   -2.2020 c2        1 JQ1      0.309000
     21 CAV         1.0800    0.0910    1.0470 c2        1 JQ1     -0.201000
     22 CAW         6.1530   -0.8190   -0.7670 c3        1 JQ1      0.285000
     23 CAX         3.4220    1.9810   -2.5800 c3        1 JQ1     -0.277000
     24 CAY         4.4400    1.3630   -2.0060 c2        1 JQ1     -0.091000
     25 CAZ         3.0100    0.4610    1.9680 c3        1 JQ1     -0.093000
     26 CBA         4.1730    0.7570   -0.7640 c2        1 JQ1     -0.002000
     27 CBB         2.8650    0.9470   -0.3570 c2        1 JQ1     -0.412000
     28 CBC         4.4550    0.8480    2.1410 c3        1 JQ1      0.069000
     29 NBD         2.3340    0.5130    0.8400 n3        1 JQ1      0.448000
     30 CBE         7.8370    4.3230    2.0660 DU        1 JQ1      0.019000
     31 HAA         0.9570   -0.4750   -0.1800 hc        1 JQ1      0.107000
     32 HAAA       -0.2800    0.9970   -0.3170 hc        1 JQ1      0.107000
     33 HAAB       -0.8650   -0.5030    0.4160 hc        1 JQ1      0.107000
     34 HAB         2.8640    2.0420   -3.3000 DU        1 JQ1      0.376000
     35 HABA        4.1640    3.5300   -3.8370 hc        1 JQ1      0.131500
     36 HABB        2.4970    3.0450   -4.1750 hc        1 JQ1      0.131500
     37 HAC         5.0720    1.5680   -3.3980 hc        1 JQ1      0.143333
     38 HACA        6.5530    1.1350   -1.8780 hc        1 JQ1      0.143333
     39 HACB        5.8340    0.5090   -3.3690 hc        1 JQ1      0.143333
     40 HAD         8.2100    3.1790    0.3690 hc        1 JQ1      0.178667
     41 HADA        8.3730    3.2770    0.2670 hc        1 JQ1      0.178667
     42 HADB        8.8510    2.4530    1.7580 hc        1 JQ1      0.178667
     43 HAE         8.7130    4.0320    2.6810 DU        1 JQ1      0.240500
     44 HAEA        8.9000    4.7730    3.8790 hc        1 JQ1      0.105750
     45 HAEB        7.1930    4.3730    4.1160 hc        1 JQ1      0.105750
     46 HAF         8.1830    4.9250    2.3480 DU        1 JQ1      0.240500
     47 HAFA        7.3980    6.4220    2.2130 hc        1 JQ1      0.105750
     48 HAFB        7.9790    5.9100    0.6230 hc        1 JQ1      0.105750
     49 HAI         6.8980   -1.4140   -2.0690 DU        1 JQ1      0.336000
     50 HAJ         7.7210   -2.0260   -1.8560 ha        1 JQ1     -0.200000
     51 HAK         6.7660   -1.5860   -1.5710 DU        1 JQ1     -0.216000
     52 HAL         6.5980   -1.0690   -0.9580 ha        1 JQ1     -0.206000
     53 HAM         5.4490    1.6660    1.4160 hc        1 JQ1      0.266000
     54 HAMA        3.9590    2.9320    2.3090 hc        1 JQ1      0.266000
     55 HNAP        2.7500    0.6100    2.3630 hn        1 JQ1      0.042000
     56 HBC         3.6840    0.4730    2.8030 DU        1 JQ1      0.104000
     57 ClAH        9.0930   -3.3110   -3.1020 cl        1 JQ1      0.191000
@<TRIPOS>BOND
     1    1   21 1   
     2    1   31 1   
     3    1   32 1   
     4    1   33 1   
     5    2   23 1   
     6    2   34 1   
     7    2   35 1   
     8    2   36 1   
     9    3   24 1   
    10    3   37 1   
    11    3   38 1   
    12    3   39 1   
    13    4   30 1   
    14    4   40 1   
    15    4   41 1   
    16    4   42 1   
    17    5   30 1   
    18    5   43 1   
    19    5   44 1   
    20    5   45 1   
    21    6   30 1   
    22    6   46 1   
    23    6   47 1   
    24    6   48 1   
    25    7   18 1   
    26    8   10 1   
    27    8   20 1   
    28    8   49 1   
    29    8   51 1   
    30    9   11 1   
    31    9   20 1   
    32    9   50 1   
    33   10   22 1   
    34   10   49 1   
    35   10   51 1   
    36   11   22 1   
    37   11   52 1   
    38   12   18 1   
    39   12   28 1   
    40   12   53 1   
    41   12   54 1   
    42   13   19 1   
    43   13   28 1   
    44   14   15 1   
    45   14   21 1   
    46   15   25 1   
    47   15   55 1   
    48   16   18 1   
    49   16   30 1   
    50   17   23 1   
    51   17   27 1   
    52   19   22 1   
    53   19   26 1   
    54   20   57 1   
    55   21   29 1   
    56   22   51 1   
    57   23   24 1   
    58   23   34 1   
    59   24   26 1   
    60   25   28 1   
    61   25   29 1   
    62   25   56 1   
    63   26   27 1   
    64   27   29 1   
    65   28   56 1   
    66   30   43 1   
    67   30   46 1   
    68   49   51 1   
@<TRIPOS>SUBSTRUCTURE
     1 JQ1         1 TEMP              0 ****  ****    0 ROOT
