@<TRIPOS>MOLECULE
JQ1
   57    60     1     0     0
SMALL
bcc


@<TRIPOS>ATOM
      1 CAA         3.4680    2.8260    0.8500 c3        1 JQ1     -0.152400
      2 CAB         0.3900    2.9550   -4.0870 c3        1 JQ1     -0.044800
      3 CAC        -2.0410    1.6650   -2.7590 c3        1 JQ1     -0.050800
      4 CAD         2.0660   -5.9140    1.2950 c3        1 JQ1     -0.116100
      5 CAE         3.9510   -4.7480    0.1060 c3        1 JQ1     -0.116100
      6 CAF         2.3490   -6.1840   -1.1800 c3        1 JQ1     -0.116100
      7 OAG         2.1010   -2.9810    1.5580 o         1 JQ1     -0.603000
      8 CAI        -4.0500    3.2520    0.3620 ca        1 JQ1     -0.128500
      9 CAJ        -5.0950    1.0630    0.2230 ca        1 JQ1     -0.128500
     10 CAK        -2.7960    2.6570    0.2650 ca        1 JQ1     -0.083000
     11 CAL        -3.8370    0.4700    0.1350 ca        1 JQ1     -0.083000
     12 CAM         0.4700   -2.0920   -0.0330 c3        1 JQ1     -0.159400
     13 NAN        -1.1140   -0.3580    0.8890 n2        1 JQ1     -0.599900
     14 NAO         3.1540    0.7370    2.2530 n2        1 JQ1     -0.444800
     15 NAP         2.2680   -0.2680    2.2730 na        1 JQ1      0.051400
     16 OAQ         1.6230   -4.1390   -0.3270 os        1 JQ1     -0.419900
     17 SAR         1.7580    2.2720   -1.8170 ss        1 JQ1      0.147200
     18 CAS         1.4710   -3.0870    0.4960 c         1 JQ1      0.655100
     19 CAT        -1.3370    0.6410    0.0960 ce        1 JQ1      0.603500
     20 CAU        -5.2010    2.4540    0.3390 ca        1 JQ1      0.043400
     21 CAV         2.7910    1.5660    1.2360 cc        1 JQ1      0.453800
     22 CAW        -2.6840    1.2650    0.1470 ca        1 JQ1     -0.173900
     23 CAX         0.3900    2.3410   -2.7550 cd        1 JQ1     -0.085400
     24 CAY        -0.7130    1.7640   -2.1310 cc        1 JQ1     -0.055300
     25 CAZ         1.3230   -0.1530    1.2760 cc        1 JQ1      0.022100
     26 CBA        -0.3830    1.2730   -0.8300 cc        1 JQ1     -0.178900
     27 CBB         0.9820    1.4710   -0.5490 cd        1 JQ1     -0.126300
     28 CBC         0.1240   -1.0610    1.0540 c3        1 JQ1      0.212800
     29 NBD         1.6360    1.0150    0.5940 na        1 JQ1     -0.064000
     30 CBE         2.5200   -5.2450    0.0110 c3        1 JQ1      0.175800
     31 HAA         4.4600    2.5900    0.3820 hc        1 JQ1      0.097367
     32 HAAA        2.8510    3.4170    0.1260 hc        1 JQ1      0.097367
     33 HAAB        3.6470    3.4510    1.7640 hc        1 JQ1      0.097367
     34 HAB         1.3880    3.3940   -4.3370 hc        1 JQ1      0.071700
     35 HABA        0.1360    2.1900   -4.8670 hc        1 JQ1      0.071700
     36 HABB       -0.3790    3.7690   -4.1410 hc        1 JQ1      0.071700
     37 HAC        -2.5970    0.7680   -2.3860 hc        1 JQ1      0.067367
     38 HACA       -2.6460    2.5760   -2.5150 hc        1 JQ1      0.067367
     39 HACB       -1.9430    1.5920   -3.8710 hc        1 JQ1      0.067367
     40 HAD         2.2240   -5.2390    2.1700 hc        1 JQ1      0.058478
     41 HADA        0.9830   -6.1780    1.2310 hc        1 JQ1      0.058478
     42 HADB        2.6560   -6.8490    1.4510 hc        1 JQ1      0.058478
     43 HAE         4.6390   -5.6240    0.1900 hc        1 JQ1      0.058478
     44 HAEA        4.2200   -4.1660   -0.8070 hc        1 JQ1      0.058478
     45 HAEB        4.0850   -4.1000    1.0050 hc        1 JQ1      0.058478
     46 HAF         1.2850   -6.5050   -1.2700 hc        1 JQ1      0.058478
     47 HAFA        2.6510   -5.6710   -2.1240 hc        1 JQ1      0.058478
     48 HAFB        2.9940   -7.0820   -1.0260 hc        1 JQ1      0.058478
     49 HAI        -4.1350    4.3460    0.4630 ha        1 JQ1      0.163500
     50 HAJ        -6.0010    0.4350    0.2100 ha        1 JQ1      0.163500
     51 HAK        -1.8930    3.2840    0.2860 ha        1 JQ1      0.146000
     52 HAL        -3.7590   -0.6260    0.0600 ha        1 JQ1      0.146000
     53 HAM         0.8860   -1.6030   -0.9510 hc        1 JQ1      0.112200
     54 HAMA       -0.4590   -2.6500   -0.3360 hc        1 JQ1      0.112200
     55 HNAP        2.4050   -1.0830    2.8590 hn        1 JQ1      0.405700
     56 HBC        -0.0260   -1.6380    2.0290 h1        1 JQ1      0.132700
     57 CLAH       -6.7270    3.1770    0.4530 cl        1 JQ1     -0.050400
@<TRIPOS>BOND
     1    1   21 1   
     2    1   31 1   
     3    1   32 1   
     4    1   33 1   
     5    2   23 1   
     6    2   34 1   
     7    2   35 1   
     8    2   36 1   
     9    3   24 1   
    10    3   37 1   
    11    3   38 1   
    12    3   39 1   
    13    4   30 1   
    14    4   40 1   
    15    4   41 1   
    16    4   42 1   
    17    5   30 1   
    18    5   43 1   
    19    5   44 1   
    20    5   45 1   
    21    6   30 1   
    22    6   46 1   
    23    6   47 1   
    24    6   48 1   
    25    7   18 2   
    26    8   10 ar  
    27    8   20 ar  
    28    8   49 1   
    29    9   11 ar  
    30    9   20 ar  
    31    9   50 1   
    32   10   22 ar  
    33   10   51 1   
    34   11   22 ar  
    35   11   52 1   
    36   12   18 1   
    37   12   28 1   
    38   12   53 1   
    39   12   54 1   
    40   13   19 2   
    41   13   28 1   
    42   14   15 1   
    43   14   21 2   
    44   15   25 2   
    45   15   55 1   
    46   16   18 1   
    47   16   30 1   
    48   17   23 1   
    49   17   27 1   
    50   19   22 1   
    51   19   26 1   
    52   20   57 1   
    53   21   29 1   
    54   23   24 2   
    55   24   26 1   
    56   25   28 1   
    57   25   29 1   
    58   26   27 2   
    59   27   29 1   
    60   28   56 1   
@<TRIPOS>SUBSTRUCTURE
     1 JQ1         1 TEMP              0 ****  ****    0 ROOT
