@<TRIPOS>MOLECULE
JQF
   43    45     1     0     0
SMALL
bcc


@<TRIPOS>ATOM
      1 O           4.3290   -1.1520   -1.6830 o         1 JQF     -0.583100
      2 C4          4.6200   -0.1650   -0.9850 c         1 JQF      0.668100
      3 C3          6.0620    0.3020   -0.8610 c3        1 JQF     -0.152400
      4 C1          6.7770   -0.3880    0.2930 c3        1 JQF     -0.065700
      5 C           8.2740   -0.2070    0.1370 c3        1 JQF     -0.096600
      6 C2          6.3220    0.1450    1.6350 c3        1 JQF     -0.096600
      7 N           3.6680    0.5800   -0.2950 n         1 JQF     -0.473100
      8 C5          2.2830    0.3750   -0.2560 ca        1 JQF      0.095600
      9 C6          1.5090    1.1660    0.6310 ca        1 JQF     -0.181000
     10 C7          0.1310    1.0120    0.6990 ca        1 JQF     -0.065000
     11 C10         1.6170   -0.5690   -1.0690 ca        1 JQF     -0.181000
     12 C9          0.2370   -0.7150   -0.9880 ca        1 JQF     -0.065000
     13 C8         -0.5140    0.0650   -0.1030 ca        1 JQF     -0.184900
     14 C11        -1.9900   -0.0930   -0.0200 cc        1 JQF      0.553500
     15 N2         -2.4700   -1.4090    0.0310 n         1 JQF     -0.493400
     16 C18        -3.8460   -1.6740    0.1120 c         1 JQF      0.708100
     17 O1         -4.2290   -2.8570    0.1540 o         1 JQF     -0.625500
     18 N1         -2.7610    0.9830    0.0080 nd        1 JQF     -0.621100
     19 C12        -4.1460    0.8010    0.0900 ca        1 JQF      0.184400
     20 C17        -4.7290   -0.4940    0.1420 ca        1 JQF     -0.191600
     21 C13        -5.0070    1.9270    0.1190 ca        1 JQF     -0.125000
     22 C14        -6.3790    1.7480    0.1990 ca        1 JQF     -0.095000
     23 C15        -6.9400    0.4650    0.2500 ca        1 JQF     -0.155000
     24 C16        -6.1190   -0.6530    0.2220 ca        1 JQF     -0.059000
     25 H31C        6.5690    0.0310   -1.8270 hc        1 JQF      0.072200
     26 H32C        6.1270    1.4140   -0.7440 hc        1 JQF      0.072200
     27 H           4.0130    1.3030    0.2980 hn        1 JQF      0.319500
     28 H1          6.5430   -1.4900    0.2440 hc        1 JQF      0.068700
     29 HC1         8.5430    0.8760    0.1620 hc        1 JQF      0.038867
     30 HC2         8.8110   -0.7250    0.9680 hc        1 JQF      0.038867
     31 HC3         8.6210   -0.6380   -0.8320 hc        1 JQF      0.038867
     32 H21C        5.2610   -0.1390    1.8370 hc        1 JQF      0.038867
     33 H22C        6.9550   -0.2810    2.4500 hc        1 JQF      0.038867
     34 H23C        6.4080    1.2580    1.6700 hc        1 JQF      0.038867
     35 H6          1.9920    1.9180    1.2740 ha        1 JQF      0.157500
     36 H10         2.1810   -1.1990   -1.7780 ha        1 JQF      0.157500
     37 H7         -0.4530    1.6440    1.3870 ha        1 JQF      0.148000
     38 H9         -0.2560   -1.4460   -1.6480 ha        1 JQF      0.148000
     39 H2         -1.8280   -2.1700    0.0190 hn        1 JQF      0.339500
     40 H13        -4.5790    2.9400    0.0780 ha        1 JQF      0.152000
     41 H16        -6.5370   -1.6720    0.2610 ha        1 JQF      0.158000
     42 H14        -7.0410    2.6280    0.2210 ha        1 JQF      0.136000
     43 H15        -8.0310    0.3470    0.3120 ha        1 JQF      0.139000
@<TRIPOS>BOND
     1    1    2 2   
     2    2    3 1   
     3    2    7 1   
     4    3    4 1   
     5    3   25 1   
     6    3   26 1   
     7    4    5 1   
     8    4    6 1   
     9    4   28 1   
    10    5   29 1   
    11    5   30 1   
    12    5   31 1   
    13    6   32 1   
    14    6   33 1   
    15    6   34 1   
    16    7    8 1   
    17    7   27 1   
    18    8    9 ar  
    19    8   11 ar  
    20    9   10 ar  
    21    9   35 1   
    22   10   13 ar  
    23   10   37 1   
    24   11   12 ar  
    25   11   36 1   
    26   12   13 ar  
    27   12   38 1   
    28   13   14 1   
    29   14   15 1   
    30   14   18 2   
    31   15   16 1   
    32   15   39 1   
    33   16   17 2   
    34   16   20 1   
    35   18   19 1   
    36   19   20 ar  
    37   19   21 ar  
    38   20   24 ar  
    39   21   22 ar  
    40   21   40 1   
    41   22   23 ar  
    42   22   42 1   
    43   23   24 ar  
    44   23   43 1   
    45   24   41 1   
@<TRIPOS>SUBSTRUCTURE
     1 JQF         1 TEMP              0 ****  ****    0 ROOT
