@<TRIPOS>MOLECULE
JQF
   44    46     1     0     0
SMALL
bcc


@<TRIPOS>ATOM
      1 O           1.1830   -2.2330    1.0120 o         1 JQF     -0.401100
      2 C4          1.6880   -1.3210    0.3830 c         1 JQF      0.561100
      3 C3          1.7880    0.1390    0.6990 c3        1 JQF     -0.148400
      4 C1          0.7780    0.5460    1.7700 c3        1 JQF     -0.062700
      5 C           1.1450    1.9180    2.2970 c3        1 JQF     -0.103600
      6 C2         -0.6310    0.5430    1.2160 c3        1 JQF     -0.103600
      7 N           2.3600   -1.7580   -0.9240 n4        1 JQF     -0.559200
      8 C5          1.5520   -1.4040   -2.0930 ca        1 JQF     -0.053400
      9 C6          1.8620   -0.2500   -2.8350 ca        1 JQF     -0.106500
     10 C7          1.1000    0.0670   -3.9560 ca        1 JQF     -0.078000
     11 C10         0.4850   -2.2360   -2.4750 ca        1 JQF     -0.106500
     12 C9         -0.2690   -1.9060   -3.5990 ca        1 JQF     -0.078000
     13 C8          0.0320   -0.7560   -4.3390 ca        1 JQF     -0.067900
     14 C11        -0.7590   -0.4150   -5.5570 cc        1 JQF      0.496500
     15 N2         -2.1510   -0.5040   -5.4480 n         1 JQF     -0.500400
     16 C18        -2.9730   -0.2040   -6.5550 c         1 JQF      0.711100
     17 O1         -4.2020   -0.2880   -6.4100 o         1 JQF     -0.592500
     18 N1         -0.1050   -0.0590   -6.6470 nd        1 JQF     -0.587100
     19 C12        -0.8530    0.2430   -7.7950 ca        1 JQF      0.155400
     20 C17        -2.2730    0.1830   -7.7930 ca        1 JQF     -0.171600
     21 C13        -0.1920    0.6160   -8.9890 ca        1 JQF     -0.107000
     22 C14        -0.9350    0.9150  -10.1240 ca        1 JQF     -0.090000
     23 C15        -2.3330    0.8530  -10.1090 ca        1 JQF     -0.127000
     24 C16        -3.0030    0.4880   -8.9470 ca        1 JQF     -0.060000
     25 H31C        1.6230    0.7510   -0.2300 hc        1 JQF      0.102200
     26 H32C        2.8320    0.3370    1.0730 hc        1 JQF      0.102200
     27 H           3.2780   -1.3080   -0.9990 hn        1 JQF      0.461800
     28 H1          0.8360   -0.1970    2.6170 hc        1 JQF      0.079700
     29 HC1         2.1640    1.9080    2.7550 hc        1 JQF      0.053033
     30 HC2         0.4100    2.2270    3.0800 hc        1 JQF      0.053033
     31 HC3         1.1270    2.6770    1.4780 hc        1 JQF      0.053033
     32 H21C       -0.7360    1.2850    0.3880 hc        1 JQF      0.053033
     33 H22C       -0.8980   -0.4710    0.8330 hc        1 JQF      0.053033
     34 H23C       -1.3540    0.8160    2.0240 hc        1 JQF      0.053033
     35 H6          2.7040    0.4060   -2.5560 ha        1 JQF      0.161500
     36 H10         0.2360   -3.1490   -1.9070 ha        1 JQF      0.161500
     37 H7          1.3490    0.9640   -4.5500 ha        1 JQF      0.184000
     38 H9         -1.0920   -2.5740   -3.9060 ha        1 JQF      0.184000
     39 H2         -2.5750   -0.7540   -4.5840 hn        1 JQF      0.334500
     40 H13         0.9070    0.6670   -9.0170 ha        1 JQF      0.156000
     41 H16        -4.1040    0.4330   -8.9170 ha        1 JQF      0.169000
     42 H14        -0.4140    1.2040  -11.0510 ha        1 JQF      0.151000
     43 H15        -2.9030    1.0930  -11.0200 ha        1 JQF      0.154000
     44 HN3         2.4890   -2.7800   -0.9110 hn        1 JQF      0.461800
@<TRIPOS>BOND
     1    1    2 2   
     2    2    3 1   
     3    2    7 1   
     4    3    4 1   
     5    3   25 1   
     6    3   26 1   
     7    4    5 1   
     8    4    6 1   
     9    4   28 1   
    10    5   29 1   
    11    5   30 1   
    12    5   31 1   
    13    6   32 1   
    14    6   33 1   
    15    6   34 1   
    16    7    8 1   
    17    7   27 1   
    18    7   44 1   
    19    8    9 ar  
    20    8   11 ar  
    21    9   10 ar  
    22    9   35 1   
    23   10   13 ar  
    24   10   37 1   
    25   11   12 ar  
    26   11   36 1   
    27   12   13 ar  
    28   12   38 1   
    29   13   14 1   
    30   14   15 1   
    31   14   18 2   
    32   15   16 1   
    33   15   39 1   
    34   16   17 2   
    35   16   20 1   
    36   18   19 1   
    37   19   20 ar  
    38   19   21 ar  
    39   20   24 ar  
    40   21   22 ar  
    41   21   40 1   
    42   22   23 ar  
    43   22   42 1   
    44   23   24 ar  
    45   23   43 1   
    46   24   41 1   
@<TRIPOS>SUBSTRUCTURE
     1 JQF         1 TEMP              0 ****  ****    0 ROOT
