@<TRIPOS>MOLECULE
JQF
   43    45     1     0     0
SMALL
bcc


@<TRIPOS>ATOM
      1 O           0.6760   -2.0170    0.1500 o         1 JQF     -0.583100
      2 C4          1.2780   -0.9310    0.2090 c         1 JQF      0.668100
      3 C3          2.0390   -0.5320    1.4640 c3        1 JQF     -0.152400
      4 C1          1.1470    0.2130    2.4470 c3        1 JQF     -0.065700
      5 C           1.8090    0.2350    3.8100 c3        1 JQF     -0.096600
      6 C2          0.8570    1.6250    1.9830 c3        1 JQF     -0.096600
      7 N           1.3140   -0.0280   -0.8490 n         1 JQF     -0.473100
      8 C5          0.7170   -0.1600   -2.1090 ca        1 JQF      0.095600
      9 C6          0.7560    0.9480   -2.9930 ca        1 JQF     -0.181000
     10 C7          0.1900    0.8660   -4.2580 ca        1 JQF     -0.065000
     11 C10         0.0940   -1.3490   -2.5500 ca        1 JQF     -0.181000
     12 C9         -0.4710   -1.4160   -3.8180 ca        1 JQF     -0.065000
     13 C8         -0.4350   -0.3140   -4.6770 ca        1 JQF     -0.184900
     14 C11        -1.0390   -0.3900   -6.0330 cc        1 JQF      0.553500
     15 N2         -2.3120   -0.9730   -6.1120 n         1 JQF     -0.493400
     16 C18        -2.9750   -1.0940   -7.3430 c         1 JQF      0.708100
     17 O1         -4.1030   -1.6190   -7.3680 o         1 JQF     -0.625500
     18 N1         -0.3720    0.0870   -7.0720 nd        1 JQF     -0.621100
     19 C12        -0.9690    0.0040   -8.3360 ca        1 JQF      0.184400
     20 C17        -2.2540   -0.5740   -8.5190 ca        1 JQF     -0.191600
     21 C13        -0.2870    0.5010   -9.4750 ca        1 JQF     -0.125000
     22 C14        -0.8760    0.4170  -10.7260 ca        1 JQF     -0.095000
     23 C15        -2.1450   -0.1550  -10.8920 ca        1 JQF     -0.155000
     24 C16        -2.8320   -0.6490   -9.7930 ca        1 JQF     -0.059000
     25 H31C        2.9420    0.0850    1.2200 hc        1 JQF      0.072200
     26 H32C        2.3960   -1.4870    1.9370 hc        1 JQF      0.072200
     27 H           1.7570    0.8470   -0.6730 hn        1 JQF      0.319500
     28 H1          0.1720   -0.3460    2.5330 hc        1 JQF      0.068700
     29 HC1         1.1560    0.7630    4.5460 hc        1 JQF      0.038867
     30 HC2         1.9850   -0.8050    4.1760 hc        1 JQF      0.038867
     31 HC3         2.7900    0.7660    3.7620 hc        1 JQF      0.038867
     32 H21C        1.8050    2.1700    1.7550 hc        1 JQF      0.038867
     33 H22C        0.2170    1.6200    1.0690 hc        1 JQF      0.038867
     34 H23C        0.3140    2.1860    2.7830 hc        1 JQF      0.038867
     35 H6          1.2400    1.8890   -2.6880 ha        1 JQF      0.157500
     36 H10         0.0500   -2.2370   -1.8960 ha        1 JQF      0.157500
     37 H7          0.2400    1.7350   -4.9330 ha        1 JQF      0.148000
     38 H9         -0.9340   -2.3630   -4.1400 ha        1 JQF      0.148000
     39 H2         -2.7580   -1.2980   -5.2840 hn        1 JQF      0.339500
     40 H13         0.7110    0.9510   -9.3580 ha        1 JQF      0.152000
     41 H16        -3.8310   -1.1030   -9.8990 ha        1 JQF      0.158000
     42 H14        -0.3400    0.8050  -11.6060 ha        1 JQF      0.136000
     43 H15        -2.5930   -0.2110  -11.8940 ha        1 JQF      0.139000
@<TRIPOS>BOND
     1    1    2 2   
     2    2    3 1   
     3    2    7 1   
     4    3    4 1   
     5    3   25 1   
     6    3   26 1   
     7    4    5 1   
     8    4    6 1   
     9    4   28 1   
    10    5   29 1   
    11    5   30 1   
    12    5   31 1   
    13    6   32 1   
    14    6   33 1   
    15    6   34 1   
    16    7    8 1   
    17    7   27 1   
    18    8    9 ar  
    19    8   11 ar  
    20    9   10 ar  
    21    9   35 1   
    22   10   13 ar  
    23   10   37 1   
    24   11   12 ar  
    25   11   36 1   
    26   12   13 ar  
    27   12   38 1   
    28   13   14 1   
    29   14   15 1   
    30   14   18 2   
    31   15   16 1   
    32   15   39 1   
    33   16   17 2   
    34   16   20 1   
    35   18   19 1   
    36   19   20 ar  
    37   19   21 ar  
    38   20   24 ar  
    39   21   22 ar  
    40   21   40 1   
    41   22   23 ar  
    42   22   42 1   
    43   23   24 ar  
    44   23   43 1   
    45   24   41 1   
@<TRIPOS>SUBSTRUCTURE
     1 JQF         1 TEMP              0 ****  ****    0 ROOT
