@<TRIPOS>MOLECULE
JQF
   43    39     1     0     0
SMALL
bcc


@<TRIPOS>ATOM
      1 O           2.5090   -0.8500    1.8700 o         1 JQF     -0.341000
      2 C4          1.9600   -0.5760    2.9190 c1        1 JQF      0.313000
      3 C3          2.6930   -0.7690    4.2280 c2        1 JQF     -0.185000
      4 C1          4.1760   -0.5850    4.0060 c3        1 JQF     -0.102000
      5 C           4.8680   -1.9290    4.0770 c3        1 JQF     -0.214000
      6 C2          4.7360    0.3270    5.0760 c3        1 JQF     -0.214000
      7 N           0.6110   -0.1400    2.9200 n3        1 JQF     -0.327000
      8 C5         -0.0980   -0.0250    1.6980 c2        1 JQF      0.104000
      9 C6         -0.3420   -1.1520    0.9300 c2        1 JQF     -0.168000
     10 C7         -1.0880   -1.0500   -0.2330 c1        1 JQF     -0.049000
     11 C10        -0.6000    1.2040    1.3030 c1        1 JQF     -0.195000
     12 C9         -1.3460    1.3070    0.1400 c1        1 JQF     -0.080000
     13 C8         -1.5900    0.1790   -0.6280 c1        1 JQF     -0.102000
     14 C11        -2.3380    0.3040   -1.9350 c2        1 JQF      0.174000
     15 N2         -3.7650    0.2330   -1.9510 n         1 JQF     -0.334000
     16 C18        -4.4610    0.3710   -3.1600 c2        1 JQF      0.345000
     17 O1         -5.6750    0.3430   -3.1690 o         1 JQF     -0.352000
     18 N1         -1.6110    0.5180   -3.1660 n1        1 JQF     -0.190000
     19 C12        -2.3310    0.6620   -4.4250 c1        1 JQF      0.044000
     20 C17        -3.7020    0.5940   -4.4430 c2        1 JQF     -0.171000
     21 C13        -1.6240    0.8900   -5.6190 c1        1 JQF     -0.124000
     22 C14        -2.3110    1.0460   -6.8140 c1        1 JQF     -0.125000
     23 C15        -3.6980    0.9780   -6.8320 c1        1 JQF     -0.125000
     24 C16        -4.3970    0.7530   -5.6540 c1        1 JQF     -0.059000
     25 H31C        2.5230   -1.6710    4.5660 ha        1 JQF      0.114500
     26 H32C        2.3760   -0.1120    4.8790 ha        1 JQF      0.114500
     27 H           0.1980    0.0620    3.7080 hn        1 JQF      0.231000
     28 H1          4.3270   -0.1870    3.1280 hc        1 JQF      0.083000
     29 HC1         5.7990   -1.8330    3.7870 hc        1 JQF      0.081000
     30 HC2         4.8450   -2.2600    4.9990 hc        1 JQF      0.081000
     31 HC3         4.4070   -2.5650    3.4900 hc        1 JQF      0.081000
     32 H21C        4.8310   -0.1720    5.9150 hc        1 JQF      0.081000
     33 H22C        5.6130    0.6620    4.7950 hc        1 JQF      0.081000
     34 H23C        4.1270    1.0830    5.2130 hc        1 JQF      0.081000
     35 H6          0.0120   -2.0180    1.2090 ha        1 JQF      0.181000
     36 H10        -0.4290    1.9990    1.8440 ha        1 JQF      0.134000
     37 H7         -1.2600   -1.8440   -0.7740 ha        1 JQF      0.157000
     38 H9         -1.7000    2.1730   -0.1390 ha        1 JQF      0.138000
     39 H2         -4.2240    0.1150   -1.1710 hn        1 JQF      0.251000
     40 H13        -0.6480    0.9380   -5.6070 ha        1 JQF      0.153000
     41 H16        -5.3720    0.7050   -5.6670 ha        1 JQF      0.158000
     42 H14        -1.8190    1.2040   -7.6420 ha        1 JQF      0.137500
     43 H15        -4.1810    1.0880   -7.6730 ha        1 JQF      0.137500
@<TRIPOS>BOND
     1    1    2 1   
     2    2    7 1   
     3    3    4 1   
     4    3   25 1   
     5    3   26 1   
     6    4    5 1   
     7    4    6 1   
     8    4   28 1   
     9    5   29 1   
    10    5   30 1   
    11    5   31 1   
    12    6   32 1   
    13    6   33 1   
    14    6   34 1   
    15    7    8 1   
    16    7   27 1   
    17    8    9 1   
    18    8   11 1   
    19    9   10 1   
    20    9   35 1   
    21   10   37 1   
    22   11   36 1   
    23   12   13 1   
    24   12   38 1   
    25   13   14 1   
    26   14   15 1   
    27   14   18 1   
    28   15   16 1   
    29   15   39 1   
    30   16   17 1   
    31   16   20 1   
    32   19   20 1   
    33   19   21 1   
    34   20   24 1   
    35   21   40 1   
    36   22   23 1   
    37   22   42 1   
    38   23   43 1   
    39   24   41 1   
@<TRIPOS>SUBSTRUCTURE
     1 JQF         1 TEMP              0 ****  ****    0 ROOT
