@<TRIPOS>MOLECULE
JQF
   43    45     1     0     0
SMALL
bcc


@<TRIPOS>ATOM
      1 O           0.6650   -2.0260    0.1470 o         1 JQF     -0.583100
      2 C4          1.2780   -0.9470    0.2060 c         1 JQF      0.668100
      3 C3          2.0460   -0.5560    1.4580 c3        1 JQF     -0.152400
      4 C1          1.1650    0.1990    2.4430 c3        1 JQF     -0.065700
      5 C           1.8310    0.2150    3.8050 c3        1 JQF     -0.096600
      6 C2          0.8870    1.6130    1.9800 c3        1 JQF     -0.096600
      7 N           1.3210   -0.0440   -0.8530 ns        1 JQF     -0.473100
      8 C5          0.7200   -0.1690   -2.1110 ca        1 JQF      0.095600
      9 C6          0.7690    0.9390   -2.9950 ca        1 JQF     -0.181000
     10 C7          0.2000    0.8630   -4.2590 ca        1 JQF     -0.065000
     11 C10         0.0810   -1.3510   -2.5500 ca        1 JQF     -0.181000
     12 C9         -0.4880   -1.4110   -3.8170 ca        1 JQF     -0.065000
     13 C8         -0.4410   -0.3090   -4.6760 ca        1 JQF     -0.184900
     14 C11        -1.0490   -0.3780   -6.0300 cc        1 JQF      0.553500
     15 N2         -2.3290   -0.9460   -6.1060 ns        1 JQF     -0.493400
     16 C18        -2.9980   -1.0600   -7.3350 c         1 JQF      0.708100
     17 O1         -4.1320   -1.5700   -7.3570 o         1 JQF     -0.625500
     18 N1         -0.3790    0.0900   -7.0720 nd        1 JQF     -0.621100
     19 C12        -0.9810    0.0130   -8.3330 ca        1 JQF      0.184400
     20 C17        -2.2730   -0.5480   -8.5130 ca        1 JQF     -0.191600
     21 C13        -0.2950    0.5010   -9.4750 ca        1 JQF     -0.125000
     22 C14        -0.8890    0.4240  -10.7240 ca        1 JQF     -0.095000
     23 C15        -2.1660   -0.1320  -10.8860 ca        1 JQF     -0.155000
     24 C16        -2.8560   -0.6170   -9.7850 ca        1 JQF     -0.059000
     25 H31C        2.9560    0.0520    1.2120 hc        1 JQF      0.072200
     26 H32C        2.3950   -1.5140    1.9310 hc        1 JQF      0.072200
     27 H           1.7740    0.8270   -0.6770 hn        1 JQF      0.319500
     28 H1          0.1840   -0.3510    2.5320 hc        1 JQF      0.068700
     29 HC1         1.1850    0.7500    4.5420 hc        1 JQF      0.038867
     30 HC2         2.8170    0.7360    3.7540 hc        1 JQF      0.038867
     31 HC3         1.9980   -0.8270    4.1710 hc        1 JQF      0.038867
     32 H21C        1.8400    2.1490    1.7480 hc        1 JQF      0.038867
     33 H22C        0.3530    2.1800    2.7810 hc        1 JQF      0.038867
     34 H23C        0.2440    1.6140    1.0680 hc        1 JQF      0.038867
     35 H6          1.2650    1.8740   -2.6920 ha        1 JQF      0.157500
     36 H10         0.0280   -2.2370   -1.8960 ha        1 JQF      0.157500
     37 H7          0.2580    1.7310   -4.9340 ha        1 JQF      0.148000
     38 H9         -0.9630   -2.3520   -4.1380 ha        1 JQF      0.148000
     39 H2         -2.7780   -1.2660   -5.2760 hn        1 JQF      0.339500
     40 H13         0.7090    0.9380   -9.3600 ha        1 JQF      0.152000
     41 H16        -3.8610   -1.0580   -9.8880 ha        1 JQF      0.158000
     42 H14        -0.3500    0.8040  -11.6050 ha        1 JQF      0.136000
     43 H15        -2.6170   -0.1830  -11.8870 ha        1 JQF      0.139000
@<TRIPOS>BOND
     1    1    2 2   
     2    2    3 1   
     3    2    7 1   
     4    3    4 1   
     5    3   25 1   
     6    3   26 1   
     7    4    5 1   
     8    4    6 1   
     9    4   28 1   
    10    5   29 1   
    11    5   30 1   
    12    5   31 1   
    13    6   32 1   
    14    6   33 1   
    15    6   34 1   
    16    7    8 1   
    17    7   27 1   
    18    8    9 ar  
    19    8   11 ar  
    20    9   10 ar  
    21    9   35 1   
    22   10   13 ar  
    23   10   37 1   
    24   11   12 ar  
    25   11   36 1   
    26   12   13 ar  
    27   12   38 1   
    28   13   14 1   
    29   14   15 1   
    30   14   18 2   
    31   15   16 1   
    32   15   39 1   
    33   16   17 2   
    34   16   20 1   
    35   18   19 1   
    36   19   20 ar  
    37   19   21 ar  
    38   20   24 ar  
    39   21   22 ar  
    40   21   40 1   
    41   22   23 ar  
    42   22   42 1   
    43   23   24 ar  
    44   23   43 1   
    45   24   41 1   
@<TRIPOS>SUBSTRUCTURE
     1 JQF         1 TEMP              0 ****  ****    0 ROOT
