@<TRIPOS>MOLECULE
JQN
   36    38     1     0     0
SMALL
bcc


@<TRIPOS>ATOM
      1 C1          0.1370   -0.6340    0.0230 c3        1 JQN     -0.052800
      2 C2          1.5850   -0.3380   -0.0560 ca        1 JQN     -0.083300
      3 C3          2.4040   -0.5200    1.0680 ca        1 JQN     -0.113500
      4 C4          3.7660   -0.2590    0.9980 ca        1 JQN     -0.129000
      5 C5          4.3460    0.1970   -0.1980 ca        1 JQN     -0.020100
      6 C6          3.5270    0.3820   -1.3150 ca        1 JQN     -0.129000
      7 C7          2.1610    0.1150   -1.2450 ca        1 JQN     -0.113500
      8 S8          6.0100    0.4950   -0.1100 ss        1 JQN     -0.113000
      9 C9          6.4830    0.8160   -1.7810 c3        1 JQN     -0.157300
     10 C10         7.9760    0.8800   -1.9280 c         1 JQN      0.601700
     11 O11         8.7310    1.1830   -0.9980 o         1 JQN     -0.512100
     12 C12         8.5000    0.5660   -3.2750 ca        1 JQN     -0.209600
     13 C13         7.7210    0.7200   -4.4230 ca        1 JQN     -0.052000
     14 C14         8.2220    0.4300   -5.6960 ca        1 JQN     -0.185000
     15 C15         9.5360   -0.0280   -5.7950 ca        1 JQN      0.091600
     16 C16        10.3460   -0.1840   -4.6170 ca        1 JQN     -0.162300
     17 C17         9.8350    0.1160   -3.3760 ca        1 JQN     -0.022000
     18 C18        11.6960   -0.6790   -5.0310 c3        1 JQN     -0.100100
     19 C19        11.5710   -0.7890   -6.5590 c         1 JQN      0.700500
     20 O20        12.4290   -1.1590   -7.3640 o         1 JQN     -0.589500
     21 N21        10.2670   -0.3900   -6.9320 ns        1 JQN     -0.482100
     22 H11C       -0.0310   -1.7400   -0.0340 hc        1 JQN      0.044700
     23 H12C       -0.2900   -0.2670    0.9900 hc        1 JQN      0.044700
     24 H13C       -0.4220   -0.1510   -0.8150 hc        1 JQN      0.044700
     25 H3          1.9620   -0.8730    2.0120 ha        1 JQN      0.133500
     26 H7          1.5320    0.2660   -2.1350 ha        1 JQN      0.133500
     27 H4          4.4020   -0.4090    1.8850 ha        1 JQN      0.133500
     28 H6          3.9500    0.7470   -2.2630 ha        1 JQN      0.133500
     29 H91C        6.0750    0.0160   -2.4500 h1        1 JQN      0.088700
     30 H92C        6.0620    1.7960   -2.1240 h1        1 JQN      0.088700
     31 H13         6.6860    1.0900   -4.3420 ha        1 JQN      0.135000
     32 H17        10.4430    0.0180   -2.4620 ha        1 JQN      0.162000
     33 H14         7.5930    0.5630   -6.5860 ha        1 JQN      0.146000
     34 H21         9.9210   -0.3600   -7.8550 hn        1 JQN      0.344500
     35 H181       12.5140    0.0380   -4.7700 hc        1 JQN      0.099200
     36 H182       11.9360   -1.6810   -4.5980 hc        1 JQN      0.099200
@<TRIPOS>BOND
     1    1    2 1   
     2    1   22 1   
     3    1   23 1   
     4    1   24 1   
     5    2    3 ar  
     6    2    7 ar  
     7    3    4 ar  
     8    3   25 1   
     9    4    5 ar  
    10    4   27 1   
    11    5    6 ar  
    12    5    8 1   
    13    6    7 ar  
    14    6   28 1   
    15    7   26 1   
    16    8    9 1   
    17    9   10 1   
    18    9   29 1   
    19    9   30 1   
    20   10   11 2   
    21   10   12 1   
    22   12   13 ar  
    23   12   17 ar  
    24   13   14 ar  
    25   13   31 1   
    26   14   15 ar  
    27   14   33 1   
    28   15   16 ar  
    29   15   21 1   
    30   16   17 ar  
    31   16   18 1   
    32   17   32 1   
    33   18   19 1   
    34   18   35 1   
    35   18   36 1   
    36   19   20 2   
    37   19   21 1   
    38   21   34 1   
@<TRIPOS>SUBSTRUCTURE
     1 JQN         1 TEMP              0 ****  ****    0 ROOT
