@<TRIPOS>MOLECULE
JQN
   36    38     1     0     0
SMALL
bcc


@<TRIPOS>ATOM
      1 C1          0.1160   -0.5930    0.0270 c3        1 JQN     -0.052800
      2 C2          1.5690   -0.3190   -0.0520 ca        1 JQN     -0.084300
      3 C3          2.3810   -0.4930    1.0780 ca        1 JQN     -0.113000
      4 C4          3.7470   -0.2530    1.0090 ca        1 JQN     -0.129000
      5 C5          4.3380    0.1730   -0.1930 ca        1 JQN     -0.020100
      6 C6          3.5270    0.3500   -1.3160 ca        1 JQN     -0.129000
      7 C7          2.1560    0.1040   -1.2470 ca        1 JQN     -0.113000
      8 S8          6.0060    0.4470   -0.1020 ss        1 JQN     -0.112000
      9 C9          6.4870    0.7530   -1.7730 c3        1 JQN     -0.157300
     10 C10         7.9810    0.8160   -1.9170 c         1 JQN      0.601700
     11 O11         8.7350    1.0950   -0.9790 o         1 JQN     -0.512100
     12 C12         8.5060    0.5300   -3.2690 ca        1 JQN     -0.209600
     13 C13         7.7230    0.6920   -4.4140 ca        1 JQN     -0.051000
     14 C14         8.2250    0.4280   -5.6920 ca        1 JQN     -0.185000
     15 C15         9.5450   -0.0100   -5.8010 ca        1 JQN      0.092600
     16 C16        10.3590   -0.1730   -4.6270 ca        1 JQN     -0.163300
     17 C17         9.8460    0.1000   -3.3800 ca        1 JQN     -0.022000
     18 C18        11.7160   -0.6430   -5.0500 c3        1 JQN     -0.100100
     19 C19        11.5890   -0.7310   -6.5790 c         1 JQN      0.700500
     20 O20        12.4510   -1.0760   -7.3910 o         1 JQN     -0.589500
     21 N21        10.2800   -0.3430   -6.9440 n         1 JQN     -0.482100
     22 H11C       -0.4300   -0.1330   -0.8330 hc        1 JQN      0.044700
     23 H12C       -0.0670   -1.6970    0.0080 hc        1 JQN      0.044700
     24 H13C       -0.3110   -0.1850    0.9760 hc        1 JQN      0.044700
     25 H3          1.9300   -0.8230    2.0260 ha        1 JQN      0.133000
     26 H7          1.5340    0.2480   -2.1430 ha        1 JQN      0.133000
     27 H4          4.3780   -0.3960    1.9010 ha        1 JQN      0.133000
     28 H6          3.9590    0.6910   -2.2680 ha        1 JQN      0.133000
     29 H91C        6.0830   -0.0520   -2.4380 h1        1 JQN      0.088700
     30 H92C        6.0670    1.7310   -2.1270 h1        1 JQN      0.088700
     31 H13         6.6830    1.0460   -4.3260 ha        1 JQN      0.135000
     32 H17        10.4570   -0.0050   -2.4680 ha        1 JQN      0.162000
     33 H14         7.5930    0.5660   -6.5790 ha        1 JQN      0.146000
     34 H21         9.9310   -0.3040   -7.8660 hn        1 JQN      0.344500
     35 H181       11.9700   -1.6490   -4.6330 hc        1 JQN      0.099200
     36 H182       12.5240    0.0810   -4.7790 hc        1 JQN      0.099200
@<TRIPOS>BOND
     1    1    2 1   
     2    1   22 1   
     3    1   23 1   
     4    1   24 1   
     5    2    3 ar  
     6    2    7 ar  
     7    3    4 ar  
     8    3   25 1   
     9    4    5 ar  
    10    4   27 1   
    11    5    6 ar  
    12    5    8 1   
    13    6    7 ar  
    14    6   28 1   
    15    7   26 1   
    16    8    9 1   
    17    9   10 1   
    18    9   29 1   
    19    9   30 1   
    20   10   11 2   
    21   10   12 1   
    22   12   13 ar  
    23   12   17 ar  
    24   13   14 ar  
    25   13   31 1   
    26   14   15 ar  
    27   14   33 1   
    28   15   16 ar  
    29   15   21 1   
    30   16   17 ar  
    31   16   18 1   
    32   17   32 1   
    33   18   19 1   
    34   18   35 1   
    35   18   36 1   
    36   19   20 2   
    37   19   21 1   
    38   21   34 1   
@<TRIPOS>SUBSTRUCTURE
     1 JQN         1 TEMP              0 ****  ****    0 ROOT
