@<TRIPOS>MOLECULE
JR2
   28    30     1     0     0
SMALL
bcc


@<TRIPOS>ATOM
      1 N1          0.1250    0.0670   -0.1210 nb        1 JR2     -0.835000
      2 C2          1.5070    0.1870   -0.0030 ca        1 JR2      0.903900
      3 N3          2.2530    0.0790    1.1530 nb        1 JR2     -0.797000
      4 C4          1.4900   -0.0940    2.2710 ca        1 JR2      0.501800
      5 C5          0.0380   -0.1900    2.2840 ca        1 JR2     -0.395400
      6 C6         -0.6130   -0.1010    1.0140 ca        1 JR2      0.760200
      7 NAA         2.2050    0.4970   -1.1840 nh        1 JR2     -0.920500
      8 CAB         0.8190   -0.3510    4.4210 cc        1 JR2     -0.143100
      9 CAC        -0.3460   -0.3430    3.6630 cd        1 JR2     -0.140200
     10 CAD        -4.0750   -0.7370   -0.1680 c3        1 JR2     -0.092900
     11 CAE        -4.1210   -1.2340    1.2720 c3        1 JR2     -0.092900
     12 CAF        -2.6640   -0.1670   -0.3830 c3        1 JR2      0.199300
     13 CAG        -2.8100   -0.7730    1.9300 c3        1 JR2      0.199300
     14 NAJ         1.9390   -0.2110    3.5890 na        1 JR2     -0.290100
     15 NAO        -2.0050   -0.1060    0.9180 nh        1 JR2     -0.750300
     16 HNAA        3.1770    0.2840   -1.1790 hn        1 JR2      0.416800
     17 HNAB        1.7300    0.2900   -2.0330 hn        1 JR2      0.416800
     18 HAB         0.9490   -0.4470    5.5000 h4        1 JR2      0.166000
     19 HAC        -1.3570   -0.4230    4.0520 ha        1 JR2      0.153000
     20 HADA       -4.8430    0.0570   -0.3390 hc        1 JR2      0.051950
     21 HAE        -4.9980   -0.8090    1.8170 hc        1 JR2      0.051950
     22 HAEA       -4.2000   -2.3480    1.3080 hc        1 JR2      0.051950
     23 HAF        -2.7040    0.8750   -0.8020 h1        1 JR2      0.055700
     24 HAFA       -2.0990   -0.8130   -1.1120 h1        1 JR2      0.055700
     25 HAG        -2.2640   -1.6480    2.3810 h1        1 JR2      0.055700
     26 HAGA       -3.0240   -0.0310    2.7490 h1        1 JR2      0.055700
     27 HNAJ        2.8790   -0.1530    3.8800 hn        1 JR2      0.307700
     28 HAD        -4.2730   -1.5670   -0.8890 hc        1 JR2      0.051950
@<TRIPOS>BOND
     1    1    2 ar  
     2    1    6 ar  
     3    2    3 ar  
     4    2    7 1   
     5    3    4 ar  
     6    4    5 ar  
     7    4   14 1   
     8    5    6 ar  
     9    5    9 1   
    10    6   15 1   
    11    7   16 1   
    12    7   17 1   
    13    8    9 2   
    14    8   14 1   
    15    8   18 1   
    16    9   19 1   
    17   10   11 1   
    18   10   12 1   
    19   10   20 1   
    20   10   28 1   
    21   11   13 1   
    22   11   21 1   
    23   11   22 1   
    24   12   15 1   
    25   12   23 1   
    26   12   24 1   
    27   13   15 1   
    28   13   25 1   
    29   13   26 1   
    30   14   27 1   
@<TRIPOS>SUBSTRUCTURE
     1 JR2         1 TEMP              0 ****  ****    0 ROOT
