@<TRIPOS>MOLECULE
JR2
   28    30     1     0     0
SMALL
bcc


@<TRIPOS>ATOM
      1 N1          0.1170    0.0540   -0.1310 nb        1 JR2     -0.835000
      2 C2          1.5010    0.1620   -0.0240 ca        1 JR2      0.903900
      3 N3          2.2550    0.0490    1.1260 nb        1 JR2     -0.797000
      4 C4          1.5000   -0.1160    2.2500 ca        1 JR2      0.501800
      5 C5          0.0470   -0.2000    2.2760 ca        1 JR2     -0.395400
      6 C6         -0.6130   -0.1060    1.0110 ca        1 JR2      0.760200
      7 NAA         2.1920    0.4660   -1.2110 nv        1 JR2     -0.920500
      8 CAB         0.8450   -0.3660    4.4060 cc        1 JR2     -0.143100
      9 CAC        -0.3270   -0.3490    3.6580 cd        1 JR2     -0.140200
     10 CAD        -4.0910   -0.7130   -0.1420 c3        1 JR2     -0.092900
     11 CAE        -4.1290   -1.2070    1.2980 c3        1 JR2     -0.092900
     12 CAF        -2.6760   -0.1560   -0.3700 c3        1 JR2      0.199300
     13 CAG        -2.8090   -0.7580    1.9460 c3        1 JR2      0.199300
     14 NAJ         1.9590   -0.2360    3.5650 na        1 JR2     -0.290100
     15 NAO        -2.0060   -0.0990    0.9260 nh        1 JR2     -0.750300
     16 HNAA        3.1620    0.2440   -1.2130 hn        1 JR2      0.416800
     17 HNAB        1.7080    0.2620   -2.0560 hn        1 JR2      0.416800
     18 HAB         0.9820   -0.4630    5.4840 h4        1 JR2      0.166000
     19 HAC        -1.3350   -0.4200    4.0550 ha        1 JR2      0.153000
     20 HADA       -4.3010   -1.5420   -0.8610 hc        1 JR2      0.051950
     21 HAE        -4.9980   -0.7740    1.8500 hc        1 JR2      0.051950
     22 HAEA       -4.2180   -2.3210    1.3370 hc        1 JR2      0.051950
     23 HAF        -2.1230   -0.8070   -1.1020 h1        1 JR2      0.055700
     24 HAFA       -2.7100    0.8860   -0.7890 h1        1 JR2      0.055700
     25 HAG        -2.2670   -1.6370    2.3930 h1        1 JR2      0.055700
     26 HAGA       -3.0090   -0.0130    2.7650 h1        1 JR2      0.055700
     27 HNAJ        2.9010   -0.1860    3.8480 hn        1 JR2      0.307700
     28 HAD        -4.8530    0.0870   -0.3080 hc        1 JR2      0.051950
@<TRIPOS>BOND
     1    1    2 ar  
     2    1    6 ar  
     3    2    3 ar  
     4    2    7 1   
     5    3    4 ar  
     6    4    5 ar  
     7    4   14 1   
     8    5    6 ar  
     9    5    9 1   
    10    6   15 1   
    11    7   16 1   
    12    7   17 1   
    13    8    9 2   
    14    8   14 1   
    15    8   18 1   
    16    9   19 1   
    17   10   11 1   
    18   10   12 1   
    19   10   20 1   
    20   10   28 1   
    21   11   13 1   
    22   11   21 1   
    23   11   22 1   
    24   12   15 1   
    25   12   23 1   
    26   12   24 1   
    27   13   15 1   
    28   13   25 1   
    29   13   26 1   
    30   14   27 1   
@<TRIPOS>SUBSTRUCTURE
     1 JR2         1 TEMP              0 ****  ****    0 ROOT
