@<TRIPOS>MOLECULE
JR9
   47    51     1     0     0
SMALL
bcc


@<TRIPOS>ATOM
      1 N01        -0.1650    0.1160   -0.1270 nc        1 JR9     -0.759000
      2 C02         1.0550   -0.4450   -0.4050 cc        1 JR9      0.405200
      3 C03         1.9900   -0.8410    0.5330 cd        1 JR9     -0.252600
      4 N04         1.6810   -0.6690    1.8720 na        1 JR9      0.059700
      5 C05         0.4320   -0.0940    2.2450 cd        1 JR9     -0.202600
      6 C06        -0.4880    0.3120    1.1680 cd        1 JR9      0.729200
      7 C07         2.3710   -0.9320    3.0610 cd        1 JR9      0.011900
      8 C08         1.4870   -0.5160    4.1190 cc        1 JR9      0.017400
      9 N09         0.3080   -0.0110    3.6020 nc        1 JR9     -0.253600
     10 N10        -1.6570    0.9420    1.5340 nv        1 JR9     -0.947500
     11 N11         3.6180   -1.5850    3.1230 nu        1 JR9     -0.668000
     12 C12         4.7720   -0.8040    2.7160 c3        1 JR9      0.206100
     13 C13         5.2570    0.2370    3.6820 ca        1 JR9     -0.126300
     14 C14         5.6380   -0.1280    4.9780 ca        1 JR9     -0.120500
     15 C15         6.1120    0.8340    5.8680 ca        1 JR9     -0.126000
     16 C16         6.2100    2.1670    5.4680 ca        1 JR9     -0.124000
     17 C17         5.8320    2.5360    4.1780 ca        1 JR9     -0.126000
     18 C18         5.3550    1.5750    3.2870 ca        1 JR9     -0.120500
     19 C19         1.8180   -0.5660    5.5610 c3        1 JR9      0.030100
     20 C20         1.4740   -1.8480    6.2450 ca        1 JR9     -0.042300
     21 C21         1.8480   -2.0490    7.5820 ca        1 JR9     -0.039900
     22 C22         1.5410   -3.2370    8.2800 ca        1 JR9     -0.090000
     23 C23         0.8490   -4.1990    7.5790 ca        1 JR9      0.049100
     24 C24         0.4620   -4.0040    6.2270 ca        1 JR9      0.070100
     25 C25         0.7600   -2.8460    5.5430 ca        1 JR9     -0.105000
     26 O26         0.4180   -5.4510    8.0070 os        1 JR9     -0.330900
     27 C27        -0.2660   -6.0590    6.8860 c3        1 JR9      0.320200
     28 O28        -0.2200   -5.1280    5.7780 os        1 JR9     -0.328900
     29 Br          2.7840   -0.7390    8.5510 br        1 JR9     -0.085100
     30 H1          1.2580   -0.5740   -1.4830 h4        1 JR9      0.035100
     31 H2          2.9570   -1.3040    0.2920 h4        1 JR9      0.178000
     32 H3         -2.3560    1.0920    0.8470 hn        1 JR9      0.442800
     33 H4         -1.9360    0.8910    2.4840 hn        1 JR9      0.442800
     34 H5          5.6050   -1.5510    2.5550 h1        1 JR9      0.065700
     35 H6          5.5710   -1.1800    5.2960 ha        1 JR9      0.132000
     36 H7          6.4090    0.5410    6.8850 ha        1 JR9      0.135000
     37 H8          6.5840    2.9260    6.1710 ha        1 JR9      0.134000
     38 H9          5.9070    3.5860    3.8610 ha        1 JR9      0.135000
     39 H10         5.0540    1.8720    2.2710 ha        1 JR9      0.132000
     40 H11         1.2830    0.2730    6.0950 hc        1 JR9      0.081700
     41 H12         2.9250   -0.3750    5.6700 hc        1 JR9      0.081700
     42 H13         1.8350   -3.3890    9.3270 ha        1 JR9      0.168000
     43 H14         0.4530   -2.7020    4.4980 ha        1 JR9      0.174000
     44 H15        -1.3350   -6.2260    7.1670 h2        1 JR9      0.074700
     45 H16         0.2840   -6.9870    6.5940 h2        1 JR9      0.074700
     46 H17         3.7380   -1.9590    4.0500 hn        1 JR9      0.395800
     47 H18         4.5450   -0.3220    1.7230 h1        1 JR9      0.065700
@<TRIPOS>BOND
     1    1    2 1   
     2    1    6 2   
     3    2    3 2   
     4    2   30 1   
     5    3    4 1   
     6    3   31 1   
     7    4    5 1   
     8    4    7 1   
     9    5    6 1   
    10    5    9 2   
    11    6   10 1   
    12    7    8 2   
    13    7   11 1   
    14    8    9 1   
    15    8   19 1   
    16   10   32 1   
    17   10   33 1   
    18   11   12 1   
    19   11   46 1   
    20   12   13 1   
    21   12   34 1   
    22   12   47 1   
    23   13   14 ar  
    24   13   18 ar  
    25   14   15 ar  
    26   14   35 1   
    27   15   16 ar  
    28   15   36 1   
    29   16   17 ar  
    30   16   37 1   
    31   17   18 ar  
    32   17   38 1   
    33   18   39 1   
    34   19   20 1   
    35   19   40 1   
    36   19   41 1   
    37   20   21 ar  
    38   20   25 ar  
    39   21   22 ar  
    40   21   29 1   
    41   22   23 ar  
    42   22   42 1   
    43   23   24 ar  
    44   23   26 1   
    45   24   25 ar  
    46   24   28 1   
    47   25   43 1   
    48   26   27 1   
    49   27   28 1   
    50   27   44 1   
    51   27   45 1   
@<TRIPOS>SUBSTRUCTURE
     1 JR9         1 TEMP              0 ****  ****    0 ROOT
