@<TRIPOS>MOLECULE
JR9
   47    51     1     0     0
SMALL
bcc


@<TRIPOS>ATOM
      1 N01        -0.1590    0.0130   -0.1560 nc        1 JR9     -0.759000
      2 C02         1.0660   -0.5420   -0.4190 cc        1 JR9      0.405200
      3 C03         2.0010   -0.9140    0.5300 cd        1 JR9     -0.252600
      4 N04         1.6860   -0.7190    1.8630 na        1 JR9      0.059700
      5 C05         0.4310   -0.1480    2.2220 cd        1 JR9     -0.202600
      6 C06        -0.4890    0.2310    1.1340 cd        1 JR9      0.729200
      7 C07         2.3740   -0.9550    3.0590 cd        1 JR9      0.011900
      8 C08         1.4830   -0.5260    4.1060 cc        1 JR9      0.017400
      9 N09         0.3010   -0.0410    3.5760 nc        1 JR9     -0.253600
     10 N10        -1.6640    0.8570    1.4850 nh        1 JR9     -0.947500
     11 N11         3.6260   -1.5960    3.1380 nh        1 JR9     -0.668000
     12 C12         4.7750   -0.8120    2.7210 c3        1 JR9      0.206100
     13 C13         5.2470    0.2520    3.6690 ca        1 JR9     -0.126300
     14 C14         5.6240   -0.0860    4.9740 ca        1 JR9     -0.120500
     15 C15         6.0860    0.8980    5.8470 ca        1 JR9     -0.126000
     16 C16         6.1750    2.2240    5.4220 ca        1 JR9     -0.124000
     17 C17         5.8010    2.5640    4.1220 ca        1 JR9     -0.126000
     18 C18         5.3370    1.5810    3.2480 ca        1 JR9     -0.120500
     19 C19         1.8090   -0.5470    5.5510 c3        1 JR9      0.030100
     20 C20         1.4750   -1.8200    6.2570 ca        1 JR9     -0.042300
     21 C21         1.8460   -1.9930    7.5980 ca        1 JR9     -0.039900
     22 C22         1.5480   -3.1710    8.3160 ca        1 JR9     -0.090000
     23 C23         0.8670   -4.1520    7.6310 ca        1 JR9      0.049100
     24 C24         0.4830   -3.9850    6.2740 ca        1 JR9      0.070100
     25 C25         0.7730   -2.8370    5.5710 ca        1 JR9     -0.105000
     26 O26         0.4460   -5.3990    8.0790 os        1 JR9     -0.330900
     27 C27        -0.2290   -6.0350    6.9680 c3        1 JR9      0.320200
     28 O28        -0.1880   -5.1230    5.8440 os        1 JR9     -0.328900
     29 BR          2.7660   -0.6570    8.5460 br        1 JR9     -0.085100
     30 H1          1.2740   -0.6900   -1.4940 h4        1 JR9      0.035100
     31 H2          2.9730   -1.3730    0.3000 h4        1 JR9      0.178000
     32 H3         -1.9450    0.8210    2.4350 hn        1 JR9      0.442800
     33 H4         -2.3620    0.9890    0.7930 hn        1 JR9      0.442800
     34 H5          4.5480   -0.3510    1.7180 h1        1 JR9      0.065700
     35 H6          5.5640   -1.1310    5.3120 ha        1 JR9      0.132000
     36 H7          6.3800    0.6270    6.8720 ha        1 JR9      0.135000
     37 H8          6.5400    2.9990    6.1120 ha        1 JR9      0.134000
     38 H9          5.8690    3.6080    3.7850 ha        1 JR9      0.135000
     39 H10         5.0380    1.8570    2.2250 ha        1 JR9      0.132000
     40 H11         1.2650    0.2960    6.0670 hc        1 JR9      0.081700
     41 H12         2.9140   -0.3440    5.6600 hc        1 JR9      0.081700
     42 H13         1.8400   -3.3010    9.3670 ha        1 JR9      0.168000
     43 H14         0.4680   -2.7150    4.5220 ha        1 JR9      0.174000
     44 H15         0.3310   -6.9630    6.6940 h2        1 JR9      0.074700
     45 H16        -1.2970   -6.2060    7.2490 h2        1 JR9      0.074700
     46 H17         3.7460   -1.9520    4.0720 hn        1 JR9      0.395800
     47 H18         5.6150   -1.5550    2.5780 h1        1 JR9      0.065700
@<TRIPOS>BOND
     1    1    2 1   
     2    1    6 2   
     3    2    3 2   
     4    2   30 1   
     5    3    4 1   
     6    3   31 1   
     7    4    5 1   
     8    4    7 1   
     9    5    6 1   
    10    5    9 2   
    11    6   10 1   
    12    7    8 2   
    13    7   11 1   
    14    8    9 1   
    15    8   19 1   
    16   10   32 1   
    17   10   33 1   
    18   11   12 1   
    19   11   46 1   
    20   12   13 1   
    21   12   34 1   
    22   12   47 1   
    23   13   14 ar  
    24   13   18 ar  
    25   14   15 ar  
    26   14   35 1   
    27   15   16 ar  
    28   15   36 1   
    29   16   17 ar  
    30   16   37 1   
    31   17   18 ar  
    32   17   38 1   
    33   18   39 1   
    34   19   20 1   
    35   19   40 1   
    36   19   41 1   
    37   20   21 ar  
    38   20   25 ar  
    39   21   22 ar  
    40   21   29 1   
    41   22   23 ar  
    42   22   42 1   
    43   23   24 ar  
    44   23   26 1   
    45   24   25 ar  
    46   24   28 1   
    47   25   43 1   
    48   26   27 1   
    49   27   28 1   
    50   27   44 1   
    51   27   45 1   
@<TRIPOS>SUBSTRUCTURE
     1 JR9         1 TEMP              0 ****  ****    0 ROOT
