@<TRIPOS>MOLECULE
JR9
   47    51     1     0     0
SMALL
bcc


@<TRIPOS>ATOM
      1 N01        -0.2360    0.0770   -0.0950 nc        1 JR9     -0.759000
      2 C02         0.9700   -0.5050   -0.3870 cc        1 JR9      0.405200
      3 C03         1.9180   -0.8990    0.5390 cd        1 JR9     -0.252600
      4 N04         1.6380   -0.7000    1.8800 na        1 JR9      0.059700
      5 C05         0.4050   -0.1020    2.2690 cd        1 JR9     -0.202600
      6 C06        -0.5310    0.3000    1.2030 cd        1 JR9      0.729200
      7 C07         2.3480   -0.9540    3.0600 cd        1 JR9      0.011900
      8 C08         1.4910   -0.5070    4.1280 cc        1 JR9      0.017400
      9 N09         0.3090    0.0050    3.6260 nc        1 JR9     -0.253600
     10 N10        -1.6840    0.9520    1.5820 nh        1 JR9     -0.947500
     11 N11         3.5870   -1.6220    3.1090 nh        1 JR9     -0.668000
     12 C12         4.7440   -0.8640    2.6650 c3        1 JR9      0.206100
     13 C13         5.2610    0.1880    3.6030 ca        1 JR9     -0.126300
     14 C14         5.6600   -0.1600    4.8990 ca        1 JR9     -0.120500
     15 C15         6.1640    0.8120    5.7610 ca        1 JR9     -0.126000
     16 C16         6.2730    2.1360    5.3350 ca        1 JR9     -0.124000
     17 C17         5.8760    2.4860    4.0450 ca        1 JR9     -0.126000
     18 C18         5.3700    1.5160    3.1810 ca        1 JR9     -0.120500
     19 C19         1.8500   -0.5380    5.5640 c3        1 JR9      0.030100
     20 C20         1.5030   -1.8050    6.2760 ca        1 JR9     -0.042300
     21 C21         1.9020   -1.9890    7.6080 ca        1 JR9     -0.039900
     22 C22         1.5930   -3.1620    8.3300 ca        1 JR9     -0.090000
     23 C23         0.8740   -4.1250    7.6600 ca        1 JR9      0.049100
     24 C24         0.4620   -3.9460    6.3130 ca        1 JR9      0.070100
     25 C25         0.7620   -2.8040    5.6040 ca        1 JR9     -0.105000
     26 O26         0.4350   -5.3640    8.1160 os        1 JR9     -0.330900
     27 C27        -0.2800   -5.9810    7.0190 c3        1 JR9      0.320200
     28 O28        -0.2440   -5.0690    5.8960 os        1 JR9     -0.328900
     29 BR          2.8740   -0.6770    8.5360 br        1 JR9     -0.085100
     30 H1          1.1490   -0.6540   -1.4660 h4        1 JR9      0.035100
     31 H2          2.8740   -1.3800    0.2870 h4        1 JR9      0.178000
     32 H3         -1.9440    0.9200    2.5380 hn        1 JR9      0.442800
     33 H4         -2.3940    1.1000    0.9060 hn        1 JR9      0.442800
     34 H5          4.5040   -0.3970    1.6680 h1        1 JR9      0.065700
     35 H6          5.5850   -1.2040    5.2370 ha        1 JR9      0.132000
     36 H7          6.4760    0.5330    6.7790 ha        1 JR9      0.135000
     37 H8          6.6710    2.9030    6.0170 ha        1 JR9      0.134000
     38 H9          5.9600    3.5300    3.7080 ha        1 JR9      0.135000
     39 H10         5.0530    1.7990    2.1660 ha        1 JR9      0.132000
     40 H11         1.3370    0.3160    6.0950 hc        1 JR9      0.081700
     41 H12         2.9610   -0.3610    5.6480 hc        1 JR9      0.081700
     42 H13         1.9070   -3.3010    9.3740 ha        1 JR9      0.168000
     43 H14         0.4350   -2.6720    4.5640 ha        1 JR9      0.174000
     44 H15        -1.3450   -6.1280    7.3250 h2        1 JR9      0.074700
     45 H16         0.2520   -6.9210    6.7310 h2        1 JR9      0.074700
     46 H17         3.7200   -1.9820    4.0390 hn        1 JR9      0.395800
     47 H18         5.5630   -1.6260    2.5030 h1        1 JR9      0.065700
@<TRIPOS>BOND
     1    1    2 1   
     2    1    6 2   
     3    2    3 2   
     4    2   30 1   
     5    3    4 1   
     6    3   31 1   
     7    4    5 1   
     8    4    7 1   
     9    5    6 1   
    10    5    9 2   
    11    6   10 1   
    12    7    8 2   
    13    7   11 1   
    14    8    9 1   
    15    8   19 1   
    16   10   32 1   
    17   10   33 1   
    18   11   12 1   
    19   11   46 1   
    20   12   13 1   
    21   12   34 1   
    22   12   47 1   
    23   13   14 ar  
    24   13   18 ar  
    25   14   15 ar  
    26   14   35 1   
    27   15   16 ar  
    28   15   36 1   
    29   16   17 ar  
    30   16   37 1   
    31   17   18 ar  
    32   17   38 1   
    33   18   39 1   
    34   19   20 1   
    35   19   40 1   
    36   19   41 1   
    37   20   21 ar  
    38   20   25 ar  
    39   21   22 ar  
    40   21   29 1   
    41   22   23 ar  
    42   22   42 1   
    43   23   24 ar  
    44   23   26 1   
    45   24   25 ar  
    46   24   28 1   
    47   25   43 1   
    48   26   27 1   
    49   27   28 1   
    50   27   44 1   
    51   27   45 1   
@<TRIPOS>SUBSTRUCTURE
     1 JR9         1 TEMP              0 ****  ****    0 ROOT
