@<TRIPOS>MOLECULE
JRB
   28    29     1     0     0
SMALL
bcc


@<TRIPOS>ATOM
      1 CAH         0.0740   -0.2300   -0.1220 c3        1 JRB      0.174300
      2 CAF         1.6160   -0.2210   -0.0820 c3        1 JRB      0.161300
      3 NAJ         2.1480   -0.0490    1.2560 n7        1 JRB     -0.821200
      4 CAG         1.5600   -0.9480    2.2280 c3        1 JRB      0.161300
      5 CAI         0.0170   -0.9370    2.1950 c3        1 JRB      0.174300
      6 NAM        -0.4980   -1.1550    0.8500 nh        1 JRB     -0.632000
      7 CAL        -1.9270   -1.2280    0.7730 ca        1 JRB      0.030600
      8 CAE        -2.7700   -0.3510    1.4770 ca        1 JRB     -0.118000
      9 CAC        -4.1540   -0.4780    1.4300 ca        1 JRB     -0.168000
     10 CAB        -4.7300   -1.4880    0.6630 ca        1 JRB     -0.096000
     11 CAD        -3.9300   -2.3620   -0.0590 ca        1 JRB     -0.194000
     12 CAK        -2.5190   -2.2510   -0.0380 ca        1 JRB      0.158600
     13 NAA        -1.7510   -3.0750   -0.8650 nv        1 JRB     -0.814200
     14 HAH1       -0.2500   -0.5640   -1.1470 h1        1 JRB      0.043950
     15 HAH2       -0.2990    0.8230    0.0390 h1        1 JRB      0.043950
     16 HAF1        1.9720    0.6480   -0.7030 h1        1 JRB      0.033200
     17 HAF2        1.9890   -1.1690   -0.5700 h1        1 JRB      0.033200
     18 HAJ         3.1450   -0.1600    1.2450 hn        1 JRB      0.362800
     19 HAG1        1.8850   -0.6040    3.2500 h1        1 JRB      0.033200
     20 HAG2        1.9110   -2.0130    2.0950 h1        1 JRB      0.033200
     21 HAI1       -0.3570   -1.7710    2.8490 h1        1 JRB      0.043950
     22 HAI2       -0.3380    0.0390    2.6360 h1        1 JRB      0.043950
     23 HAE        -2.3310    0.4560    2.0850 ha        1 JRB      0.132000
     24 HAC        -4.7880    0.2190    1.9960 ha        1 JRB      0.131000
     25 HAB        -5.8240   -1.5950    0.6260 ha        1 JRB      0.130000
     26 HAD        -4.4040   -3.1500   -0.6640 ha        1 JRB      0.131000
     27 HAA1       -0.7960   -3.1720   -0.5980 hn        1 JRB      0.394300
     28 HAA2       -2.1850   -3.9460   -1.0820 hn        1 JRB      0.394300
@<TRIPOS>BOND
     1    1    2 1   
     2    1    6 1   
     3    1   14 1   
     4    1   15 1   
     5    2    3 1   
     6    2   16 1   
     7    2   17 1   
     8    3    4 1   
     9    3   18 1   
    10    4    5 1   
    11    4   19 1   
    12    4   20 1   
    13    5    6 1   
    14    5   21 1   
    15    5   22 1   
    16    6    7 1   
    17    7    8 ar  
    18    7   12 ar  
    19    8    9 ar  
    20    8   23 1   
    21    9   10 ar  
    22    9   24 1   
    23   10   11 ar  
    24   10   25 1   
    25   11   12 ar  
    26   11   26 1   
    27   12   13 1   
    28   13   27 1   
    29   13   28 1   
@<TRIPOS>SUBSTRUCTURE
     1 JRB         1 TEMP              0 ****  ****    0 ROOT
