@<TRIPOS>MOLECULE
JRB
   28    29     1     0     0
SMALL
bcc


@<TRIPOS>ATOM
      1 CAH         0.0750   -0.2320   -0.1220 c3        1 JRB      0.174300
      2 CAF         1.6170   -0.2210   -0.0820 c3        1 JRB      0.161300
      3 NAJ         2.1490   -0.0450    1.2540 n3        1 JRB     -0.821200
      4 CAG         1.5620   -0.9410    2.2300 c3        1 JRB      0.161300
      5 CAI         0.0190   -0.9330    2.1970 c3        1 JRB      0.174300
      6 NAM        -0.4960   -1.1550    0.8530 nh        1 JRB     -0.632000
      7 CAL        -1.9260   -1.2300    0.7760 ca        1 JRB      0.030600
      8 CAE        -2.7680   -0.3500    1.4770 ca        1 JRB     -0.118000
      9 CAC        -4.1520   -0.4770    1.4310 ca        1 JRB     -0.169000
     10 CAB        -4.7280   -1.4910    0.6680 ca        1 JRB     -0.096000
     11 CAD        -3.9280   -2.3680   -0.0500 ca        1 JRB     -0.194000
     12 CAK        -2.5170   -2.2560   -0.0300 ca        1 JRB      0.158600
     13 NAA        -1.7490   -3.0840   -0.8540 nh        1 JRB     -0.814200
     14 HAH1       -0.2490   -0.5690   -1.1460 h1        1 JRB      0.043950
     15 HAH2       -0.2990    0.8200    0.0350 h1        1 JRB      0.043950
     16 HAF1        1.9900   -1.1700   -0.5680 h1        1 JRB      0.033200
     17 HAF2        1.9710    0.6470   -0.7060 h1        1 JRB      0.033200
     18 HAJ         3.1460   -0.1540    1.2440 hn        1 JRB      0.362800
     19 HAG1        1.8860   -0.5940    3.2500 h1        1 JRB      0.033200
     20 HAG2        1.9140   -2.0060    2.1000 h1        1 JRB      0.033200
     21 HAI1       -0.3540   -1.7660    2.8540 h1        1 JRB      0.043950
     22 HAI2       -0.3370    0.0440    2.6350 h1        1 JRB      0.043950
     23 HAE        -2.3300    0.4610    2.0810 ha        1 JRB      0.132000
     24 HAC        -4.7870    0.2220    1.9930 ha        1 JRB      0.131000
     25 HAB        -5.8220   -1.5990    0.6320 ha        1 JRB      0.130000
     26 HAD        -4.4020   -3.1590   -0.6510 ha        1 JRB      0.131000
     27 HAA1       -0.7930   -3.1780   -0.5870 hn        1 JRB      0.394300
     28 HAA2       -2.1820   -3.9560   -1.0670 hn        1 JRB      0.394300
@<TRIPOS>BOND
     1    1    2 1   
     2    1    6 1   
     3    1   14 1   
     4    1   15 1   
     5    2    3 1   
     6    2   16 1   
     7    2   17 1   
     8    3    4 1   
     9    3   18 1   
    10    4    5 1   
    11    4   19 1   
    12    4   20 1   
    13    5    6 1   
    14    5   21 1   
    15    5   22 1   
    16    6    7 1   
    17    7    8 ar  
    18    7   12 ar  
    19    8    9 ar  
    20    8   23 1   
    21    9   10 ar  
    22    9   24 1   
    23   10   11 ar  
    24   10   25 1   
    25   11   12 ar  
    26   11   26 1   
    27   12   13 1   
    28   13   27 1   
    29   13   28 1   
@<TRIPOS>SUBSTRUCTURE
     1 JRB         1 TEMP              0 ****  ****    0 ROOT
