@<TRIPOS>MOLECULE
JRG
   54    54     1     0     0
SMALL
bcc


@<TRIPOS>ATOM
      1 C          -4.9420    4.5140   -2.2240 c         1 JRG      0.907600
      2 N          -4.1770    2.3050   -1.3160 n         1 JRG     -0.545900
      3 O          -5.1830    3.9330   -3.3210 o         1 JRG     -0.846800
      4 CA         -4.2050    3.7300   -1.0820 c3        1 JRG     -0.023300
      5 CB         -2.7950    4.3330   -0.9610 c3        1 JRG     -0.073400
      6 CAA        -7.6260   -3.3950   -0.9000 c3        1 JRG     -0.022000
      7 OAD        -4.5710    1.7620    0.9000 o         1 JRG     -0.691100
      8 CAI         1.6220   -3.3360    0.5380 ca        1 JRG     -0.125500
      9 CAJ         3.8810   -2.4920    0.6880 ca        1 JRG     -0.125500
     10 CAK         1.1150   -2.0460    0.7370 ca        1 JRG     -0.088000
     11 CAL         3.3830   -1.2090    0.8900 ca        1 JRG     -0.088000
     12 CAM        -1.0460    2.6470   -0.2870 c3        1 JRG     -0.092400
     13 CAN        -1.9740    3.7540    0.1740 c3        1 JRG     -0.078400
     14 CAO        -0.2260    2.1140    0.8900 c3        1 JRG      0.092000
     15 CAR        -4.8420   -2.1660    0.4760 c3        1 JRG     -0.064400
     16 NAS         0.3390    0.8120    0.6400 n         1 JRG     -0.538900
     17 NAU        -4.3140   -0.0050   -0.6080 n         1 JRG     -0.507900
     18 SAV        -7.3700   -3.2160    0.8270 ss        1 JRG     -0.385200
     19 CAX        -2.4680   -1.3970    0.4060 c         1 JRG      0.889600
     20 CAY        -4.3540    1.3880   -0.2850 c         1 JRG      0.734100
     21 CAZ         1.5430    0.4290    1.1520 c         1 JRG      0.660700
     22 CBA         2.9960   -3.5580    0.5120 ca        1 JRG      0.034900
     23 CBB         2.0000   -0.9790    0.9110 ca        1 JRG     -0.115600
     24 CBD        -3.9450   -0.9160    0.4660 c3        1 JRG     -0.044300
     25 OXT        -5.2520    5.7120   -1.9730 o         1 JRG     -0.846800
     26 HN         -4.3420    2.0360   -2.2610 hn        1 JRG      0.325500
     27 HA         -4.7590    3.9350   -0.1200 h1        1 JRG      0.063700
     28 HB         -2.2510    4.2110   -1.9330 hc        1 JRG      0.041200
     29 HBA        -2.9440    5.4340   -0.7950 hc        1 JRG      0.041200
     30 HAA        -7.9830   -2.4450   -1.3580 h1        1 JRG      0.053367
     31 HAAA       -6.6940   -3.7060   -1.4220 h1        1 JRG      0.053367
     32 HAAB       -8.4010   -4.1830   -1.0290 h1        1 JRG      0.053367
     33 HAI         0.9080   -4.1640    0.4030 ha        1 JRG      0.136000
     34 HAJ         4.9680   -2.6570    0.6710 ha        1 JRG      0.136000
     35 HAK         0.0040   -1.9090    0.7500 ha        1 JRG      0.194500
     36 HAL         4.0680   -0.3600    1.0460 ha        1 JRG      0.194500
     37 HAM        -1.6520    1.8170   -0.7420 hc        1 JRG      0.053700
     38 HAMA       -0.3560    3.0300   -1.0820 hc        1 JRG      0.053700
     39 HAN        -1.3600    4.5690    0.6430 hc        1 JRG      0.035200
     40 HANA       -2.6640    3.3530    0.9660 hc        1 JRG      0.035200
     41 HAO         0.6050    2.8370    1.1310 h1        1 JRG      0.042200
     42 HAOA       -0.8940    2.0470    1.7990 h1        1 JRG      0.042200
     43 HAP        -6.2440   -1.5630    2.0130 h1        1 JRG      0.078200
     44 HAPA       -6.6540   -0.9850    0.3450 h1        1 JRG      0.078200
     45 HAR        -4.3670   -2.9060    1.1740 hc        1 JRG      0.052200
     46 HARA       -4.8670   -2.6280   -0.5450 hc        1 JRG      0.052200
     47 HNAS       -0.2610    0.1370    0.1940 hn        1 JRG      0.375500
     48 HNAU       -3.7750   -0.2060   -1.4310 hn        1 JRG      0.285500
     49 HBD        -4.0690   -0.3900    1.4590 h1        1 JRG      0.087700
     50 CAP        -6.2390   -1.8410    0.9290 c3        1 JRG      0.023700
     51 IAH         3.7290   -5.4260    0.2210 i         1 JRG     -0.210900
     52 OAC        -2.0400   -2.1350    1.3400 o         1 JRG     -0.854300
     53 OAE         2.2930    1.2240    1.7780 o         1 JRG     -0.684100
     54 OAG        -1.7200   -1.0300   -0.5530 o         1 JRG     -0.854300
@<TRIPOS>BOND
     1    1    3 1   
     2    1    4 1   
     3    1   25 1   
     4    2    4 1   
     5    2   20 1   
     6    2   26 1   
     7    4    5 1   
     8    4   27 1   
     9    5   13 1   
    10    5   28 1   
    11    5   29 1   
    12    6   18 1   
    13    6   30 1   
    14    6   31 1   
    15    6   32 1   
    16    7   20 2   
    17    8   10 ar  
    18    8   22 ar  
    19    8   33 1   
    20    9   11 ar  
    21    9   22 ar  
    22    9   34 1   
    23   10   23 ar  
    24   10   35 1   
    25   11   23 ar  
    26   11   36 1   
    27   12   13 1   
    28   12   14 1   
    29   12   37 1   
    30   12   38 1   
    31   13   39 1   
    32   13   40 1   
    33   14   16 1   
    34   14   41 1   
    35   14   42 1   
    36   15   24 1   
    37   15   45 1   
    38   15   46 1   
    39   15   50 1   
    40   16   21 1   
    41   16   47 1   
    42   17   20 1   
    43   17   24 1   
    44   17   48 1   
    45   18   50 1   
    46   19   24 1   
    47   19   52 1   
    48   19   54 1   
    49   21   23 1   
    50   21   53 2   
    51   22   51 1   
    52   24   49 1   
    53   43   50 1   
    54   44   50 1   
@<TRIPOS>SUBSTRUCTURE
     1 JRG         1 TEMP              0 ****  ****    0 ROOT
