@<TRIPOS>MOLECULE
JRG
   54    50     1     0     0
SMALL
bcc


@<TRIPOS>ATOM
      1 C          -0.5390   -0.6020   -1.0960 c1        1 JRG      0.792000
      2 N          -0.9300    1.7550   -0.9780 n         1 JRG     -0.497500
      3 O          -0.1050   -1.2970   -2.0420 o         1 JRG     -0.825500
      4 CA          0.0700    0.7070   -0.8070 c2        1 JRG      0.180500
      5 CB          0.5830    0.7210    0.6210 c3        1 JRG     -0.173700
      6 CAA        -6.9430    4.4600   -6.9120 c3        1 JRG     -0.032000
      7 OAC        -2.1490    3.4860   -5.7710 o         1 JRG     -0.844800
      8 OAD        -1.1670    1.3260   -3.2270 o         1 JRG     -0.694100
      9 OAE         5.2830   -3.5830    2.6830 o         1 JRG     -0.670100
     10 OAG        -1.9790    5.0170   -4.2410 o         1 JRG     -0.844800
     11 IAH         4.6080   -7.4240    8.4620 i         1 JRG     -0.206600
     12 CAI         5.4050   -6.1280    5.8320 c1        1 JRG     -0.063000
     13 CAJ         3.6090   -4.9630    6.9530 c1        1 JRG     -0.049500
     14 CAK         5.2760   -5.2610    4.7390 c1        1 JRG     -0.063000
     15 CAL         3.4810   -4.1050    5.8690 c1        1 JRG     -0.013500
     16 CAM         2.1720   -0.6010    2.0860 c3        1 JRG     -0.111400
     17 CAN         1.9630    0.0080    0.6780 c3        1 JRG     -0.076400
     18 CAO         3.4000   -1.5790    2.0620 c3        1 JRG      0.087000
     19 CAP        -5.5550    3.3340   -4.6310 c3        1 JRG      0.019700
     20 CAR        -4.6020    3.7580   -3.5200 c3        1 JRG     -0.062400
     21 NAS         3.5530   -2.1980    3.3770 n         1 JRG     -0.533900
     22 NAU        -2.5880    2.9430   -2.4410 n         1 JRG     -0.535900
     23 SAV        -6.4250    4.7670   -5.2530 ss        1 JRG     -0.420200
     24 CAX        -2.4130    3.8990   -4.6240 c         1 JRG      0.902600
     25 CAY        -1.5150    1.9910   -2.2880 c         1 JRG      0.736100
     26 CAZ         4.4640   -3.3240    3.5500 c         1 JRG      0.609300
     27 CBA         4.5780   -5.9820    6.9330 c1        1 JRG      0.039600
     28 CBB         4.3140   -4.2520    4.7600 cg        1 JRG     -0.070200
     29 CBD        -3.2510    3.0790   -3.7190 c3        1 JRG     -0.027300
     30 OXT        -1.5480   -0.9920   -0.4320 o         1 JRG     -0.825500
     31 HN         -1.2110    2.2530   -0.2470 hn        1 JRG      0.304500
     32 HA          0.8200    0.8650   -1.4270 h4        1 JRG     -0.020200
     33 HB         -0.0470    0.2540    1.1980 hc        1 JRG      0.042700
     34 HBA         0.6800    1.6430    0.9230 hc        1 JRG      0.042700
     35 HAA        -6.1680    4.2200   -7.4540 h1        1 JRG      0.069033
     36 HAAA       -7.3610    5.2660   -7.2790 h1        1 JRG      0.069033
     37 HAAB       -7.5860    3.7270   -6.9210 h1        1 JRG      0.069033
     38 HAI         6.0850   -6.8430    5.8170 ha        1 JRG      0.074500
     39 HAJ         3.0230   -4.8600    7.7330 ha        1 JRG      0.094500
     40 HAK         5.8620   -5.3650    3.9590 ha        1 JRG      0.074500
     41 HAL         2.8120   -3.4030    5.8830 ha        1 JRG      0.186500
     42 HAM         2.3430    0.1240    2.7350 hc        1 JRG      0.056700
     43 HAMA        1.3670   -1.0950    2.3510 hc        1 JRG      0.056700
     44 HAN         2.6700    0.6550    0.4950 hc        1 JRG      0.040200
     45 HANA        1.9900   -0.7030    0.0080 hc        1 JRG      0.040200
     46 HAO         4.2200   -1.0740    1.8380 h1        1 JRG      0.038200
     47 HAOA        3.2510   -2.2780    1.3870 h1        1 JRG      0.038200
     48 HAP        -5.0400    2.9150   -5.3680 h1        1 JRG      0.084200
     49 HAPA       -6.2060    2.6840   -4.2740 h1        1 JRG      0.084200
     50 HAR        -4.9730    3.4940   -2.6550 hc        1 JRG      0.041200
     51 HARA       -4.4840    4.7380   -3.5430 hc        1 JRG      0.041200
     52 HNAS        3.0910   -1.8720    4.0910 hn        1 JRG      0.371500
     53 HNAU       -2.8000    3.5010   -1.7590 hn        1 JRG      0.315500
     54 HBD        -3.3860    2.1900   -4.1130 h1        1 JRG      0.061700
@<TRIPOS>BOND
     1    1    3 2   
     2    1   30 2   
     3    2    4 2   
     4    2   25 1   
     5    2   31 1   
     6    4    5 1   
     7    4   32 1   
     8    5   17 1   
     9    5   33 1   
    10    5   34 1   
    11    6   23 1   
    12    6   35 1   
    13    6   36 1   
    14    6   37 1   
    15    7   24 1   
    16    8   25 2   
    17    9   26 2   
    18   10   24 1   
    19   11   27 1   
    20   12   14 3   
    21   12   38 1   
    22   13   27 3   
    23   13   39 1   
    24   14   40 1   
    25   15   28 3   
    26   15   41 1   
    27   16   17 1   
    28   16   18 1   
    29   16   42 1   
    30   16   43 1   
    31   17   44 1   
    32   17   45 1   
    33   18   21 1   
    34   18   46 1   
    35   18   47 1   
    36   19   20 1   
    37   19   23 1   
    38   19   48 1   
    39   19   49 1   
    40   20   29 1   
    41   20   50 1   
    42   20   51 1   
    43   21   26 1   
    44   21   52 1   
    45   22   25 1   
    46   22   29 1   
    47   22   53 1   
    48   24   29 1   
    49   26   28 1   
    50   29   54 1   
@<TRIPOS>SUBSTRUCTURE
     1 JRG         1 TEMP              0 ****  ****    0 ROOT
