@<TRIPOS>MOLECULE
JRG
   57    52     1     0     0
SMALL
bcc


@<TRIPOS>ATOM
      1 C          -2.0470    3.1410   -0.3070 c1        1 JRG      0.435000
      2 N           1.6810    2.0230    0.0810 n3        1 JRG     -0.258000
      3 O          -0.9870    2.8920   -0.8040 o         1 JRG     -0.217500
      4 CA          2.0820    2.1040    1.3810 c1        1 JRG     -0.197000
      5 CB          2.5000    2.1500    2.5050 c1        1 JRG     -0.186000
      6 CAA         2.5940    5.0230   -3.1360 c1        1 JRG     -1.126000
      7 OAD         0.7560    0.0440   -2.1770 o         1 JRG     -0.405000
      8 CAI         6.2160    0.5830    5.9740 cu        1 JRG     -0.021000
      9 CAJ         4.5270    1.7020    4.9500 c1        1 JRG      0.025000
     10 CAK         7.6220    0.8930    5.7850 cx        1 JRG     -0.074000
     11 CAL         5.7150    1.7910    4.0310 c3        1 JRG     -0.215000
     12 CAM         6.7980   -3.8970    3.5200 c3        1 JRG     -0.239000
     13 CAN         5.1520    0.6430    0.4300 c3        1 JRG     -0.071000
     14 CAO         7.6910   -2.6980    3.2420 c3        1 JRG     -0.033000
     15 CAR         3.6840    4.1250   -6.5370 c1        1 JRG     -0.058000
     16 NAS         7.4260   -1.5540    4.0780 n         1 JRG     -0.362000
     17 NAU         2.0440    1.7810   -2.9130 n         1 JRG     -0.385000
     18 SAV         3.0750    5.6540   -4.2390 ss        1 JRG      1.441000
     19 CAX         3.6440    0.5890   -1.4370 c2        1 JRG      0.350000
     20 CAY         0.8240    1.2080   -2.6180 c2        1 JRG      0.281000
     21 CAZ         6.9930   -0.3490    3.5830 c2        1 JRG      0.368000
     22 CBA         4.9470    1.0060    6.1710 c2        1 JRG     -0.348000
     23 CBB         6.7160    0.7590    4.5520 cx        1 JRG     -0.227000
     24 CBD         3.2590    1.0510   -2.8400 c3        1 JRG     -0.012000
     25 OXT        -3.0950    3.3910    0.1810 o         1 JRG     -0.217500
     26 HN          0.8650    1.4330    0.0040 hn        1 JRG      0.179500
     27 HA          1.4470    2.9430   -0.2660 hn        1 JRG      0.179500
     28 HB          2.8750    2.1920    3.5090 ha        1 JRG      0.279000
     29 HBA         5.3950   -0.4450    0.3850 h1        1 JRG      0.144333
     30 HAA         2.2120    4.6890   -2.2030 ha        1 JRG      0.203000
     31 HAAA        0.0590    4.1320   -2.8290 ha        1 JRG      0.001750
     32 HAAB       -0.6170    4.1480   -2.8810 ha        1 JRG      0.001750
     33 HAI         7.9480    1.8960    6.1410 hc        1 JRG      0.155500
     34 HAJ         5.4270    1.6010    2.9660 hc        1 JRG      0.151000
     35 HAK         8.4270    0.1430    5.9120 hc        1 JRG      0.155500
     36 HAL         6.1240    2.8350    4.0980 hc        1 JRG      0.151000
     37 HAM         4.3390    0.8600    1.1670 h1        1 JRG      0.144333
     38 HAMA        6.8940   -4.2380    4.5790 hc        1 JRG      0.087667
     39 HAN         7.1090   -4.7360    2.8510 hc        1 JRG      0.087667
     40 HANA        6.0690    1.2640    0.6020 h1        1 JRG      0.144333
     41 HAO         7.3960   -1.7140    5.0580 hn        1 JRG      0.230000
     42 HAOA        5.7260   -3.6610    3.3200 hc        1 JRG      0.087667
     43 HAP         0.8680    5.1440   -0.2800 ha        1 JRG      0.001750
     44 HAPA        0.4010    4.8620   -0.6830 ha        1 JRG      0.001750
     45 HAR         4.1090    1.6790   -3.2380 h1        1 JRG      0.157000
     46 HARA        3.9270    3.6160   -7.4390 ha        1 JRG      0.224000
     47 HNAS        8.7670   -2.9980    3.4080 h1        1 JRG      0.104000
     48 HNAU        2.1050    2.7670   -3.0920 hn        1 JRG      0.286000
     49 HBD         3.1790    0.0930   -3.4430 h1        1 JRG      0.157000
     50 IAH         3.8410    0.9650    7.8210 i         1 JRG      0.246000
     51 OAC         4.7160    1.0970   -0.8860 os        1 JRG     -0.137000
     52 OAE         6.8440   -0.1630    2.3520 o         1 JRG     -0.424000
     53 OAG         3.0910   -0.3800   -0.7400 oh        1 JRG     -0.206000
     54 H2         -0.0630    1.8640   -2.7900 h5        1 JRG      0.190000
     55 HAS2        7.5810   -2.3910    2.1620 h1        1 JRG      0.104000
     56 HAU2        2.2440   -0.7050   -1.1420 ho        1 JRG      0.340000
     57 CAP         3.4110    4.7180   -5.5250 c1        1 JRG     -0.675000
@<TRIPOS>BOND
     1    1    3 1   
     2    1   25 1   
     3    2    4 1   
     4    2   26 1   
     5    2   27 1   
     6    4    5 1   
     7    5   28 1   
     8    6   18 1   
     9    6   30 1   
    10    7   20 1   
    11    8   10 1   
    12    8   22 1   
    13    8   23 1   
    14    9   11 1   
    15    9   22 1   
    16   10   23 1   
    17   10   33 1   
    18   10   35 1   
    19   11   23 1   
    20   11   34 1   
    21   11   36 1   
    22   12   14 1   
    23   12   38 1   
    24   12   39 1   
    25   12   42 1   
    26   13   29 1   
    27   13   37 1   
    28   13   40 1   
    29   13   51 1   
    30   14   16 1   
    31   14   47 1   
    32   14   55 1   
    33   15   46 1   
    34   15   57 1   
    35   16   21 1   
    36   16   41 1   
    37   17   20 1   
    38   17   24 1   
    39   17   48 1   
    40   18   57 1   
    41   19   24 1   
    42   19   51 1   
    43   19   53 1   
    44   20   54 1   
    45   21   23 1   
    46   21   52 1   
    47   22   50 1   
    48   24   45 1   
    49   24   49 1   
    50   31   32 1   
    51   43   44 1   
    52   53   56 1   
@<TRIPOS>SUBSTRUCTURE
     1 JRG         1 TEMP              0 ****  ****    0 ROOT
