@<TRIPOS>MOLECULE
JRJ
   41    43     1     0     0
SMALL
bcc


@<TRIPOS>ATOM
      1 N01        -0.1310   -0.3210    0.0680 n4        1 JRJ     -0.838600
      2 C02         1.3550   -0.1660    0.0870 c3        1 JRJ      0.098800
      3 C03         1.9110    0.0170    1.4940 c3        1 JRJ     -0.109400
      4 C04         3.4220    0.1140    1.4070 c3        1 JRJ     -0.101400
      5 C05         4.0130    0.2170    2.8170 c3        1 JRJ      0.067300
      6 N06         5.4570    0.2160    2.8350 na        1 JRJ      0.022400
      7 C07         6.2690    1.1530    3.4960 cc        1 JRJ     -0.206600
      8 C08         7.5790    0.7100    3.2410 cd        1 JRJ      0.270600
      9 C09         8.8500    1.3230    3.6640 c3        1 JRJ     -0.117700
     10 C10         9.8050    0.2590    4.2100 c3        1 JRJ      0.067300
     11 N11        11.0260    0.8510    4.7960 na        1 JRJ      0.321100
     12 N12        11.0140    1.4220    6.0110 nc        1 JRJ     -0.221400
     13 C13        12.2960    1.8820    6.1900 ca        1 JRJ     -0.098000
     14 C14        12.9370    2.5630    7.2590 ca        1 JRJ      0.048100
     15 BR1        11.9610    2.9830    8.7880 br        1 JRJ     -0.016100
     16 C16        14.2680    2.8870    7.1160 ca        1 JRJ      0.008600
     17 BR2        15.1480    3.7850    8.4990 br        1 JRJ     -0.016600
     18 C18        15.0070    2.5540    5.9300 ca        1 JRJ      0.008600
     19 BR3        16.8100    3.0360    5.8310 br        1 JRJ     -0.016600
     20 C20        14.4250    1.8930    4.8710 ca        1 JRJ      0.048100
     21 BR4        15.3630    1.4500    3.3260 br        1 JRJ     -0.016100
     22 C22        13.0530    1.5410    4.9750 ca        1 JRJ     -0.098000
     23 N23        12.1870    0.8940    4.1270 nc        1 JRJ     -0.221400
     24 N24         7.4600   -0.4620    2.4440 nd        1 JRJ     -0.334000
     25 N25         6.2400   -0.7190    2.2310 nc        1 JRJ     -0.166800
     26 H011       -0.4070   -1.1410    0.6190 hn        1 JRJ      0.463467
     27 H012       -0.4580   -0.4410   -0.8960 hn        1 JRJ      0.463467
     28 H021        1.8010   -1.0890   -0.3870 hx        1 JRJ      0.119200
     29 H022        1.6150    0.7290   -0.5510 hx        1 JRJ      0.119200
     30 H031        1.4970    0.9490    1.9630 hc        1 JRJ      0.071200
     31 H032        1.6270   -0.8530    2.1450 hc        1 JRJ      0.071200
     32 H041        3.8300   -0.7940    0.8870 hc        1 JRJ      0.079700
     33 H042        3.7160    1.0110    0.8020 hc        1 JRJ      0.079700
     34 H051        3.6640    1.1710    3.3040 h1        1 JRJ      0.067700
     35 H052        3.6460   -0.6550    3.4330 h1        1 JRJ      0.067700
     36 H07         5.8780    1.9960    4.0620 h4        1 JRJ      0.199000
     37 H091        9.3240    1.8440    2.7870 hc        1 JRJ      0.080200
     38 H092        8.6350    2.0990    4.4480 hc        1 JRJ      0.080200
     39 H101        9.2960   -0.3390    5.0170 h1        1 JRJ      0.097700
     40 H102       10.1190   -0.4390    3.3810 h1        1 JRJ      0.097700
     41 H013       -0.5780    0.5090    0.4720 hn        1 JRJ      0.463467
@<TRIPOS>BOND
     1    1    2 1   
     2    1   26 1   
     3    1   27 1   
     4    1   41 1   
     5    2    3 1   
     6    2   28 1   
     7    2   29 1   
     8    3    4 1   
     9    3   30 1   
    10    3   31 1   
    11    4    5 1   
    12    4   32 1   
    13    4   33 1   
    14    5    6 1   
    15    5   34 1   
    16    5   35 1   
    17    6    7 1   
    18    6   25 1   
    19    7    8 2   
    20    7   36 1   
    21    8    9 1   
    22    8   24 1   
    23    9   10 1   
    24    9   37 1   
    25    9   38 1   
    26   10   11 1   
    27   10   39 1   
    28   10   40 1   
    29   11   12 1   
    30   11   23 1   
    31   12   13 2   
    32   13   14 ar  
    33   13   22 ar  
    34   14   15 1   
    35   14   16 ar  
    36   16   17 1   
    37   16   18 ar  
    38   18   19 1   
    39   18   20 ar  
    40   20   21 1   
    41   20   22 ar  
    42   22   23 2   
    43   24   25 2   
@<TRIPOS>SUBSTRUCTURE
     1 JRJ         1 TEMP              0 ****  ****    0 ROOT
