@<TRIPOS>MOLECULE
JRJ
   41    43     1     0     0
SMALL
bcc


@<TRIPOS>ATOM
      1 N01        -0.1300   -0.3240    0.0690 nz        1 JRJ     -0.838600
      2 C02         1.3550   -0.1710    0.0880 c3        1 JRJ      0.098800
      3 C03         1.9110    0.0170    1.4950 c3        1 JRJ     -0.109400
      4 C04         3.4220    0.1110    1.4090 c3        1 JRJ     -0.101400
      5 C05         4.0120    0.2190    2.8190 c3        1 JRJ      0.067300
      6 N06         5.4560    0.2160    2.8380 na        1 JRJ      0.022400
      7 C07         6.2690    1.1550    3.4960 cc        1 JRJ     -0.206600
      8 C08         7.5780    0.7090    3.2440 cd        1 JRJ      0.270600
      9 C09         8.8500    1.3220    3.6650 c3        1 JRJ     -0.117700
     10 C10         9.8040    0.2580    4.2140 c3        1 JRJ      0.067300
     11 N11        11.0260    0.8520    4.7980 na        1 JRJ      0.321100
     12 N12        11.0150    1.4250    6.0120 nc        1 JRJ     -0.220900
     13 C13        12.2970    1.8850    6.1890 ca        1 JRJ     -0.098000
     14 C14        12.9400    2.5680    7.2560 ca        1 JRJ      0.048100
     15 Br1        11.9660    2.9900    8.7850 br        1 JRJ     -0.016100
     16 C16        14.2700    2.8920    7.1100 ca        1 JRJ      0.008600
     17 Br2        15.1520    3.7920    8.4900 br        1 JRJ     -0.016600
     18 C18        15.0070    2.5580    5.9230 ca        1 JRJ      0.008600
     19 Br3        16.8100    3.0410    5.8210 br        1 JRJ     -0.016600
     20 C20        14.4240    1.8950    4.8660 ca        1 JRJ      0.048100
     21 Br4        15.3600    1.4510    3.3200 br        1 JRJ     -0.016100
     22 C22        13.0520    1.5430    4.9730 ca        1 JRJ     -0.098000
     23 N23        12.1860    0.8950    4.1270 nc        1 JRJ     -0.220900
     24 N24         7.4580   -0.4670    2.4520 nd        1 JRJ     -0.334000
     25 N25         6.2380   -0.7230    2.2390 nc        1 JRJ     -0.166800
     26 H011       -0.4080   -1.1420    0.6230 hn        1 JRJ      0.463467
     27 H012       -0.4570   -0.4480   -0.8960 hn        1 JRJ      0.463467
     28 H021        1.8010   -1.0970   -0.3820 hx        1 JRJ      0.119200
     29 H022        1.6170    0.7200   -0.5540 hx        1 JRJ      0.119200
     30 H031        1.4980    0.9510    1.9600 hc        1 JRJ      0.071200
     31 H032        1.6250   -0.8510    2.1490 hc        1 JRJ      0.071200
     32 H041        3.8300   -0.8000    0.8930 hc        1 JRJ      0.079700
     33 H042        3.7180    1.0060    0.8010 hc        1 JRJ      0.079700
     34 H051        3.6630    1.1750    3.3020 h1        1 JRJ      0.067700
     35 H052        3.6430   -0.6500    3.4380 h1        1 JRJ      0.067700
     36 H07         5.8790    2.0010    4.0580 h4        1 JRJ      0.199000
     37 H091        9.3240    1.8390    2.7860 hc        1 JRJ      0.080200
     38 H092        8.6350    2.1000    4.4470 hc        1 JRJ      0.080200
     39 H101        9.2940   -0.3360    5.0240 h1        1 JRJ      0.097700
     40 H102       10.1170   -0.4420    3.3880 h1        1 JRJ      0.097700
     41 H013       -0.5770    0.5070    0.4690 hn        1 JRJ      0.463467
@<TRIPOS>BOND
     1    1    2 1   
     2    1   26 1   
     3    1   27 1   
     4    1   41 1   
     5    2    3 1   
     6    2   28 1   
     7    2   29 1   
     8    3    4 1   
     9    3   30 1   
    10    3   31 1   
    11    4    5 1   
    12    4   32 1   
    13    4   33 1   
    14    5    6 1   
    15    5   34 1   
    16    5   35 1   
    17    6    7 1   
    18    6   25 1   
    19    7    8 2   
    20    7   36 1   
    21    8    9 1   
    22    8   24 1   
    23    9   10 1   
    24    9   37 1   
    25    9   38 1   
    26   10   11 1   
    27   10   39 1   
    28   10   40 1   
    29   11   12 1   
    30   11   23 1   
    31   12   13 2   
    32   13   14 ar  
    33   13   22 ar  
    34   14   15 1   
    35   14   16 ar  
    36   16   17 1   
    37   16   18 ar  
    38   18   19 1   
    39   18   20 ar  
    40   20   21 1   
    41   20   22 ar  
    42   22   23 2   
    43   24   25 2   
@<TRIPOS>SUBSTRUCTURE
     1 JRJ         1 TEMP              0 ****  ****    0 ROOT
