@<TRIPOS>MOLECULE
JRJ
   41    43     1     0     0
SMALL
bcc


@<TRIPOS>ATOM
      1 N01        -0.1340   -0.3140    0.0740 n4        1 JRJ     -0.838600
      2 C02         1.3510   -0.1570    0.0920 c3        1 JRJ      0.098800
      3 C03         1.9090    0.0180    1.5000 c3        1 JRJ     -0.109400
      4 C04         3.4200    0.1170    1.4120 c3        1 JRJ     -0.101400
      5 C05         4.0120    0.2130    2.8220 c3        1 JRJ      0.067300
      6 N06         5.4560    0.2130    2.8390 na        1 JRJ      0.022400
      7 C07         6.2680    1.1490    3.5020 cc        1 JRJ     -0.206600
      8 C08         7.5780    0.7090    3.2440 cd        1 JRJ      0.270600
      9 C09         8.8490    1.3220    3.6660 c3        1 JRJ     -0.117700
     10 C10         9.8060    0.2570    4.2070 c3        1 JRJ      0.067300
     11 N11        11.0280    0.8490    4.7920 na        1 JRJ      0.321100
     12 N12        11.0180    1.4180    6.0080 nc        1 JRJ     -0.221400
     13 C13        12.3000    1.8790    6.1850 ca        1 JRJ     -0.098000
     14 C14        12.9430    2.5580    7.2530 ca        1 JRJ      0.048100
     15 BR1        11.9700    2.9750    8.7850 br        1 JRJ     -0.016100
     16 C16        14.2740    2.8830    7.1070 ca        1 JRJ      0.008600
     17 BR2        15.1570    3.7790    8.4900 br        1 JRJ     -0.016600
     18 C18        15.0100    2.5530    5.9190 ca        1 JRJ      0.008600
     19 BR3        16.8130    3.0360    5.8170 br        1 JRJ     -0.016600
     20 C20        14.4260    1.8930    4.8600 ca        1 JRJ      0.048100
     21 BR4        15.3610    1.4540    3.3120 br        1 JRJ     -0.016100
     22 C22        13.0540    1.5410    4.9670 ca        1 JRJ     -0.098000
     23 N23        12.1870    0.8940    4.1200 nc        1 JRJ     -0.221400
     24 N24         7.4590   -0.4610    2.4430 nd        1 JRJ     -0.334000
     25 N25         6.2390   -0.7190    2.2310 nc        1 JRJ     -0.166800
     26 H011       -0.4620   -0.4290   -0.8910 hn        1 JRJ      0.463467
     27 H012       -0.4080   -1.1380    0.6200 hn        1 JRJ      0.463467
     28 H021        1.6090    0.7420   -0.5410 hx        1 JRJ      0.119200
     29 H022        1.7990   -1.0770   -0.3890 hx        1 JRJ      0.119200
     30 H031        1.4940    0.9460    1.9750 hc        1 JRJ      0.071200
     31 H032        1.6270   -0.8570    2.1460 hc        1 JRJ      0.071200
     32 H041        3.8290   -0.7880    0.8870 hc        1 JRJ      0.079700
     33 H042        3.7120    1.0180    0.8120 hc        1 JRJ      0.079700
     34 H051        3.6460   -0.6630    3.4340 h1        1 JRJ      0.067700
     35 H052        3.6620    1.1640    3.3150 h1        1 JRJ      0.067700
     36 H07         5.8770    1.9900    4.0710 h4        1 JRJ      0.199000
     37 H091        9.3210    1.8460    2.7890 hc        1 JRJ      0.080200
     38 H092        8.6340    2.0950    4.4530 hc        1 JRJ      0.080200
     39 H101       10.1180   -0.4390    3.3770 h1        1 JRJ      0.097700
     40 H102        9.2990   -0.3430    5.0150 h1        1 JRJ      0.097700
     41 H013       -0.5820    0.5120    0.4840 hn        1 JRJ      0.463467
@<TRIPOS>BOND
     1    1    2 1   
     2    1   26 1   
     3    1   27 1   
     4    1   41 1   
     5    2    3 1   
     6    2   28 1   
     7    2   29 1   
     8    3    4 1   
     9    3   30 1   
    10    3   31 1   
    11    4    5 1   
    12    4   32 1   
    13    4   33 1   
    14    5    6 1   
    15    5   34 1   
    16    5   35 1   
    17    6    7 1   
    18    6   25 1   
    19    7    8 2   
    20    7   36 1   
    21    8    9 1   
    22    8   24 1   
    23    9   10 1   
    24    9   37 1   
    25    9   38 1   
    26   10   11 1   
    27   10   39 1   
    28   10   40 1   
    29   11   12 1   
    30   11   23 1   
    31   12   13 2   
    32   13   14 ar  
    33   13   22 ar  
    34   14   15 1   
    35   14   16 ar  
    36   16   17 1   
    37   16   18 ar  
    38   18   19 1   
    39   18   20 ar  
    40   20   21 1   
    41   20   22 ar  
    42   22   23 2   
    43   24   25 2   
@<TRIPOS>SUBSTRUCTURE
     1 JRJ         1 TEMP              0 ****  ****    0 ROOT
