@<TRIPOS>MOLECULE
JRO
   29    31     1     0     0
SMALL
bcc


@<TRIPOS>ATOM
      1 CAA        -0.0880    0.0710   -0.0810 c3        1 JRO     -0.060900
      2 OAB         3.0750    0.1830   -3.3030 o         1 JRO     -0.569500
      3 OAC         9.4340   -0.0970    2.3990 oh        1 JRO     -0.511100
      4 OAD         8.0510    0.1050   -2.2570 oh        1 JRO     -0.489100
      5 OAE         6.7710   -0.1100    3.1430 oh        1 JRO     -0.493100
      6 CAF         8.8170    0.0050    0.0340 ca        1 JRO     -0.266000
      7 CAG         2.3290    0.0240    0.6470 cc        1 JRO     -0.221200
      8 CAH         4.7340   -0.0170    1.2480 ca        1 JRO     -0.119000
      9 CAI         5.3880    0.0920   -1.4870 ca        1 JRO     -0.005000
     10 OAJ         1.6640    0.1250   -1.6650 os        1 JRO     -0.332200
     11 CAK         1.3770    0.0710   -0.3120 cd        1 JRO      0.119900
     12 CAL         8.4750   -0.0490    1.4070 ca        1 JRO      0.077100
     13 CAM         7.8060    0.0510   -0.9060 ca        1 JRO      0.163100
     14 CAN         7.1490   -0.0570    1.8200 ca        1 JRO      0.071100
     15 CAO         2.9920    0.1320   -2.0760 c         1 JRO      0.736200
     16 CAP         3.7280    0.0290    0.2990 ca        1 JRO      0.013200
     17 CAQ         6.4250    0.0450   -0.5250 ca        1 JRO     -0.083000
     18 CAR         6.0940   -0.0100    0.8560 ca        1 JRO      0.031000
     19 CAS         4.0660    0.0840   -1.0860 ca        1 JRO     -0.182600
     20 HAA        -0.5410    0.9990   -0.5120 hc        1 JRO      0.065033
     21 HAAA       -0.5540   -0.8120   -0.5860 hc        1 JRO      0.065033
     22 HAAB       -0.3040    0.0280    1.0130 hc        1 JRO      0.065033
     23 HOAC       10.3030   -0.0850    1.9730 ho        1 JRO      0.432000
     24 HOAD        9.0110    0.1040   -2.3910 ho        1 JRO      0.426000
     25 HOAE        7.5790   -0.1370    3.6800 ho        1 JRO      0.438000
     26 HAF         9.8740    0.0100   -0.2630 ha        1 JRO      0.141000
     27 HAG         2.0560   -0.0180    1.7110 ha        1 JRO      0.156000
     28 HAH         4.4960   -0.0600    2.3220 ha        1 JRO      0.162000
     29 HAI         5.6480    0.1340   -2.5600 ha        1 JRO      0.175000
@<TRIPOS>BOND
     1    1   11 1   
     2    1   20 1   
     3    1   21 1   
     4    1   22 1   
     5    2   15 2   
     6    3   12 1   
     7    3   23 1   
     8    4   13 1   
     9    4   24 1   
    10    5   14 1   
    11    5   25 1   
    12    6   12 ar  
    13    6   13 ar  
    14    6   26 1   
    15    7   11 2   
    16    7   16 1   
    17    7   27 1   
    18    8   16 ar  
    19    8   18 ar  
    20    8   28 1   
    21    9   17 ar  
    22    9   19 ar  
    23    9   29 1   
    24   10   11 1   
    25   10   15 1   
    26   12   14 ar  
    27   13   17 ar  
    28   14   18 ar  
    29   15   19 1   
    30   16   19 ar  
    31   17   18 ar  
@<TRIPOS>SUBSTRUCTURE
     1 JRO         1 TEMP              0 ****  ****    0 ROOT
