@<TRIPOS>MOLECULE
JRO
   29    27     1     0     0
SMALL
bcc


@<TRIPOS>ATOM
      1 CAA        -5.2000   -0.0010   -0.0490 c3        1 JRO     -0.183000
      2 OAB        -1.7680    0.1300   -3.4250 o         1 JRO     -0.294000
      3 OAC         4.5270   -0.3970    2.1490 oh        1 JRO     -0.265000
      4 OAD         3.1730   -0.7670   -2.1260 oh        1 JRO     -0.243000
      5 OAE         2.1840    0.7900    2.8580 oh        1 JRO     -0.247000
      6 CAF         3.8020   -0.0010   -0.0490 c1        1 JRO     -0.266000
      7 CAG        -2.6860   -0.0010    0.5730 c1        1 JRO     -0.233000
      8 CAH        -0.2270   -0.0010    1.1230 c1        1 JRO     -0.119000
      9 CAI         0.4250   -0.0010   -1.5810 c1        1 JRO     -0.005000
     10 OAJ        -3.4250   -0.0010   -1.8410 os        1 JRO     -0.198000
     11 CAK        -3.7670   -0.0010   -0.4640 c2        1 JRO      0.080000
     12 CAL         3.4740   -0.0010    1.3040 c2        1 JRO      0.032000
     13 CAM         2.7970   -0.0010   -1.0070 c1        1 JRO      0.118000
     14 CAN         2.1420   -0.0010    1.6960 c2        1 JRO      0.026000
     15 CAO        -2.0470   -0.0010   -2.2480 c2        1 JRO      0.350000
     16 CAP        -1.2470   -0.0010    0.1520 c1        1 JRO      0.025000
     17 CAQ         1.4460   -0.0010   -0.6110 c1        1 JRO     -0.083000
     18 CAR         1.1230   -0.0010    0.7260 c1        1 JRO      0.031000
     19 CAS        -0.9250   -0.0010   -1.1830 c2        1 JRO     -0.162000
     20 HAA        -5.3790    0.7830    0.5040 hc        1 JRO      0.104333
     21 HAAA       -5.7680    0.0240   -0.8420 hc        1 JRO      0.104333
     22 HAAB       -5.3910   -0.8100    0.4630 hc        1 JRO      0.104333
     23 HOAC        5.0880    0.2810    2.2620 ho        1 JRO      0.231000
     24 HOAD        3.6500   -0.2660   -2.6820 ho        1 JRO      0.225000
     25 HOAE        1.9780    0.2910    3.5630 ho        1 JRO      0.237000
     26 HAF         4.7380    0.0150   -0.3240 ha        1 JRO      0.141000
     27 HAG        -2.9170   -0.0620    1.5200 ha        1 JRO      0.156000
     28 HAH        -0.4560   -0.0060    2.0710 ha        1 JRO      0.162000
     29 HAI         0.6540    0.0070   -2.5300 ha        1 JRO      0.175000
@<TRIPOS>BOND
     1    1   11 1   
     2    1   20 1   
     3    1   21 1   
     4    1   22 1   
     5    2   15 1   
     6    3   12 1   
     7    3   23 1   
     8    4   13 1   
     9    4   24 1   
    10    5   14 1   
    11    5   25 1   
    12    6   12 1   
    13    6   26 1   
    14    7   11 1   
    15    7   27 1   
    16    8   16 1   
    17    8   28 1   
    18    9   19 1   
    19    9   29 1   
    20   10   11 1   
    21   10   15 1   
    22   12   14 1   
    23   13   17 1   
    24   14   18 1   
    25   15   19 1   
    26   16   19 1   
    27   17   18 1   
@<TRIPOS>SUBSTRUCTURE
     1 JRO         1 TEMP              0 ****  ****    0 ROOT
