@<TRIPOS>MOLECULE
JRO
   29    31     1     0     0
SMALL
bcc


@<TRIPOS>ATOM
      1 CAA        -0.0880    0.0720   -0.0730 c3        1 JRO     -0.060900
      2 OAB         3.0690    0.1870   -3.3000 o         1 JRO     -0.569500
      3 OAC         9.4380   -0.1000    2.3910 oh        1 JRO     -0.511100
      4 OAD         8.0470    0.1080   -2.2620 oh        1 JRO     -0.489100
      5 OAE         6.7760   -0.1140    3.1400 oh        1 JRO     -0.493100
      6 CAF         8.8160    0.0050    0.0280 ca        1 JRO     -0.266000
      7 CAG         2.3290    0.0240    0.6520 cc        1 JRO     -0.221200
      8 CAH         4.7360   -0.0180    1.2480 ca        1 JRO     -0.119000
      9 CAI         5.3860    0.0940   -1.4880 ca        1 JRO     -0.005000
     10 OAJ         1.6610    0.1270   -1.6590 os        1 JRO     -0.332200
     11 CAK         1.3760    0.0710   -0.3060 cd        1 JRO      0.119900
     12 CAL         8.4770   -0.0510    1.4020 ca        1 JRO      0.077100
     13 CAM         7.8050    0.0520   -0.9100 ca        1 JRO      0.163100
     14 CAN         7.1510   -0.0600    1.8160 ca        1 JRO      0.071100
     15 CAO         2.9890    0.1360   -2.0720 c         1 JRO      0.736200
     16 CAP         3.7290    0.0290    0.3010 ca        1 JRO      0.013200
     17 CAQ         6.4240    0.0450   -0.5270 ca        1 JRO     -0.083000
     18 CAR         6.0950   -0.0110    0.8540 ca        1 JRO      0.031000
     19 CAS         4.0640    0.0860   -1.0840 ca        1 JRO     -0.182600
     20 HAA        -0.5410    1.0030   -0.4960 hc        1 JRO      0.065033
     21 HAAA       -0.5560   -0.8070   -0.5830 hc        1 JRO      0.065033
     22 HAAB       -0.3020    0.0210    1.0220 hc        1 JRO      0.065033
     23 HOAC       10.3060   -0.0880    1.9640 ho        1 JRO      0.432000
     24 HOAD        9.0070    0.1070   -2.3970 ho        1 JRO      0.426000
     25 HOAE        7.5850   -0.1420    3.6760 ho        1 JRO      0.438000
     26 HAF         9.8730    0.0100   -0.2710 ha        1 JRO      0.141000
     27 HAG         2.0590   -0.0200    1.7160 ha        1 JRO      0.156000
     28 HAH         4.4990   -0.0630    2.3230 ha        1 JRO      0.162000
     29 HAI         5.6440    0.1380   -2.5610 ha        1 JRO      0.175000
@<TRIPOS>BOND
     1    1   11 1   
     2    1   20 1   
     3    1   21 1   
     4    1   22 1   
     5    2   15 2   
     6    3   12 1   
     7    3   23 1   
     8    4   13 1   
     9    4   24 1   
    10    5   14 1   
    11    5   25 1   
    12    6   12 ar  
    13    6   13 ar  
    14    6   26 1   
    15    7   11 2   
    16    7   16 1   
    17    7   27 1   
    18    8   16 ar  
    19    8   18 ar  
    20    8   28 1   
    21    9   17 ar  
    22    9   19 ar  
    23    9   29 1   
    24   10   11 1   
    25   10   15 1   
    26   12   14 ar  
    27   13   17 ar  
    28   14   18 ar  
    29   15   19 1   
    30   16   19 ar  
    31   17   18 ar  
@<TRIPOS>SUBSTRUCTURE
     1 JRO         1 TEMP              0 ****  ****    0 ROOT
