@<TRIPOS>MOLECULE
JRO
   29    31     1     0     0
SMALL
bcc


@<TRIPOS>ATOM
      1 CAA        -5.0010    1.7370   -0.0700 c3        1 JRO     -0.062900
      2 OAB        -3.0820   -2.3470    0.0910 o         1 JRO     -0.567500
      3 OAC         4.8600    0.8040   -0.0390 oh        1 JRO     -0.487100
      4 OAD         1.9630   -2.9940    0.1770 oh        1 JRO     -0.490100
      5 OAE         2.6780    2.5040   -0.1010 oh        1 JRO     -0.514100
      6 CAF         3.4470   -1.0930    0.0740 ca        1 JRO     -0.248000
      7 CAG        -2.4790    1.6280   -0.0710 cc        1 JRO     -0.231200
      8 CAH        -0.0100    1.4010   -0.0670 ca        1 JRO     -0.157000
      9 CAI        -0.2950   -1.3940    0.0670 ca        1 JRO      0.010000
     10 OAJ        -3.8710   -0.3350    0.0080 os        1 JRO     -0.332200
     11 CAK        -3.6950    1.0350   -0.0450 cd        1 JRO      0.128900
     12 CAL         3.5810    0.3160   -0.0200 ca        1 JRO      0.185100
     13 CAM         2.1790   -1.6410    0.0980 ca        1 JRO      0.181100
     14 CAN         2.4580    1.1360   -0.0750 ca        1 JRO     -0.050900
     15 CAO        -2.7520   -1.1620    0.0440 c         1 JRO      0.737200
     16 CAP        -1.2730    0.8380   -0.0410 ca        1 JRO      0.034200
     17 CAQ         0.9990   -0.8270    0.0430 ca        1 JRO     -0.101000
     18 CAR         1.1470    0.5850   -0.0320 ca        1 JRO      0.036000
     19 CAS        -1.4130   -0.5810    0.0220 ca        1 JRO     -0.196600
     20 HAA        -5.5800    1.4950    0.8570 hc        1 JRO      0.066367
     21 HAAA       -4.8430    2.8410   -0.1280 hc        1 JRO      0.066367
     22 HAAB       -5.5990    1.4010   -0.9530 hc        1 JRO      0.066367
     23 HOAC        4.8090    1.7740   -0.0930 ho        1 JRO      0.443000
     24 HOAD        2.8240   -3.4380    0.2140 ho        1 JRO      0.431000
     25 HOAE        2.1710    2.8510   -0.8510 ho        1 JRO      0.418000
     26 HAF         4.3530   -1.7110    0.1220 ha        1 JRO      0.161000
     27 HAG        -2.3860    2.7220   -0.1130 ha        1 JRO      0.154000
     28 HAH         0.1070    2.4940   -0.0970 ha        1 JRO      0.143000
     29 HAI        -0.4050   -2.4930    0.1220 ha        1 JRO      0.175000
@<TRIPOS>BOND
     1    1   11 1   
     2    1   20 1   
     3    1   21 1   
     4    1   22 1   
     5    2   15 2   
     6    3   12 1   
     7    3   23 1   
     8    4   13 1   
     9    4   24 1   
    10    5   14 1   
    11    5   25 1   
    12    6   12 ar  
    13    6   13 ar  
    14    6   26 1   
    15    7   11 2   
    16    7   16 1   
    17    7   27 1   
    18    8   16 ar  
    19    8   18 ar  
    20    8   28 1   
    21    9   17 ar  
    22    9   19 ar  
    23    9   29 1   
    24   10   11 1   
    25   10   15 1   
    26   12   14 ar  
    27   13   17 ar  
    28   14   18 ar  
    29   15   19 1   
    30   16   19 ar  
    31   17   18 ar  
@<TRIPOS>SUBSTRUCTURE
     1 JRO         1 TEMP              0 ****  ****    0 ROOT
