@<TRIPOS>MOLECULE
JRR
   56    58     1     0     0
SMALL
bcc


@<TRIPOS>ATOM
      1 C1          0.1550    2.9630    1.2580 c3        1 JRR      0.120400
      2 O1         -0.7910    2.0370    0.7220 os        1 JRR     -0.424600
      3 C2          1.4460    2.1770    1.5080 c3        1 JRR      0.163800
      4 N2          2.1130    1.7860    0.2830 n3        1 JRR     -0.825200
      5 C3          3.1610    0.8080    0.5000 c3        1 JRR      0.166800
      6 C4          3.7730    0.2980   -0.8080 c3        1 JRR     -0.044100
      7 N1'        -2.5930    2.7320   -2.1810 n3        1 JRR     -0.788200
      8 C11         4.9030   -0.6290   -0.5260 ca        1 JRR     -0.052300
      9 C12         6.1240   -0.1170   -0.0780 ca        1 JRR     -0.165000
     10 C13         7.1940   -0.9930    0.1770 ca        1 JRR      0.125900
     11 F13         8.3780   -0.4980    0.6120 f         1 JRR     -0.142900
     12 C14         7.0440   -2.3780   -0.0170 ca        1 JRR     -0.168000
     13 C15         5.8220   -2.8710   -0.4650 ca        1 JRR     -0.104000
     14 C16         4.7570   -2.0070   -0.7180 ca        1 JRR     -0.143000
     15 N1A        -4.9770   -0.4890    1.1150 nb        1 JRR     -0.733000
     16 C2'        -1.6460    3.2710   -1.2140 c3        1 JRR      0.112800
     17 C2A        -3.8460   -0.7140    0.4090 ca        1 JRR      0.450600
     18 C3'        -1.9460    2.6770    0.1890 c3        1 JRR      0.117100
     19 C3A        -3.6670   -1.8360   -0.4240 ca        1 JRR     -0.292300
     20 C4'        -3.0550    1.6250   -0.0350 c3        1 JRR     -0.079700
     21 C4A        -4.7030   -2.7720   -0.5350 ca        1 JRR     -0.006300
     22 C5'        -3.2560    1.5850   -1.5670 c3        1 JRR      0.141800
     23 C5A        -5.8820   -2.5600    0.1750 ca        1 JRR     -0.301300
     24 C6A        -5.9990   -1.3930    0.9890 ca        1 JRR      0.630200
     25 N6A        -7.2250   -1.1240    1.6230 nh        1 JRR     -0.923500
     26 C7A        -2.7120    0.2680    0.5410 c3        1 JRR     -0.112700
     27 C8A        -4.5360   -3.9690   -1.3900 c3        1 JRR     -0.060800
     28 H1          0.3200    3.8120    0.5430 h1        1 JRR      0.039200
     29 H1A        -0.2350    3.3640    2.2310 h1        1 JRR      0.039200
     30 H2          2.1490    2.8420    2.0830 h1        1 JRR      0.040700
     31 H2A         1.1940    1.2920    2.1630 h1        1 JRR      0.040700
     32 HN2         1.4420    1.4470   -0.3840 hn        1 JRR      0.368800
     33 H3          3.9690    1.3070    1.1080 h1        1 JRR      0.033700
     34 H3A         2.7990   -0.0840    1.0940 h1        1 JRR      0.033700
     35 H4          2.9880   -0.2260   -1.4160 hc        1 JRR      0.058700
     36 H4A         4.1440    1.1660   -1.4170 hc        1 JRR      0.058700
     37 HN1'       -3.2710    3.4310   -2.4260 hn        1 JRR      0.346800
     38 H12         6.2550    0.9640    0.0740 ha        1 JRR      0.151000
     39 H14         7.8880   -3.0520    0.1850 ha        1 JRR      0.148000
     40 H15         5.6980   -3.9530   -0.6190 ha        1 JRR      0.137000
     41 H16         3.7970   -2.4120   -1.0730 ha        1 JRR      0.136000
     42 H2'        -0.6140    2.9550   -1.5310 h1        1 JRR      0.056200
     43 H2'A       -1.6770    4.3910   -1.1820 h1        1 JRR      0.056200
     44 H3'        -2.2950    3.4740    0.8980 h1        1 JRR      0.043700
     45 H3AA       -2.7300   -1.9730   -0.9780 ha        1 JRR      0.143000
     46 H4'        -3.9940    2.0050    0.4520 hc        1 JRR      0.071700
     47 H5'        -4.3480    1.5590   -1.8200 h1        1 JRR      0.054700
     48 H5'A       -2.7800    0.6570   -1.9890 h1        1 JRR      0.054700
     49 H5A        -6.7140   -3.2730    0.1010 ha        1 JRR      0.141000
     50 HN6A       -7.2030   -0.4160    2.3230 hn        1 JRR      0.399300
     51 HN6B       -7.7130   -1.9460    1.9010 hn        1 JRR      0.399300
     52 H7A        -2.4450    0.3920    1.6260 hc        1 JRR      0.067700
     53 H7AA       -1.8050   -0.1420    0.0220 hc        1 JRR      0.067700
     54 H8A        -3.8380   -4.6930   -0.8990 hc        1 JRR      0.049700
     55 H8AA       -5.5130   -4.4840   -1.5650 hc        1 JRR      0.049700
     56 H8AB       -4.1030   -3.6840   -2.3810 hc        1 JRR      0.049700
@<TRIPOS>BOND
     1    1    2 1   
     2    1    3 1   
     3    1   28 1   
     4    1   29 1   
     5    2   18 1   
     6    3    4 1   
     7    3   30 1   
     8    3   31 1   
     9    4    5 1   
    10    4   32 1   
    11    5    6 1   
    12    5   33 1   
    13    5   34 1   
    14    6    8 1   
    15    6   35 1   
    16    6   36 1   
    17    7   16 1   
    18    7   22 1   
    19    7   37 1   
    20    8    9 ar  
    21    8   14 ar  
    22    9   10 ar  
    23    9   38 1   
    24   10   11 1   
    25   10   12 ar  
    26   12   13 ar  
    27   12   39 1   
    28   13   14 ar  
    29   13   40 1   
    30   14   41 1   
    31   15   17 ar  
    32   15   24 ar  
    33   16   18 1   
    34   16   42 1   
    35   16   43 1   
    36   17   19 ar  
    37   17   26 1   
    38   18   20 1   
    39   18   44 1   
    40   19   21 ar  
    41   19   45 1   
    42   20   22 1   
    43   20   26 1   
    44   20   46 1   
    45   21   23 ar  
    46   21   27 1   
    47   22   47 1   
    48   22   48 1   
    49   23   24 ar  
    50   23   49 1   
    51   24   25 1   
    52   25   50 1   
    53   25   51 1   
    54   26   52 1   
    55   26   53 1   
    56   27   54 1   
    57   27   55 1   
    58   27   56 1   
@<TRIPOS>SUBSTRUCTURE
     1 JRR         1 TEMP              0 ****  ****    0 ROOT
