@<TRIPOS>MOLECULE
JRR
   58    60     1     0     0
SMALL
bcc


@<TRIPOS>ATOM
      1 C1          0.7150    0.4810   -0.7520 c3        1 JRR      0.104400
      2 O1          1.9360   -0.2440   -0.6570 os        1 JRR     -0.457600
      3 C2          0.1460    0.2020   -2.1480 c3        1 JRR      0.097800
      4 N2         -0.1060   -1.2490   -2.3820 n4        1 JRR     -0.760000
      5 C3         -0.5980   -1.5180   -3.7690 c3        1 JRR      0.101800
      6 C4         -0.9230   -2.9950   -3.9970 c3        1 JRR     -0.048100
      7 N1'         4.3300   -1.9480    0.8330 n3        1 JRR     -0.782200
      8 C11        -1.4760   -3.1580   -5.3710 ca        1 JRR     -0.105300
      9 C12        -2.7830   -2.7430   -5.6390 ca        1 JRR     -0.172000
     10 C13        -3.3150   -2.9210   -6.9280 ca        1 JRR      0.149900
     11 F13        -4.5770   -2.5160   -7.1910 f         1 JRR     -0.116900
     12 C14        -2.5380   -3.5170   -7.9420 ca        1 JRR     -0.132000
     13 C15        -1.2410   -3.9270   -7.6530 ca        1 JRR     -0.089000
     14 C16        -0.7050   -3.7490   -6.3760 ca        1 JRR     -0.128000
     15 N1A         5.1220    3.1690    1.2640 nb        1 JRR     -0.670000
     16 C2'         2.8800   -1.8950    0.8010 c3        1 JRR      0.145800
     17 C2A         5.2010    2.2900    0.2430 ca        1 JRR      0.455600
     18 C3'         2.4230   -0.4130    0.6800 c3        1 JRR      0.112100
     19 C3A         6.3830    2.1280   -0.5260 ca        1 JRR     -0.202300
     20 C4'         3.6880    0.4260    0.9660 c3        1 JRR     -0.108700
     21 C4A         7.5140    2.8930   -0.2360 ca        1 JRR      0.011700
     22 C5'         4.8280   -0.6110    1.1270 c3        1 JRR      0.148800
     23 C5A         7.4500    3.8150    0.8280 ca        1 JRR     -0.206300
     24 C6A         6.2380    3.9040    1.5340 ca        1 JRR      0.454200
     25 N6A         6.1340    4.8590    2.6630 n4        1 JRR     -0.818300
     26 C7A         3.9930    1.4580   -0.1000 c3        1 JRR     -0.120700
     27 C8A         8.7660    2.7450   -1.0080 c3        1 JRR     -0.086800
     28 H1          0.9180    1.5830   -0.6680 h1        1 JRR      0.074200
     29 H1A        -0.0050    0.1720    0.0520 h1        1 JRR      0.074200
     30 H2         -0.8240    0.7620   -2.2710 hx        1 JRR      0.117700
     31 H2A         0.8780    0.5530   -2.9310 hx        1 JRR      0.117700
     32 HN2         0.7710   -1.7630   -2.2180 hn        1 JRR      0.455300
     33 H3         -1.5240   -0.8950   -3.9370 hx        1 JRR      0.112200
     34 H3A         0.2000   -1.1820   -4.4920 hx        1 JRR      0.112200
     35 H4          0.0020   -3.6200   -3.8750 hc        1 JRR      0.073700
     36 H4A        -1.6810   -3.3500   -3.2470 hc        1 JRR      0.073700
     37 HN1'        4.7000   -2.2880   -0.0350 hn        1 JRR      0.366800
     38 H12        -3.4120   -2.2990   -4.8540 ha        1 JRR      0.143000
     39 H14        -2.9690   -3.6580   -8.9470 ha        1 JRR      0.175000
     40 H15        -0.6330   -4.4030   -8.4390 ha        1 JRR      0.161000
     41 H16         0.3190   -4.0910   -6.1640 ha        1 JRR      0.139000
     42 H2'         2.4570   -2.5090   -0.0370 h1        1 JRR      0.067200
     43 H2'A        2.5000   -2.3100    1.7760 h1        1 JRR      0.067200
     44 H3'         1.6200   -0.1800    1.4260 h1        1 JRR      0.072700
     45 H3AA        6.4020    1.3980   -1.3510 ha        1 JRR      0.178000
     46 H4'         3.5350    0.9510    1.9480 hc        1 JRR      0.080700
     47 H5'         5.7040   -0.3460    0.4750 h1        1 JRR      0.060200
     48 H5'A        5.1800   -0.6150    2.1960 h1        1 JRR      0.060200
     49 H5A         8.3320    4.4280    1.0720 ha        1 JRR      0.177000
     50 HN6A        6.9990    5.4060    2.7230 hn        1 JRR      0.474133
     51 HN6B        5.3370    5.4920    2.5170 hn        1 JRR      0.474133
     52 H7A         4.1730    0.9450   -1.0830 hc        1 JRR      0.071200
     53 H7AA        3.1000    2.1290   -0.2320 hc        1 JRR      0.071200
     54 H8A         9.5080    2.1440   -0.4200 hc        1 JRR      0.081700
     55 H8AA        8.5850    2.2220   -1.9800 hc        1 JRR      0.081700
     56 H8AB        9.2220    3.7450   -1.2240 hc        1 JRR      0.081700
     57 H22        -0.7980   -1.5910   -1.7050 hn        1 JRR      0.455300
     58 H6A3        5.9910    4.3440    3.5410 hn        1 JRR      0.474133
@<TRIPOS>BOND
     1    1    2 1   
     2    1    3 1   
     3    1   28 1   
     4    1   29 1   
     5    2   18 1   
     6    3    4 1   
     7    3   30 1   
     8    3   31 1   
     9    4    5 1   
    10    4   32 1   
    11    4   57 1   
    12    5    6 1   
    13    5   33 1   
    14    5   34 1   
    15    6    8 1   
    16    6   35 1   
    17    6   36 1   
    18    7   16 1   
    19    7   22 1   
    20    7   37 1   
    21    8    9 ar  
    22    8   14 ar  
    23    9   10 ar  
    24    9   38 1   
    25   10   11 1   
    26   10   12 ar  
    27   12   13 ar  
    28   12   39 1   
    29   13   14 ar  
    30   13   40 1   
    31   14   41 1   
    32   15   17 ar  
    33   15   24 ar  
    34   16   18 1   
    35   16   42 1   
    36   16   43 1   
    37   17   19 ar  
    38   17   26 1   
    39   18   20 1   
    40   18   44 1   
    41   19   21 ar  
    42   19   45 1   
    43   20   22 1   
    44   20   26 1   
    45   20   46 1   
    46   21   23 ar  
    47   21   27 1   
    48   22   47 1   
    49   22   48 1   
    50   23   24 ar  
    51   23   49 1   
    52   24   25 1   
    53   25   50 1   
    54   25   51 1   
    55   25   58 1   
    56   26   52 1   
    57   26   53 1   
    58   27   54 1   
    59   27   55 1   
    60   27   56 1   
@<TRIPOS>SUBSTRUCTURE
     1 JRR         1 TEMP              0 ****  ****    0 ROOT
