@<TRIPOS>MOLECULE
JRR
   57    59     1     0     0
SMALL
bcc


@<TRIPOS>ATOM
      1 C1          0.0920   -0.9470    0.6410 c3        1 JRR      0.108400
      2 O1          1.4380   -1.2350    0.9620 os        1 JRR     -0.433600
      3 C2         -0.0010   -0.1670   -0.6810 c3        1 JRR      0.073800
      4 N2          0.9530   -0.6720   -1.7050 ny        1 JRR     -0.787000
      5 C3          0.4550   -0.4770   -3.0930 c3        1 JRR      0.111800
      6 C4          1.4180   -1.0290   -4.1450 c3        1 JRR     -0.050100
      7 N1'         2.8580   -1.3630    3.8430 n7        1 JRR     -0.788200
      8 C11         0.7950   -0.9040   -5.4920 ca        1 JRR     -0.090300
      9 C12        -0.1970   -1.8080   -5.8800 ca        1 JRR     -0.170000
     10 C13        -0.7710   -1.7000   -7.1590 ca        1 JRR      0.141900
     11 F13        -1.7340   -2.5720   -7.5350 f         1 JRR     -0.124900
     12 C14        -0.3470   -0.6920   -8.0460 ca        1 JRR     -0.143000
     13 C15         0.6460    0.1950   -7.6430 ca        1 JRR     -0.096000
     14 C16         1.2160    0.0960   -6.3730 ca        1 JRR     -0.130000
     15 N1A         3.4590    0.6600   -1.2990 nb        1 JRR     -0.823000
     16 C2'         1.7630   -0.5800    3.2890 c3        1 JRR      0.128800
     17 C2A         4.4580    0.0650   -0.6030 ca        1 JRR      0.451600
     18 C3'         2.0740   -0.2640    1.8040 c3        1 JRR      0.107100
     19 C3A         5.8090    0.4180   -0.7590 ca        1 JRR     -0.267300
     20 C4'         3.6030   -0.4330    1.6940 c3        1 JRR     -0.079700
     21 C4A         6.1550    1.4260   -1.6720 ca        1 JRR      0.025700
     22 C5'         3.9850   -1.3050    2.9160 c3        1 JRR      0.150800
     23 C5A         5.1400    2.0590   -2.3870 ca        1 JRR     -0.285300
     24 C6A         3.7890    1.6560   -2.1790 ca        1 JRR      0.625200
     25 N6A         2.7620    2.2370   -2.9540 nv        1 JRR     -0.929500
     26 C7A         4.1150   -1.0150    0.3920 c3        1 JRR     -0.127700
     27 C8A         7.5740    1.8020   -1.8640 c3        1 JRR     -0.076800
     28 H1         -0.4250   -0.3550    1.4420 h1        1 JRR      0.086200
     29 H1A        -0.4000   -1.9540    0.5380 h1        1 JRR      0.086200
     30 H2          0.2350    0.9200   -0.5060 hx        1 JRR      0.097200
     31 H2A        -1.0550   -0.2490   -1.0710 hx        1 JRR      0.097200
     32 HN2         1.8830   -0.1770   -1.5720 hn        1 JRR      0.476800
     33 H3          0.3100    0.6280   -3.2550 hx        1 JRR      0.096700
     34 H3A        -0.5450   -0.9910   -3.1910 hx        1 JRR      0.096700
     35 H4          1.6450   -2.1100   -3.9380 hc        1 JRR      0.075700
     36 H4A         2.3870   -0.4610   -4.1100 hc        1 JRR      0.075700
     37 HN1'        2.5760   -2.3130    3.9970 hn        1 JRR      0.366800
     38 H12        -0.5270   -2.6110   -5.2060 ha        1 JRR      0.144000
     39 H14        -0.8000   -0.6210   -9.0470 ha        1 JRR      0.166000
     40 H15         0.9860    0.9820   -8.3350 ha        1 JRR      0.153000
     41 H16         2.0060    0.8010   -6.0720 ha        1 JRR      0.142000
     42 H2'         0.7770   -1.1080    3.3820 h1        1 JRR      0.063700
     43 H2'A        1.7080    0.3840    3.8650 h1        1 JRR      0.063700
     44 H3'         1.7460    0.7660    1.5140 h1        1 JRR      0.054700
     45 H3AA        6.5890   -0.0870   -0.1710 ha        1 JRR      0.163000
     46 H4'         4.0520    0.5890    1.8410 hc        1 JRR      0.077700
     47 H5'         4.8480   -0.8330    3.4610 h1        1 JRR      0.058200
     48 H5'A        4.3040   -2.3310    2.5860 h1        1 JRR      0.058200
     49 H5A         5.3810    2.8570   -3.1040 ha        1 JRR      0.160000
     50 HN6A        1.8980    2.3710   -2.4730 hn        1 JRR      0.398800
     51 HN6B        3.0610    3.0630   -3.4300 hn        1 JRR      0.398800
     52 H7A         5.0510   -1.6060    0.5950 hc        1 JRR      0.069700
     53 H7AA        3.3680   -1.7300   -0.0440 hc        1 JRR      0.069700
     54 H8A         8.0700    1.9690   -0.8750 hc        1 JRR      0.066700
     55 H8AA        7.6710    2.7350   -2.4720 hc        1 JRR      0.066700
     56 H8AB        8.1170    0.9770   -2.3920 hc        1 JRR      0.066700
     57 H22         1.1220   -1.6700   -1.5380 hn        1 JRR      0.476800
@<TRIPOS>BOND
     1    1    2 1   
     2    1    3 1   
     3    1   28 1   
     4    1   29 1   
     5    2   18 1   
     6    3    4 1   
     7    3   30 1   
     8    3   31 1   
     9    4    5 1   
    10    4   32 1   
    11    4   57 1   
    12    5    6 1   
    13    5   33 1   
    14    5   34 1   
    15    6    8 1   
    16    6   35 1   
    17    6   36 1   
    18    7   16 1   
    19    7   22 1   
    20    7   37 1   
    21    8    9 ar  
    22    8   14 ar  
    23    9   10 ar  
    24    9   38 1   
    25   10   11 1   
    26   10   12 ar  
    27   12   13 ar  
    28   12   39 1   
    29   13   14 ar  
    30   13   40 1   
    31   14   41 1   
    32   15   17 ar  
    33   15   24 ar  
    34   16   18 1   
    35   16   42 1   
    36   16   43 1   
    37   17   19 ar  
    38   17   26 1   
    39   18   20 1   
    40   18   44 1   
    41   19   21 ar  
    42   19   45 1   
    43   20   22 1   
    44   20   26 1   
    45   20   46 1   
    46   21   23 ar  
    47   21   27 1   
    48   22   47 1   
    49   22   48 1   
    50   23   24 ar  
    51   23   49 1   
    52   24   25 1   
    53   25   50 1   
    54   25   51 1   
    55   26   52 1   
    56   26   53 1   
    57   27   54 1   
    58   27   55 1   
    59   27   56 1   
@<TRIPOS>SUBSTRUCTURE
     1 JRR         1 TEMP              0 ****  ****    0 ROOT
