@<TRIPOS>MOLECULE
JRR
   57    59     1     0     0
SMALL
bcc


@<TRIPOS>ATOM
      1 C1          0.1130   -1.0390    0.6310 c3        1 JRR      0.108400
      2 O1          1.4620   -1.3440    0.9250 os        1 JRR     -0.433600
      3 C2          0.0080   -0.2050   -0.6560 c3        1 JRR      0.073800
      4 N2          0.9500   -0.6680   -1.7100 n4        1 JRR     -0.787000
      5 C3          0.4390   -0.4120   -3.0830 c3        1 JRR      0.111800
      6 C4          1.3900   -0.9210   -4.1680 c3        1 JRR     -0.050100
      7 N1'         2.9120   -1.5950    3.7820 n3        1 JRR     -0.788200
      8 C11         0.7550   -0.7360   -5.5020 ca        1 JRR     -0.090300
      9 C12        -0.2440   -1.6200   -5.9200 ca        1 JRR     -0.170000
     10 C13        -0.8290   -1.4550   -7.1880 ca        1 JRR      0.141900
     11 F13        -1.7980   -2.3070   -7.5930 f         1 JRR     -0.124900
     12 C14        -0.4110   -0.4090   -8.0340 ca        1 JRR     -0.143000
     13 C15         0.5870    0.4580   -7.6010 ca        1 JRR     -0.096000
     14 C16         1.1690    0.3010   -6.3430 ca        1 JRR     -0.130000
     15 N1A         3.4640    0.6400   -1.2750 nb        1 JRR     -0.823000
     16 C2'         1.8130   -0.7870    3.2740 c3        1 JRR      0.128800
     17 C2A         4.4700    0.0120   -0.6160 ca        1 JRR      0.451600
     18 C3'         2.1100   -0.4100    1.8000 c3        1 JRR      0.107100
     19 C3A         5.8200    0.3670   -0.7740 ca        1 JRR     -0.267300
     20 C4'         3.6370   -0.5790    1.6660 c3        1 JRR     -0.079700
     21 C4A         6.1590    1.4100   -1.6490 ca        1 JRR      0.025700
     22 C5'         4.0290   -1.5020    2.8480 c3        1 JRR      0.150800
     23 C5A         5.1380    2.0770   -2.3240 ca        1 JRR     -0.285300
     24 C6A         3.7880    1.6700   -2.1160 ca        1 JRR      0.625200
     25 N6A         2.7540    2.2880   -2.8530 nh        1 JRR     -0.929500
     26 C7A         4.1340   -1.1070    0.3360 c3        1 JRR     -0.127700
     27 C8A         7.5770    1.7910   -1.8380 c3        1 JRR     -0.076800
     28 H1         -0.3940   -0.4800    1.4610 h1        1 JRR      0.086200
     29 H1A        -0.3820   -2.0400    0.4910 h1        1 JRR      0.086200
     30 H2          0.2480    0.8740   -0.4380 hx        1 JRR      0.097200
     31 H2A        -1.0500   -0.2690   -1.0380 hx        1 JRR      0.097200
     32 HN2         1.1180   -1.6720   -1.5880 hn        1 JRR      0.476800
     33 H3          0.2960    0.7000   -3.1970 hx        1 JRR      0.096700
     34 H3A        -0.5630   -0.9190   -3.1930 hx        1 JRR      0.096700
     35 H4          1.6150   -2.0110   -4.0100 hc        1 JRR      0.075700
     36 H4A         2.3610   -0.3580   -4.1190 hc        1 JRR      0.075700
     37 HN1'        2.6280   -2.5500    3.9000 hn        1 JRR      0.366800
     38 H12        -0.5690   -2.4520   -5.2790 ha        1 JRR      0.144000
     39 H14        -0.8740   -0.2930   -9.0260 ha        1 JRR      0.166000
     40 H15         0.9220    1.2730   -8.2620 ha        1 JRR      0.153000
     41 H16         1.9630    0.9910   -6.0180 ha        1 JRR      0.142000
     42 H2'         0.8270   -1.3160    3.3550 h1        1 JRR      0.063700
     43 H2'A        1.7680    0.1530    3.8900 h1        1 JRR      0.063700
     44 H3'         1.7820    0.6320    1.5560 h1        1 JRR      0.054700
     45 H3AA        6.6040   -0.1660   -0.2180 ha        1 JRR      0.163000
     46 H4'         4.0900    0.4350    1.8510 hc        1 JRR      0.077700
     47 H5'         4.8990   -1.0550    3.4020 h1        1 JRR      0.058200
     48 H5'A        4.3410   -2.5140    2.4710 h1        1 JRR      0.058200
     49 H5A         5.3740    2.9030   -3.0100 ha        1 JRR      0.160000
     50 HN6A        3.0510    3.1320   -3.2970 hn        1 JRR      0.398800
     51 HN6B        1.8970    2.4040   -2.3560 hn        1 JRR      0.398800
     52 H7A         3.3800   -1.8010   -0.1210 hc        1 JRR      0.069200
     53 H7AA        5.0700   -1.7090    0.5050 hc        1 JRR      0.069200
     54 H8A         8.1420    0.9410   -2.3000 hc        1 JRR      0.067033
     55 H8AA        8.0490    2.0270   -0.8510 hc        1 JRR      0.067033
     56 H8AB        7.6770    2.6840   -2.5020 hc        1 JRR      0.067033
     57 H22         1.8830   -0.1820   -1.5660 hn        1 JRR      0.476800
@<TRIPOS>BOND
     1    1    2 1   
     2    1    3 1   
     3    1   28 1   
     4    1   29 1   
     5    2   18 1   
     6    3    4 1   
     7    3   30 1   
     8    3   31 1   
     9    4    5 1   
    10    4   32 1   
    11    4   57 1   
    12    5    6 1   
    13    5   33 1   
    14    5   34 1   
    15    6    8 1   
    16    6   35 1   
    17    6   36 1   
    18    7   16 1   
    19    7   22 1   
    20    7   37 1   
    21    8    9 ar  
    22    8   14 ar  
    23    9   10 ar  
    24    9   38 1   
    25   10   11 1   
    26   10   12 ar  
    27   12   13 ar  
    28   12   39 1   
    29   13   14 ar  
    30   13   40 1   
    31   14   41 1   
    32   15   17 ar  
    33   15   24 ar  
    34   16   18 1   
    35   16   42 1   
    36   16   43 1   
    37   17   19 ar  
    38   17   26 1   
    39   18   20 1   
    40   18   44 1   
    41   19   21 ar  
    42   19   45 1   
    43   20   22 1   
    44   20   26 1   
    45   20   46 1   
    46   21   23 ar  
    47   21   27 1   
    48   22   47 1   
    49   22   48 1   
    50   23   24 ar  
    51   23   49 1   
    52   24   25 1   
    53   25   50 1   
    54   25   51 1   
    55   26   52 1   
    56   26   53 1   
    57   27   54 1   
    58   27   55 1   
    59   27   56 1   
@<TRIPOS>SUBSTRUCTURE
     1 JRR         1 TEMP              0 ****  ****    0 ROOT
