@<TRIPOS>MOLECULE
JRS
   57    59     1     0     0
SMALL
bcc


@<TRIPOS>ATOM
      1 C1         -0.5740    0.1110   -0.2860 c3        1 JRS      0.111400
      2 O1          0.4370   -0.5090    0.4810 os        1 JRS     -0.435600
      3 C2          0.0320    1.0890   -1.3040 c3        1 JRS      0.067800
      4 N2          1.2000    0.5260   -2.0340 n4        1 JRS     -0.747000
      5 C3          0.8190   -0.5280   -3.0170 c3        1 JRS      0.099800
      6 C4          2.0260   -1.0920   -3.7670 c3        1 JRS     -0.051100
      7 N1'         1.9730   -1.1410    3.3950 n3        1 JRS     -0.786200
      8 C11         1.5670   -2.1570   -4.7020 ca        1 JRS     -0.092300
      9 C12         1.2230   -3.4130   -4.1970 ca        1 JRS     -0.168000
     10 C13         0.8060   -4.4250   -5.0810 ca        1 JRS      0.142900
     11 F13         0.4700   -5.6410   -4.5950 f         1 JRS     -0.123900
     12 C14         0.7400   -4.1760   -6.4660 ca        1 JRS     -0.142000
     13 C15         1.0910   -2.9190   -6.9490 ca        1 JRS     -0.093000
     14 C16         1.5020   -1.9110   -6.0760 ca        1 JRS     -0.132000
     15 N1A         3.1830    2.4180   -0.8140 nb        1 JRS     -0.793000
     16 C2'         0.6580   -0.8100    2.8670 c3        1 JRS      0.139800
     17 C2A         3.6230    2.3120    0.4620 ca        1 JRS      0.437600
     18 C3'         0.8190    0.1790    1.6810 c3        1 JRS      0.102100
     19 C3A         4.9680    2.4940    0.8290 ca        1 JRS     -0.257300
     20 C4'         2.3280    0.4990    1.6030 c3        1 JRS     -0.108700
     21 C4A         5.9120    2.7930   -0.1630 ca        1 JRS      0.013700
     22 C5'         2.9270   -0.1770    2.8630 c3        1 JRS      0.151800
     23 C5A         5.4790    2.9150   -1.4840 ca        1 JRS     -0.279300
     24 C6A         4.1000    2.7320   -1.7810 ca        1 JRS      0.592200
     25 N6A         3.6450    2.7960   -3.1270 nh        1 JRS     -0.932500
     26 C7A         2.6180    1.9880    1.5380 c3        1 JRS     -0.130700
     27 C8A         7.3350    2.9980    0.1900 c3        1 JRS     -0.074800
     28 H1         -1.0980   -0.7390   -0.8060 h1        1 JRS      0.086200
     29 H1A        -1.3120    0.6740    0.3440 h1        1 JRS      0.086200
     30 H2         -0.7560    1.3870   -2.0500 hx        1 JRS      0.109200
     31 H2A         0.3990    2.0100   -0.7610 hx        1 JRS      0.109200
     32 HN2         1.8440    0.1220   -1.3360 hn        1 JRS      0.469300
     33 H3          0.0900   -0.0770   -3.7490 hx        1 JRS      0.103700
     34 H3A         0.3010   -1.3580   -2.4550 hx        1 JRS      0.103700
     35 H4          2.5470   -0.2740   -4.3360 hc        1 JRS      0.074200
     36 H4A         2.7660   -1.5250   -3.0410 hc        1 JRS      0.074200
     37 HN1'        2.2320   -2.0770    3.1430 hn        1 JRS      0.364800
     38 H12         1.2850   -3.6290   -3.1200 ha        1 JRS      0.147000
     39 H14         0.4170   -4.9770   -7.1490 ha        1 JRS      0.167000
     40 H15         1.0480   -2.7210   -8.0320 ha        1 JRS      0.155000
     41 H16         1.7840   -0.9260   -6.4770 ha        1 JRS      0.139000
     42 H2'         0.0920   -1.7240    2.5430 h1        1 JRS      0.072700
     43 H2'A        0.0780   -0.3020    3.6860 h1        1 JRS      0.072700
     44 H3'         0.1940    1.0940    1.8370 h1        1 JRS      0.065700
     45 H3AA        5.2750    2.4060    1.8810 ha        1 JRS      0.161000
     46 H4'         2.7480   -0.0130    0.6950 hc        1 JRS      0.053700
     47 H5'         3.1080    0.5890    3.6670 h1        1 JRS      0.063700
     48 H5'A        3.9090   -0.6610    2.6180 h1        1 JRS      0.063700
     49 H5A         6.1990    3.1540   -2.2800 ha        1 JRS      0.157000
     50 HN6A        4.3850    3.0570   -3.7480 hn        1 JRS      0.392800
     51 HN6B        2.8560    3.4010   -3.2410 hn        1 JRS      0.392800
     52 H7A         3.0230    2.3530    2.5210 hc        1 JRS      0.068700
     53 H7AA        1.6710    2.5640    1.3510 hc        1 JRS      0.068700
     54 H8A         7.6380    2.3240    1.0290 hc        1 JRS      0.065367
     55 H8AA        7.4930    4.0580    0.5170 hc        1 JRS      0.065367
     56 H8AB        8.0010    2.7990   -0.6860 hc        1 JRS      0.065367
     57 H22         1.6930    1.2840   -2.5240 hn        1 JRS      0.469300
@<TRIPOS>BOND
     1    1    2 1   
     2    1    3 1   
     3    1   28 1   
     4    1   29 1   
     5    2   18 1   
     6    3    4 1   
     7    3   30 1   
     8    3   31 1   
     9    4    5 1   
    10    4   32 1   
    11    4   57 1   
    12    5    6 1   
    13    5   33 1   
    14    5   34 1   
    15    6    8 1   
    16    6   35 1   
    17    6   36 1   
    18    7   16 1   
    19    7   22 1   
    20    7   37 1   
    21    8    9 ar  
    22    8   14 ar  
    23    9   10 ar  
    24    9   38 1   
    25   10   11 1   
    26   10   12 ar  
    27   12   13 ar  
    28   12   39 1   
    29   13   14 ar  
    30   13   40 1   
    31   14   41 1   
    32   15   17 ar  
    33   15   24 ar  
    34   16   18 1   
    35   16   42 1   
    36   16   43 1   
    37   17   19 ar  
    38   17   26 1   
    39   18   20 1   
    40   18   44 1   
    41   19   21 ar  
    42   19   45 1   
    43   20   22 1   
    44   20   26 1   
    45   20   46 1   
    46   21   23 ar  
    47   21   27 1   
    48   22   47 1   
    49   22   48 1   
    50   23   24 ar  
    51   23   49 1   
    52   24   25 1   
    53   25   50 1   
    54   25   51 1   
    55   26   52 1   
    56   26   53 1   
    57   27   54 1   
    58   27   55 1   
    59   27   56 1   
@<TRIPOS>SUBSTRUCTURE
     1 JRS         1 TEMP              0 ****  ****    0 ROOT
