@<TRIPOS>MOLECULE
JRS
   58    60     1     0     0
SMALL
bcc


@<TRIPOS>ATOM
      1 C1         -0.0010   -0.0700   -0.0020 c3        1 JRS      0.101400
      2 O1          1.4200    0.0010   -0.0800 os        1 JRS     -0.458600
      3 C2         -0.5250   -0.1330   -1.4370 c3        1 JRS      0.100800
      4 N2         -0.0360   -1.3330   -2.1740 n4        1 JRS     -0.760000
      5 C3         -0.5700   -1.3910   -3.5700 c3        1 JRS      0.100800
      6 C4         -0.1080   -2.6390   -4.3220 c3        1 JRS     -0.048100
      7 N1'         3.7150   -1.6180    1.7130 n3        1 JRS     -0.784200
      8 C11        -0.7550   -2.6590   -5.6640 ca        1 JRS     -0.105300
      9 C12        -2.1020   -3.0160   -5.7710 ca        1 JRS     -0.170000
     10 C13        -2.7080   -3.0580   -7.0400 ca        1 JRS      0.149900
     11 F13        -4.0110   -3.4000   -7.1460 f         1 JRS     -0.115900
     12 C14        -1.9610   -2.7480   -8.1950 ca        1 JRS     -0.132000
     13 C15        -0.6210   -2.4000   -8.0660 ca        1 JRS     -0.090000
     14 C16        -0.0150   -2.3510   -6.8090 ca        1 JRS     -0.129000
     15 N1A         5.7650    2.6200    2.7600 nb        1 JRS     -0.662000
     16 C2'         2.2960   -1.3120    1.7980 c3        1 JRS      0.127800
     17 C2A         4.9370    2.6250    1.6950 ca        1 JRS      0.460600
     18 C3'         2.0420    0.1000    1.2110 c3        1 JRS      0.115100
     19 C3A         5.2880    3.2460    0.4690 ca        1 JRS     -0.205300
     20 C4'         3.4410    0.7230    1.0040 c3        1 JRS     -0.091700
     21 C4A         6.5240    3.8790    0.3370 ca        1 JRS      0.008700
     22 C5'         4.4340   -0.3810    1.4420 c3        1 JRS      0.146800
     23 C5A         7.4010    3.8860    1.4410 ca        1 JRS     -0.207300
     24 C6A         6.9670    3.2470    2.6140 ca        1 JRS      0.455200
     25 N6A         7.8490    3.2420    3.8050 n4        1 JRS     -0.819300
     26 C7A         3.5790    1.9880    1.8310 c3        1 JRS     -0.135700
     27 C8A         6.9230    4.5500   -0.9190 c3        1 JRS     -0.084800
     28 H1         -0.4140    0.8570    0.4810 h1        1 JRS      0.077200
     29 H1A        -0.3090   -0.9700    0.5960 h1        1 JRS      0.077200
     30 H2         -1.6530   -0.1580   -1.4150 hx        1 JRS      0.118700
     31 H2A        -0.1860    0.7810   -2.0060 hx        1 JRS      0.118700
     32 HN2         0.9920   -1.3080   -2.1950 hn        1 JRS      0.454300
     33 H3         -1.6970   -1.3770   -3.5130 hx        1 JRS      0.112700
     34 H3A        -0.2250   -0.4640   -4.1130 hx        1 JRS      0.112700
     35 H4         -0.3970   -3.5670   -3.7570 hc        1 JRS      0.072200
     36 H4A         1.0100   -2.6360   -4.4310 hc        1 JRS      0.072200
     37 HN1'        3.8950   -2.3030    1.0020 hn        1 JRS      0.365800
     38 H12        -2.6920   -3.2830   -4.8840 ha        1 JRS      0.144000
     39 H14        -2.4450   -2.7910   -9.1840 ha        1 JRS      0.175000
     40 H15        -0.0310   -2.1650   -8.9670 ha        1 JRS      0.160000
     41 H16         1.0490   -2.0840   -6.7290 ha        1 JRS      0.138000
     42 H2'         2.0140   -1.3120    2.8880 h1        1 JRS      0.065700
     43 H2'A        1.6690   -2.0790    1.2730 h1        1 JRS      0.065700
     44 H3'         1.4030    0.7180    1.8940 h1        1 JRS      0.072700
     45 H3AA        4.5750    3.2280   -0.3710 ha        1 JRS      0.174000
     46 H4'         3.5890    0.9620   -0.0830 hc        1 JRS      0.072700
     47 H5'         4.9430   -0.0800    2.4000 h1        1 JRS      0.061200
     48 H5'A        5.2250   -0.5280    0.6590 h1        1 JRS      0.061200
     49 H5A         8.3800    4.3840    1.3570 ha        1 JRS      0.176000
     50 HN6A        7.4290    3.8180    4.5470 hn        1 JRS      0.475133
     51 HN6B        7.9640    2.2820    4.1580 hn        1 JRS      0.475133
     52 H7A         2.8200    2.7440    1.4870 hc        1 JRS      0.084200
     53 H7AA        3.3570    1.7530    2.9090 hc        1 JRS      0.084200
     54 H8A         7.9700    4.2730   -1.2020 hc        1 JRS      0.079367
     55 H8AA        6.2430    4.2710   -1.7620 hc        1 JRS      0.079367
     56 H8AB        6.8800    5.6630   -0.7880 hc        1 JRS      0.079367
     57 H22        -0.3150   -2.1830   -1.6700 hn        1 JRS      0.454300
     58 H6A3        8.7650    3.6250    3.5490 hn        1 JRS      0.475133
@<TRIPOS>BOND
     1    1    2 1   
     2    1    3 1   
     3    1   28 1   
     4    1   29 1   
     5    2   18 1   
     6    3    4 1   
     7    3   30 1   
     8    3   31 1   
     9    4    5 1   
    10    4   32 1   
    11    4   57 1   
    12    5    6 1   
    13    5   33 1   
    14    5   34 1   
    15    6    8 1   
    16    6   35 1   
    17    6   36 1   
    18    7   16 1   
    19    7   22 1   
    20    7   37 1   
    21    8    9 ar  
    22    8   14 ar  
    23    9   10 ar  
    24    9   38 1   
    25   10   11 1   
    26   10   12 ar  
    27   12   13 ar  
    28   12   39 1   
    29   13   14 ar  
    30   13   40 1   
    31   14   41 1   
    32   15   17 ar  
    33   15   24 ar  
    34   16   18 1   
    35   16   42 1   
    36   16   43 1   
    37   17   19 ar  
    38   17   26 1   
    39   18   20 1   
    40   18   44 1   
    41   19   21 ar  
    42   19   45 1   
    43   20   22 1   
    44   20   26 1   
    45   20   46 1   
    46   21   23 ar  
    47   21   27 1   
    48   22   47 1   
    49   22   48 1   
    50   23   24 ar  
    51   23   49 1   
    52   24   25 1   
    53   25   50 1   
    54   25   51 1   
    55   25   58 1   
    56   26   52 1   
    57   26   53 1   
    58   27   54 1   
    59   27   55 1   
    60   27   56 1   
@<TRIPOS>SUBSTRUCTURE
     1 JRS         1 TEMP              0 ****  ****    0 ROOT
