@<TRIPOS>MOLECULE
JRS
   56    58     1     0     0
SMALL
bcc


@<TRIPOS>ATOM
      1 C1          0.3120   -2.1850   -1.8920 c3        1 JRS      0.120400
      2 O1         -0.5670   -1.4320   -1.0570 os        1 JRS     -0.424600
      3 C2          1.6340   -1.4120   -1.9460 c3        1 JRS      0.164800
      4 N2          2.3550   -1.4380   -0.6900 n3        1 JRS     -0.825200
      5 C3          3.4440   -0.4830   -0.6460 c3        1 JRS      0.166800
      6 C4          4.1170   -0.4180    0.7290 c3        1 JRS     -0.044100
      7 N1'        -2.4390   -3.0160    1.4580 n3        1 JRS     -0.788200
      8 C11         5.2830    0.5070    0.6940 ca        1 JRS     -0.052300
      9 C12         6.4630    0.1110    0.0580 ca        1 JRS     -0.165000
     10 C13         7.5670    0.9810    0.0350 ca        1 JRS      0.125900
     11 F13         8.7110    0.5990   -0.5820 f         1 JRS     -0.142900
     12 C14         7.4920    2.2450    0.6480 ca        1 JRS     -0.168000
     13 C15         6.3100    2.6230    1.2780 ca        1 JRS     -0.104000
     14 C16         5.2110    1.7640    1.3030 ca        1 JRS     -0.143000
     15 N1A        -5.9600   -0.0270    0.1990 nb        1 JRS     -0.731000
     16 C2'        -1.4990   -3.2100    0.3610 c3        1 JRS      0.114800
     17 C2A        -4.8060    0.2130   -0.4600 ca        1 JRS      0.450600
     18 C3'        -1.7600   -2.1380   -0.7290 c3        1 JRS      0.115100
     19 C3A        -4.3330    1.5090   -0.7490 ca        1 JRS     -0.292300
     20 C4'        -2.7240   -1.1190   -0.0860 c3        1 JRS     -0.088700
     21 C4A        -5.0890    2.6120   -0.3390 ca        1 JRS     -0.004300
     22 C5'        -3.0080   -1.6770    1.3270 c3        1 JRS      0.142800
     23 C5A        -6.2880    2.3950    0.3380 ca        1 JRS     -0.301300
     24 C6A        -6.7110    1.0540    0.5840 ca        1 JRS      0.632200
     25 N6A        -7.9670    0.8330    1.1720 nh        1 JRS     -0.924500
     26 C7A        -3.9810   -0.9600   -0.9200 c3        1 JRS     -0.128700
     27 C8A        -4.6280    3.9890   -0.6330 c3        1 JRS     -0.061800
     28 H1          0.4530   -3.2170   -1.4780 h1        1 JRS      0.038700
     29 H1A        -0.1250   -2.2520   -2.9230 h1        1 JRS      0.038700
     30 H2          2.2860   -1.8980   -2.7260 h1        1 JRS      0.040200
     31 H2A         1.4080   -0.3590   -2.2920 h1        1 JRS      0.040200
     32 HN2         1.7210   -1.2910    0.0750 hn        1 JRS      0.368800
     33 H3          4.2090   -0.8060   -1.4090 h1        1 JRS      0.033200
     34 H3A         3.1120    0.5600   -0.9280 h1        1 JRS      0.033200
     35 H4          3.3760   -0.0740    1.4990 hc        1 JRS      0.059200
     36 H4A         4.4630   -1.4430    1.0310 hc        1 JRS      0.059200
     37 HN1'       -3.1670   -3.7050    1.4140 hn        1 JRS      0.347800
     38 H12         6.5350   -0.8760   -0.4230 ha        1 JRS      0.151000
     39 H14         8.3620    2.9160    0.6250 ha        1 JRS      0.148000
     40 H15         6.2440    3.6100    1.7620 ha        1 JRS      0.137000
     41 H16         4.2840    2.0770    1.8060 ha        1 JRS      0.137000
     42 H2'        -0.4590   -3.0730    0.7690 h1        1 JRS      0.057200
     43 H2'A       -1.5750   -4.2420   -0.0710 h1        1 JRS      0.057200
     44 H3'        -2.1940   -2.6010   -1.6550 h1        1 JRS      0.044700
     45 H3AA       -3.3850    1.6430   -1.2840 ha        1 JRS      0.145000
     46 H4'        -2.2070   -0.1250   -0.0010 hc        1 JRS      0.083700
     47 H5'        -4.1080   -1.6770    1.5460 h1        1 JRS      0.059700
     48 H5'A       -2.5000   -1.0250    2.0910 h1        1 JRS      0.059700
     49 H5A        -6.9030    3.2440    0.6660 ha        1 JRS      0.142000
     50 HN6A       -8.1400   -0.0940    1.4930 hn        1 JRS      0.401300
     51 HN6B       -8.2320    1.5390    1.8220 hn        1 JRS      0.401300
     52 H7A        -4.5770   -1.9100   -0.8920 hc        1 JRS      0.060700
     53 H7AA       -3.6930   -0.7730   -1.9900 hc        1 JRS      0.060700
     54 H8A        -4.9570    4.2850   -1.6610 hc        1 JRS      0.049700
     55 H8AA       -5.0550    4.7210    0.0960 hc        1 JRS      0.049700
     56 H8AB       -3.5130    4.0520   -0.5900 hc        1 JRS      0.049700
@<TRIPOS>BOND
     1    1    2 1   
     2    1    3 1   
     3    1   28 1   
     4    1   29 1   
     5    2   18 1   
     6    3    4 1   
     7    3   30 1   
     8    3   31 1   
     9    4    5 1   
    10    4   32 1   
    11    5    6 1   
    12    5   33 1   
    13    5   34 1   
    14    6    8 1   
    15    6   35 1   
    16    6   36 1   
    17    7   16 1   
    18    7   22 1   
    19    7   37 1   
    20    8    9 ar  
    21    8   14 ar  
    22    9   10 ar  
    23    9   38 1   
    24   10   11 1   
    25   10   12 ar  
    26   12   13 ar  
    27   12   39 1   
    28   13   14 ar  
    29   13   40 1   
    30   14   41 1   
    31   15   17 ar  
    32   15   24 ar  
    33   16   18 1   
    34   16   42 1   
    35   16   43 1   
    36   17   19 ar  
    37   17   26 1   
    38   18   20 1   
    39   18   44 1   
    40   19   21 ar  
    41   19   45 1   
    42   20   22 1   
    43   20   26 1   
    44   20   46 1   
    45   21   23 ar  
    46   21   27 1   
    47   22   47 1   
    48   22   48 1   
    49   23   24 ar  
    50   23   49 1   
    51   24   25 1   
    52   25   50 1   
    53   25   51 1   
    54   26   52 1   
    55   26   53 1   
    56   27   54 1   
    57   27   55 1   
    58   27   56 1   
@<TRIPOS>SUBSTRUCTURE
     1 JRS         1 TEMP              0 ****  ****    0 ROOT
