@<TRIPOS>MOLECULE
JRS
   57    59     1     0     0
SMALL
bcc


@<TRIPOS>ATOM
      1 C1         -0.5440   -0.0120   -0.2160 c3        1 JRS      0.111400
      2 O1          0.5070   -0.6050    0.5170 os        1 JRS     -0.435600
      3 C2         -0.0010    1.0020   -1.2330 c3        1 JRS      0.067800
      4 N2          1.1680    0.4930   -2.0010 ny        1 JRS     -0.747000
      5 C3          0.8010   -0.5600   -2.9900 c3        1 JRS      0.099800
      6 C4          2.0090   -1.0680   -3.7780 c3        1 JRS     -0.051100
      7 N1'         2.1430   -1.2160    3.3810 n7        1 JRS     -0.786200
      8 C11         1.5650   -2.1360   -4.7170 ca        1 JRS     -0.092300
      9 C12         1.2810   -3.4120   -4.2240 ca        1 JRS     -0.168000
     10 C13         0.8800   -4.4250   -5.1130 ca        1 JRS      0.142900
     11 F13         0.6020   -5.6600   -4.6380 f         1 JRS     -0.123900
     12 C14         0.7670   -4.1580   -6.4920 ca        1 JRS     -0.142000
     13 C15         1.0590   -2.8820   -6.9630 ca        1 JRS     -0.093000
     14 C16         1.4540   -1.8720   -6.0850 ca        1 JRS     -0.132000
     15 N1A         3.1100    2.4420   -0.8050 nb        1 JRS     -0.793000
     16 C2'         0.8030   -0.9300    2.8920 c3        1 JRS      0.139800
     17 C2A         3.5840    2.3370    0.4590 ca        1 JRS      0.437600
     18 C3'         0.8940    0.0810    1.7170 c3        1 JRS      0.102100
     19 C3A         4.9290    2.5670    0.7980 ca        1 JRS     -0.257300
     20 C4'         2.3870    0.4610    1.6050 c3        1 JRS     -0.108700
     21 C4A         5.8370    2.9150   -0.2110 ca        1 JRS      0.013700
     22 C5'         3.0440   -0.2080    2.8390 c3        1 JRS      0.151800
     23 C5A         5.3680    3.0370   -1.5200 ca        1 JRS     -0.279300
     24 C6A         3.9910    2.8030   -1.7880 ca        1 JRS      0.592200
     25 N6A         3.5030    2.8660   -3.1230 nv        1 JRS     -0.932500
     26 C7A         2.6170    1.9600    1.5530 c3        1 JRS     -0.130700
     27 C8A         7.2590    3.1710    0.1110 c3        1 JRS     -0.074800
     28 H1         -1.2870    0.5140    0.4400 h1        1 JRS      0.086200
     29 H1A        -1.0500   -0.8730   -0.7350 h1        1 JRS      0.086200
     30 H2         -0.8180    1.2810   -1.9550 hx        1 JRS      0.109200
     31 H2A         0.3460    1.9290   -0.6860 hx        1 JRS      0.109200
     32 HN2         1.6200    1.2750   -2.4910 hn        1 JRS      0.469300
     33 H3          0.0380   -0.1270   -3.6970 hx        1 JRS      0.103700
     34 H3A         0.3290   -1.4170   -2.4280 hx        1 JRS      0.103700
     35 H4          2.7820   -1.4850   -3.0770 hc        1 JRS      0.074200
     36 H4A         2.4850   -0.2240   -4.3470 hc        1 JRS      0.074200
     37 HN1'        2.4320   -2.1370    3.1100 hn        1 JRS      0.364800
     38 H12         1.3810   -3.6410   -3.1530 ha        1 JRS      0.147000
     39 H14         0.4560   -4.9600   -7.1780 ha        1 JRS      0.167000
     40 H15         0.9790   -2.6690   -8.0410 ha        1 JRS      0.155000
     41 H16         1.6890   -0.8710   -6.4780 ha        1 JRS      0.139000
     42 H2'         0.2650   -1.8600    2.5680 h1        1 JRS      0.072700
     43 H2'A        0.2250   -0.4570    3.7330 h1        1 JRS      0.072700
     44 H3'         0.2390    0.9690    1.9030 h1        1 JRS      0.065700
     45 H3AA        5.2630    2.4780    1.8420 ha        1 JRS      0.161000
     46 H4'         2.8030   -0.0220    0.6790 hc        1 JRS      0.053700
     47 H5'         4.0380   -0.6500    2.5620 h1        1 JRS      0.063700
     48 H5'A        3.2160    0.5540    3.6490 h1        1 JRS      0.063700
     49 H5A         6.0600    3.3130   -2.3300 ha        1 JRS      0.157000
     50 HN6A        2.6890    3.4410   -3.2110 hn        1 JRS      0.392800
     51 HN6B        4.2180    3.1630   -3.7570 hn        1 JRS      0.392800
     52 H7A         3.0300    2.3290    2.5310 hc        1 JRS      0.069200
     53 H7AA        1.6450    2.5010    1.3950 hc        1 JRS      0.069200
     54 H8A         7.9120    3.0030   -0.7800 hc        1 JRS      0.065367
     55 H8AA        7.3840    4.2330    0.4440 hc        1 JRS      0.065367
     56 H8AB        7.6060    2.5030    0.9380 hc        1 JRS      0.065367
     57 H22         1.8440    0.1030   -1.3250 hn        1 JRS      0.469300
@<TRIPOS>BOND
     1    1    2 1   
     2    1    3 1   
     3    1   28 1   
     4    1   29 1   
     5    2   18 1   
     6    3    4 1   
     7    3   30 1   
     8    3   31 1   
     9    4    5 1   
    10    4   32 1   
    11    4   57 1   
    12    5    6 1   
    13    5   33 1   
    14    5   34 1   
    15    6    8 1   
    16    6   35 1   
    17    6   36 1   
    18    7   16 1   
    19    7   22 1   
    20    7   37 1   
    21    8    9 ar  
    22    8   14 ar  
    23    9   10 ar  
    24    9   38 1   
    25   10   11 1   
    26   10   12 ar  
    27   12   13 ar  
    28   12   39 1   
    29   13   14 ar  
    30   13   40 1   
    31   14   41 1   
    32   15   17 ar  
    33   15   24 ar  
    34   16   18 1   
    35   16   42 1   
    36   16   43 1   
    37   17   19 ar  
    38   17   26 1   
    39   18   20 1   
    40   18   44 1   
    41   19   21 ar  
    42   19   45 1   
    43   20   22 1   
    44   20   26 1   
    45   20   46 1   
    46   21   23 ar  
    47   21   27 1   
    48   22   47 1   
    49   22   48 1   
    50   23   24 ar  
    51   23   49 1   
    52   24   25 1   
    53   25   50 1   
    54   25   51 1   
    55   26   52 1   
    56   26   53 1   
    57   27   54 1   
    58   27   55 1   
    59   27   56 1   
@<TRIPOS>SUBSTRUCTURE
     1 JRS         1 TEMP              0 ****  ****    0 ROOT
