@<TRIPOS>MOLECULE
JRZ
   47    47     1     0     0
SMALL
bcc


@<TRIPOS>ATOM
      1 C1         -1.6500   -0.5210   -5.1880 c3        1 JRZ     -0.122000
      2 N1          2.5290    0.2150    3.0890 n3        1 JRZ     -0.303000
      3 O1         -0.0280    0.2650   -0.8690 os        1 JRZ     -0.218000
      4 C2         -0.2120   -0.3270   -5.1560 c3        1 JRZ     -0.159000
      5 O2          1.7000    1.9950    0.7730 oh        1 JRZ     -0.331000
      6 C3          0.1800   -0.0570   -3.7530 c3        1 JRZ     -0.108000
      7 C4         -1.0860   -0.0950   -2.8990 c2        1 JRZ     -0.104000
      8 C5         -2.1890   -0.3290   -3.7610 c2        1 JRZ     -0.050000
      9 C6         -3.4940   -0.3770   -3.2380 c2        1 JRZ     -0.090000
     10 C7         -4.6750   -0.7150   -4.1610 c3        1 JRZ     -0.170000
     11 C8         -3.7090   -0.1920   -1.8560 c1        1 JRZ     -0.097000
     12 C9         -2.6040    0.0430   -0.9910 c1        1 JRZ     -0.197000
     13 C10        -1.2990    0.0900   -1.5120 c2        1 JRZ      0.089000
     14 C11        -0.1160    0.4650    0.5570 c3        1 JRZ     -0.026000
     15 C12         1.2630    0.6970    1.1180 c3        1 JRZ      0.033000
     16 C13         1.2220    0.5640    2.6040 c3        1 JRZ     -0.059000
     17 C14         0.7800    1.8990    3.2290 c3        1 JRZ     -0.207000
     18 C15         2.4090   -0.4370    4.3870 c3        1 JRZ     -0.028000
     19 C16         2.7270   -1.9200    4.2450 c3        1 JRZ     -0.229000
     20 C17         3.3820    0.1960    5.3600 c3        1 JRZ     -0.229000
     21 H1         -2.0590    0.1370   -5.7880 hc        1 JRZ      0.093500
     22 H1A        -1.8580   -1.4410   -5.5050 hc        1 JRZ      0.093500
     23 HN1         2.9270   -0.3450    2.5060 hn        1 JRZ      0.153000
     24 H2          0.0290    0.4240   -5.7140 hc        1 JRZ      0.083000
     25 H2A         0.2260   -1.1160   -5.4700 hc        1 JRZ      0.083000
     26 HO2         2.4060    1.9360    0.2660 ho        1 JRZ      0.221000
     27 H3          0.7710   -0.7320   -3.4610 hc        1 JRZ      0.095000
     28 H3A         0.5670    0.8050   -3.6990 hc        1 JRZ      0.095000
     29 H7         -4.5150   -1.5780   -4.5890 hc        1 JRZ      0.081000
     30 H7A        -5.5240   -0.7600   -3.6190 hc        1 JRZ      0.081000
     31 H7B        -4.7630   -0.0200   -4.8500 hc        1 JRZ      0.081000
     32 H8         -4.5990   -0.2240   -1.5010 ha        1 JRZ      0.131000
     33 H9         -2.7540    0.1740   -0.0190 ha        1 JRZ      0.138000
     34 H11        -0.6710    1.2300    0.7400 h1        1 JRZ      0.095000
     35 H11A       -0.5010   -0.3160    0.9670 h1        1 JRZ      0.095000
     36 H12         1.8790    0.0370    0.7500 h1        1 JRZ      0.093000
     37 H13         0.5850   -0.1370    2.8500 h1        1 JRZ      0.079000
     38 H14         1.4070    2.5790    3.0010 hc        1 JRZ      0.081667
     39 H14A       -0.1130    2.1460    2.8840 hc        1 JRZ      0.081667
     40 H14B        0.7380    1.8040    4.2200 hc        1 JRZ      0.081667
     41 H15         1.5070   -0.3320    4.7190 h1        1 JRZ      0.098000
     42 H16         2.1310   -2.3190    3.5680 hc        1 JRZ      0.078167
     43 H16A        2.5870   -2.3760    5.1220 hc        1 JRZ      0.078167
     44 H16B        3.6670   -2.0300    3.9630 hc        1 JRZ      0.078167
     45 H17         4.3070    0.1830    4.9690 hc        1 JRZ      0.078167
     46 H17A        3.3760   -0.2970    6.1820 hc        1 JRZ      0.078167
     47 H17B        3.1160    1.1140    5.5320 hc        1 JRZ      0.078167
@<TRIPOS>BOND
     1    1    4 1   
     2    1    8 1   
     3    1   21 1   
     4    1   22 1   
     5    2   16 1   
     6    2   18 1   
     7    2   23 1   
     8    3   13 1   
     9    3   14 1   
    10    4    6 1   
    11    4   24 1   
    12    4   25 1   
    13    5   15 1   
    14    5   26 1   
    15    6    7 1   
    16    6   27 1   
    17    6   28 1   
    18    7    8 1   
    19    7   13 1   
    20    8    9 1   
    21    9   10 1   
    22    9   11 1   
    23   10   29 1   
    24   10   30 1   
    25   10   31 1   
    26   11   32 1   
    27   12   13 1   
    28   12   33 1   
    29   14   15 1   
    30   14   34 1   
    31   14   35 1   
    32   15   16 1   
    33   15   36 1   
    34   16   17 1   
    35   16   37 1   
    36   17   38 1   
    37   17   39 1   
    38   17   40 1   
    39   18   19 1   
    40   18   20 1   
    41   18   41 1   
    42   19   42 1   
    43   19   43 1   
    44   19   44 1   
    45   20   45 1   
    46   20   46 1   
    47   20   47 1   
@<TRIPOS>SUBSTRUCTURE
     1 JRZ         1 TEMP              0 ****  ****    0 ROOT
