@<TRIPOS>MOLECULE
JRZ
   48    47     1     0     0
SMALL
bcc


@<TRIPOS>ATOM
      1 C1          0.9290   -0.0920    0.5110 c3        1 JRZ     -0.256000
      2 N1          2.5960   -4.3850    6.2990 n8        1 JRZ     -0.364000
      3 O1          1.2890   -0.3870    5.3210 os        1 JRZ     -0.130000
      4 C2          2.2730    0.0660   -0.0050 c1        1 JRZ      0.007000
      5 O2         -0.2340    0.6680    7.5130 oh        1 JRZ     -0.332000
      6 C3          1.6500    1.1170    3.0520 c3        1 JRZ     -0.190000
      7 C4          1.1240   -0.2700    2.9820 c2        1 JRZ     -0.170000
      8 C5          0.7480   -0.8340    1.7900 c2        1 JRZ      0.032000
      9 C6          0.1830   -2.2100    1.7020 c3        1 JRZ     -0.129000
     10 C7         -1.2450   -2.1950    1.1550 c3        1 JRZ     -0.199000
     11 C8          0.2030   -2.9610    2.9800 c2        1 JRZ      0.022000
     12 C9          0.5840   -2.4070    4.1540 c2        1 JRZ     -0.266000
     13 C10         0.9940   -1.0320    4.2010 c2        1 JRZ      0.328000
     14 C11         1.0950   -1.0450    6.6090 c3        1 JRZ     -0.032000
     15 C12         1.0670    0.1070    7.6230 c3        1 JRZ      0.059000
     16 C13         1.3860   -0.4250    8.9810 c2        1 JRZ     -0.241000
     17 C14         0.5000   -0.5480    9.9670 c2        1 JRZ     -0.161000
     18 C16         3.2670   -3.6780    8.5810 c3        1 JRZ     -0.234500
     19 C17         4.8850   -4.9380    7.1830 c3        1 JRZ     -0.234500
     20 H1          0.5120    0.9610    0.6150 hc        1 JRZ      0.186000
     21 H1A         0.3330   -0.5680   -0.3280 hc        1 JRZ      0.186000
     22 HN1         2.0380   -5.0670    6.7780 hn        1 JRZ      0.143500
     23 H2          2.4540    1.2700    2.2870 hc        1 JRZ      0.111333
     24 H2A         3.1070   -0.3660    0.5670 ha        1 JRZ      0.056000
     25 HO2        -0.3090    1.3510    8.1930 ho        1 JRZ      0.228000
     26 H3          2.0810    1.3470    4.0580 hc        1 JRZ      0.111333
     27 H3A         0.8270    1.8500    2.8500 hc        1 JRZ      0.111333
     28 H7         -1.2630   -1.7690    0.1230 hc        1 JRZ      0.108000
     29 H7A        -1.6410   -3.2400    1.1110 hc        1 JRZ      0.108000
     30 H7B        -1.9110   -1.5830    1.8090 hc        1 JRZ      0.108000
     31 H8          0.8280   -2.7900    0.9640 hc        1 JRZ      0.171000
     32 H9         -0.1260   -4.0160    2.9300 ha        1 JRZ      0.176000
     33 H11         0.6100   -3.0060    5.0840 ha        1 JRZ      0.202000
     34 H11A        0.1200   -1.5940    6.6100 h1        1 JRZ      0.140000
     35 H12         1.9680   -1.7300    6.7740 h1        1 JRZ      0.140000
     36 H13         1.8310    0.8870    7.3310 h1        1 JRZ      0.110000
     37 H14         2.4470   -0.6950    9.1180 ha        1 JRZ      0.141000
     38 H14A        0.7830   -0.9210   10.9620 ha        1 JRZ      0.132500
     39 H14B       -0.5620   -0.2860    9.8510 ha        1 JRZ      0.132500
     40 H15         4.0800   -2.9940    6.6950 h1        1 JRZ      0.084000
     41 H16         2.9270   -4.6130    9.0870 hc        1 JRZ      0.084833
     42 H16A        2.4330   -2.9350    8.6080 hc        1 JRZ      0.084833
     43 H16B        4.1320   -3.2620    9.1520 hc        1 JRZ      0.084833
     44 H17         5.7090   -4.5050    7.7990 hc        1 JRZ      0.084833
     45 H17A        5.2780   -5.1270    6.1550 hc        1 JRZ      0.084833
     46 H17B        4.5810   -5.9120    7.6340 hc        1 JRZ      0.084833
     47 H121        2.9570   -4.8100    5.4650 hn        1 JRZ      0.143500
     48 C15         3.7060   -3.9640    7.1460 c3        1 JRZ     -0.046000
@<TRIPOS>BOND
     1    1    4 1   
     2    1    8 1   
     3    1   20 1   
     4    1   21 1   
     5    2   22 1   
     6    2   47 1   
     7    2   48 1   
     8    3   13 1   
     9    3   14 1   
    10    4   24 1   
    11    5   15 1   
    12    5   25 1   
    13    6    7 1   
    14    6   23 1   
    15    6   26 1   
    16    6   27 1   
    17    7    8 1   
    18    7   13 1   
    19    8    9 1   
    20    9   10 1   
    21    9   11 1   
    22    9   31 1   
    23   10   28 1   
    24   10   29 1   
    25   10   30 1   
    26   11   12 1   
    27   11   32 1   
    28   12   13 1   
    29   12   33 1   
    30   14   15 1   
    31   14   34 1   
    32   14   35 1   
    33   15   16 1   
    34   15   36 1   
    35   16   17 1   
    36   16   37 1   
    37   17   38 1   
    38   17   39 1   
    39   18   41 1   
    40   18   42 1   
    41   18   43 1   
    42   18   48 1   
    43   19   44 1   
    44   19   45 1   
    45   19   46 1   
    46   19   48 1   
    47   40   48 1   
@<TRIPOS>SUBSTRUCTURE
     1 JRZ         1 TEMP              0 ****  ****    0 ROOT
