@<TRIPOS>MOLECULE
JRZ
   48    46     1     0     0
SMALL
bcc


@<TRIPOS>ATOM
      1 C1         -0.0720   -0.4820   -0.3400 c3        1 JRZ     -0.256000
      2 N1          4.0750   -2.5260    7.9790 n3        1 JRZ     -0.349000
      3 O1          1.4420   -1.6000    4.1190 os        1 JRZ     -0.130000
      4 C2          0.7030   -1.4260   -1.1160 c1        1 JRZ      0.005000
      5 O2          2.8070   -0.3510    6.3930 oh        1 JRZ     -0.334000
      6 C3          2.1220   -1.0440    1.5660 c3        1 JRZ     -0.195000
      7 C4          0.6930   -1.0460    1.9680 c2        1 JRZ     -0.169000
      8 C5         -0.3300   -0.7630    1.1010 c2        1 JRZ      0.041000
      9 C6         -1.7570   -0.7460    1.5340 c3        1 JRZ     -0.133000
     10 C7         -2.3930    0.6240    1.3000 c3        1 JRZ     -0.201000
     11 C8         -1.9810   -1.1520    2.9410 c2        1 JRZ      0.034000
     12 C9         -0.9690   -1.4480    3.7910 c2        1 JRZ     -0.275000
     13 C10         0.3910   -1.3710    3.3420 c2        1 JRZ      0.320000
     14 C11         1.2440   -1.8790    5.5380 c3        1 JRZ     -0.034000
     15 C12         2.6410   -1.7380    6.1490 c3        1 JRZ      0.028000
     16 C13         2.7250   -2.5750    7.4550 c3        1 JRZ     -0.050000
     17 C14         1.6350   -2.1300    8.4290 c3        1 JRZ     -0.258000
     18 C16         5.6720   -4.9430   10.4460 c3        1 JRZ     -0.125000
     19 C17         3.1630   -4.3830   10.9740 c1        1 JRZ     -0.239000
     20 H1          0.4570    0.5210   -0.4320 hc        1 JRZ      0.187500
     21 H1A        -1.0440   -0.3560   -0.9130 hc        1 JRZ      0.187500
     22 HN1         4.2520   -1.6490    8.4310 hn        1 JRZ      0.164000
     23 H2          2.2850   -0.4720    0.6180 hc        1 JRZ      0.114000
     24 H2A         1.0400   -2.3520   -0.6280 ha        1 JRZ      0.058000
     25 HO2         3.7380   -0.2070    6.6090 ho        1 JRZ      0.233000
     26 H3          2.7510   -0.5750    2.3660 hc        1 JRZ      0.114000
     27 H3A         2.4810   -2.0940    1.4160 hc        1 JRZ      0.114000
     28 H7         -1.8860    1.4040    1.9170 hc        1 JRZ      0.109667
     29 H7A        -2.3120    0.9100    0.2230 hc        1 JRZ      0.109667
     30 H7B        -3.4740    0.5890    1.5770 hc        1 JRZ      0.109667
     31 H8         -2.3120   -1.4990    0.8820 hc        1 JRZ      0.177000
     32 H9         -3.0350   -1.1940    3.2750 ha        1 JRZ      0.180000
     33 H11        -1.1760   -1.7540    4.8310 ha        1 JRZ      0.183000
     34 H11A        0.8520   -2.9230    5.6260 h1        1 JRZ      0.128000
     35 H12         0.5420   -1.1210    5.9730 h1        1 JRZ      0.128000
     36 H13         3.4160   -2.0990    5.4140 h1        1 JRZ      0.119000
     37 H14         2.5240   -3.6500    7.1620 h1        1 JRZ      0.104000
     38 H14A        1.6890   -1.0260    8.5960 hc        1 JRZ      0.088333
     39 H14B        0.6270   -2.3800    8.0210 hc        1 JRZ      0.088333
     40 H15         1.7540   -2.6500    9.4120 hc        1 JRZ      0.088333
     41 H16         5.9520   -4.6110    9.4120 hc        1 JRZ      0.102333
     42 H16A        5.8480   -6.0480   10.5240 hc        1 JRZ      0.102333
     43 H16B        6.3480   -4.4260   11.1780 hc        1 JRZ      0.102333
     44 H17         6.0170   -2.3040   10.1380 ha        1 JRZ      0.000000
     45 H17A        2.1530   -4.1750   11.2190 ha        1 JRZ      0.222000
     46 H17B        6.0900   -1.6450    9.9940 ha        1 JRZ      0.000000
     47 H121        4.2240   -3.2670    8.6390 hn        1 JRZ      0.164000
     48 C15         4.3070   -4.6350   10.7270 c1        1 JRZ     -0.162000
@<TRIPOS>BOND
     1    1    4 1   
     2    1    8 1   
     3    1   20 1   
     4    1   21 1   
     5    2   16 1   
     6    2   22 1   
     7    2   47 1   
     8    3   13 1   
     9    3   14 1   
    10    4   24 1   
    11    5   15 1   
    12    5   25 1   
    13    6    7 1   
    14    6   23 1   
    15    6   26 1   
    16    6   27 1   
    17    7    8 1   
    18    7   13 1   
    19    8    9 1   
    20    9   10 1   
    21    9   11 1   
    22    9   31 1   
    23   10   28 1   
    24   10   29 1   
    25   10   30 1   
    26   11   12 1   
    27   11   32 1   
    28   12   13 1   
    29   12   33 1   
    30   14   15 1   
    31   14   34 1   
    32   14   35 1   
    33   15   16 1   
    34   15   36 1   
    35   16   17 1   
    36   16   37 1   
    37   17   38 1   
    38   17   39 1   
    39   17   40 1   
    40   18   41 1   
    41   18   42 1   
    42   18   43 1   
    43   18   48 1   
    44   19   45 1   
    45   19   48 1   
    46   44   46 1   
@<TRIPOS>SUBSTRUCTURE
     1 JRZ         1 TEMP              0 ****  ****    0 ROOT
