@<TRIPOS>MOLECULE
JRZ
   48    48     1     0     0
SMALL
bcc


@<TRIPOS>ATOM
      1 C1          0.1040   -0.8120    0.0570 c2        1 JRZ      0.161000
      2 N1          3.0060   -2.2620    8.9490 n4        1 JRZ      0.156000
      3 O1          1.7370   -1.6280    4.4710 os        1 JRZ     -0.220000
      4 C2         -0.7140   -0.3390   -1.0520 c3        1 JRZ     -0.274000
      5 O2          3.8610   -1.8130    6.3700 oh        1 JRZ     -0.354000
      6 C3          2.0530   -1.9820    1.7810 c3        1 JRZ     -0.221000
      7 C4          0.8800   -1.2500    2.3100 ca        1 JRZ      0.036000
      8 C5         -0.1120   -0.6850    1.4200 ca        1 JRZ     -0.156000
      9 C6         -1.2520   -0.0190    1.9980 ca        1 JRZ      0.062000
     10 C7         -2.3360    0.5630    1.1820 c3        1 JRZ     -0.222000
     11 C8         -1.3540    0.0890    3.3810 ca        1 JRZ     -0.162000
     12 C9         -0.3820   -0.4330    4.2320 ca        1 JRZ     -0.021000
     13 C10         0.7340   -1.1030    3.6990 ca        1 JRZ      0.052000
     14 C11         1.4940   -1.7030    5.8920 c3        1 JRZ     -0.077000
     15 C12         2.6500   -2.5580    6.4700 c3        1 JRZ      0.183000
     16 C13         2.3250   -2.8860    7.8680 c2        1 JRZ     -0.703000
     17 C14         1.4910   -4.0690    8.1270 c3        1 JRZ     -0.070000
     18 C16         5.4100   -2.9810    8.8210 c3        1 JRZ     -0.233500
     19 C17         4.3250   -2.6740   11.0450 c3        1 JRZ     -0.233500
     20 H1         -0.8520    0.7770   -1.0120 hc        1 JRZ      0.148000
     21 H1A         1.0290   -1.3410   -0.2710 ha        1 JRZ      0.164000
     22 HN1         3.4200   -1.3880    8.6150 hn        1 JRZ      0.208000
     23 H2          1.7330   -2.8270    1.1200 hc        1 JRZ      0.122000
     24 H2A        -0.2420   -0.5910   -2.0390 hc        1 JRZ      0.148000
     25 HO2         4.0370   -1.7010    5.4290 ho        1 JRZ      0.207000
     26 H3          2.6670   -2.4200    2.6120 hc        1 JRZ      0.122000
     27 H3A         2.7180   -1.2920    1.2000 hc        1 JRZ      0.122000
     28 H7         -1.7370   -0.8080   -1.0310 hc        1 JRZ      0.148000
     29 H7A        -2.8160   -0.2180    0.5370 hc        1 JRZ      0.118000
     30 H7B        -1.9470    1.3870    0.5300 hc        1 JRZ      0.118000
     31 H8         -3.1400    1.0010    1.8300 hc        1 JRZ      0.118000
     32 H9         -2.2250    0.6040    3.8250 ha        1 JRZ      0.175000
     33 H11        -0.4960   -0.3200    5.3250 ha        1 JRZ      0.183000
     34 H11A        0.5150   -2.2060    6.0890 h1        1 JRZ      0.094500
     35 H12         1.5140   -0.6680    6.3150 h1        1 JRZ      0.094500
     36 H13         2.7320   -3.4940    5.8440 h1        1 JRZ      0.069000
     37 H14         0.8090   -4.2370    7.2560 hc        1 JRZ      0.044000
     38 H14A        0.8550   -3.9380    9.0400 hc        1 JRZ      0.044000
     39 H14B        2.0970   -5.0020    8.2680 hc        1 JRZ      0.044000
     40 H15         3.7440   -4.1550    9.5620 hx        1 JRZ      0.138000
     41 H16         5.2380   -3.1580    7.7290 hc        1 JRZ      0.095667
     42 H16A        6.1200   -3.7520    9.2050 hc        1 JRZ      0.095667
     43 H16B        5.8730   -1.9730    8.9490 hc        1 JRZ      0.095667
     44 H17         4.6570   -1.6110   11.1220 hc        1 JRZ      0.095667
     45 H17A        3.3970   -2.8080   11.6510 hc        1 JRZ      0.095667
     46 H17B        5.1230   -3.3230   11.4820 hc        1 JRZ      0.095667
     47 H121        2.3190   -2.0570    9.6800 hn        1 JRZ      0.208000
     48 C15         4.1060   -3.0830    9.5950 c3        1 JRZ     -0.114000
@<TRIPOS>BOND
     1    1    4 1   
     2    1    8 1   
     3    1   21 1   
     4    2   16 1   
     5    2   22 1   
     6    2   47 1   
     7    2   48 1   
     8    3   13 1   
     9    3   14 1   
    10    4   20 1   
    11    4   24 1   
    12    4   28 1   
    13    5   15 1   
    14    5   25 1   
    15    6    7 1   
    16    6   23 1   
    17    6   26 1   
    18    6   27 1   
    19    7    8 1   
    20    7   13 1   
    21    8    9 1   
    22    9   10 1   
    23    9   11 1   
    24   10   29 1   
    25   10   30 1   
    26   10   31 1   
    27   11   12 1   
    28   11   32 1   
    29   12   13 1   
    30   12   33 1   
    31   14   15 1   
    32   14   34 1   
    33   14   35 1   
    34   15   16 1   
    35   15   36 1   
    36   16   17 1   
    37   17   37 1   
    38   17   38 1   
    39   17   39 1   
    40   18   41 1   
    41   18   42 1   
    42   18   43 1   
    43   18   48 1   
    44   19   44 1   
    45   19   45 1   
    46   19   46 1   
    47   19   48 1   
    48   40   48 1   
@<TRIPOS>SUBSTRUCTURE
     1 JRZ         1 TEMP              0 ****  ****    0 ROOT
