@<TRIPOS>MOLECULE
JRZ
   47    48     1     0     0
SMALL
bcc


@<TRIPOS>ATOM
      1 C1         -4.6620   -1.1960    0.9020 c3        1 JRZ     -0.036100
      2 N1          4.5910    0.2120   -0.4960 n3        1 JRZ     -0.822200
      3 O1         -0.1800   -0.0730   -0.1240 os        1 JRZ     -0.322900
      4 C2         -3.7120   -2.3810    1.1250 c3        1 JRZ     -0.080400
      5 O2          2.2170   -0.7640   -1.9240 oh        1 JRZ     -0.585800
      6 C3         -2.2960   -1.9110    0.7620 c3        1 JRZ     -0.024100
      7 C4         -2.4540   -0.4900    0.3390 ca        1 JRZ     -0.107300
      8 C5         -3.7990   -0.0770    0.4170 ca        1 JRZ     -0.057300
      9 C6         -4.1830    1.2150    0.0670 ca        1 JRZ     -0.097300
     10 C7         -5.5980    1.6380    0.1500 c3        1 JRZ     -0.044800
     11 C8         -3.1860    2.1020   -0.3670 ca        1 JRZ     -0.098000
     12 C9         -1.8520    1.7150   -0.4500 ca        1 JRZ     -0.200000
     13 C10        -1.4760    0.4080   -0.0960 ca        1 JRZ      0.131100
     14 C11         0.7940    0.7990   -0.7060 c3        1 JRZ      0.101400
     15 C12         2.0980   -0.0040   -0.7380 c3        1 JRZ      0.097100
     16 C13         3.3250    0.9290   -0.5350 c3        1 JRZ      0.153500
     17 C14         3.3560    1.9980   -1.6310 c3        1 JRZ     -0.095100
     18 C16         4.1800   -1.0140    1.6850 c3        1 JRZ     -0.112100
     19 C17         6.4630   -0.7970    0.7380 c3        1 JRZ     -0.112100
     20 H1         -5.4490   -1.4430    0.1440 hc        1 JRZ      0.053700
     21 H1A        -5.1830   -0.9080    1.8510 hc        1 JRZ      0.053700
     22 HN1         4.5470   -0.6010   -1.0830 hn        1 JRZ      0.374800
     23 H2         -3.7500   -2.7150    2.1910 hc        1 JRZ      0.044200
     24 H2A        -4.0120   -3.2460    0.4850 hc        1 JRZ      0.044200
     25 HO2         2.2320   -0.1480   -2.6670 ho        1 JRZ      0.399000
     26 H3         -1.6040   -1.9880    1.6370 hc        1 JRZ      0.058700
     27 H3A        -1.8630   -2.5240   -0.0680 hc        1 JRZ      0.058700
     28 H7         -5.9770    1.5180    1.1970 hc        1 JRZ      0.041700
     29 H7A        -5.7230    2.7060   -0.1520 hc        1 JRZ      0.041700
     30 H7B        -6.2310    1.0030   -0.5200 hc        1 JRZ      0.041700
     31 H8         -3.4650    3.1290   -0.6490 ha        1 JRZ      0.130000
     32 H9         -1.1020    2.4400   -0.7930 ha        1 JRZ      0.132000
     33 H11         0.4760    1.0920   -1.7410 h1        1 JRZ      0.045200
     34 H11A        0.8990    1.7120   -0.0640 h1        1 JRZ      0.045200
     35 H12         2.0700   -0.7880    0.0760 h1        1 JRZ      0.100700
     36 H13         3.1710    1.4570    0.4530 h1        1 JRZ      0.058700
     37 H14         2.3890    2.5540   -1.6400 hc        1 JRZ      0.040367
     38 H14A        4.1840    2.7230   -1.4390 hc        1 JRZ      0.040367
     39 H14B        3.5210    1.5430   -2.6370 hc        1 JRZ      0.040367
     40 H15         5.2210    0.8550    1.3780 h1        1 JRZ      0.052700
     41 H16         3.9500   -1.9730    1.1620 hc        1 JRZ      0.039533
     42 H16A        4.6890   -1.2500    2.6490 hc        1 JRZ      0.039533
     43 H16B        3.2200   -0.4920    1.9140 hc        1 JRZ      0.039533
     44 H17         7.1730   -0.1700    0.1480 hc        1 JRZ      0.039533
     45 H17A        6.8730   -0.9260    1.7680 hc        1 JRZ      0.039533
     46 H17B        6.3850   -1.8000    0.2560 hc        1 JRZ      0.039533
     47 C15         5.0890   -0.1280    0.8300 c3        1 JRZ      0.176500
@<TRIPOS>BOND
     1    1    4 1   
     2    1    8 1   
     3    1   20 1   
     4    1   21 1   
     5    2   16 1   
     6    2   22 1   
     7    2   47 1   
     8    3   13 1   
     9    3   14 1   
    10    4    6 1   
    11    4   23 1   
    12    4   24 1   
    13    5   15 1   
    14    5   25 1   
    15    6    7 1   
    16    6   26 1   
    17    6   27 1   
    18    7    8 ar  
    19    7   13 ar  
    20    8    9 ar  
    21    9   10 1   
    22    9   11 ar  
    23   10   28 1   
    24   10   29 1   
    25   10   30 1   
    26   11   12 ar  
    27   11   31 1   
    28   12   13 ar  
    29   12   32 1   
    30   14   15 1   
    31   14   33 1   
    32   14   34 1   
    33   15   16 1   
    34   15   35 1   
    35   16   17 1   
    36   16   36 1   
    37   17   37 1   
    38   17   38 1   
    39   17   39 1   
    40   18   41 1   
    41   18   42 1   
    42   18   43 1   
    43   18   47 1   
    44   19   44 1   
    45   19   45 1   
    46   19   46 1   
    47   19   47 1   
    48   40   47 1   
@<TRIPOS>SUBSTRUCTURE
     1 JRZ         1 TEMP              0 ****  ****    0 ROOT
