@<TRIPOS>MOLECULE
JS2
   54    56     1     0     0
SMALL
bcc


@<TRIPOS>ATOM
      1 C2          1.1970   -0.0790    1.8770 cc        1 JS2      0.424800
      2 C4          3.0640   -1.1060    1.0780 cd        1 JS2      0.006800
      3 C6          1.3610   -2.4950    2.2690 c         1 JS2      0.626000
      4 O3'        11.0640   -5.1370   -7.0030 oh        1 JS2     -0.663800
      5 C3'        11.6550   -4.0650   -6.2960 c3        1 JS2      0.110100
      6 C2'        13.1890   -4.2590   -6.3050 c3        1 JS2      0.083100
      7 O2'        13.6220   -5.5330   -6.7180 oh        1 JS2     -0.595800
      8 C1'        13.7050   -3.1430   -7.2470 c3        1 JS2      0.295900
      9 O1'        13.9390   -3.6050   -8.5580 oh        1 JS2     -0.630800
     10 O4'        12.6930   -2.1610   -7.3630 os        1 JS2     -0.447600
     11 C4'        11.4060   -2.7320   -7.0370 c3        1 JS2      0.069100
     12 C5'        10.6110   -1.7100   -6.2020 c3        1 JS2      0.210400
     13 O5'         9.2840   -1.6540   -6.6070 os        1 JS2     -0.586200
     14 PBG         8.1800   -2.5800   -5.7770 p5        1 JS2      1.611800
     15 OAI         8.8600   -3.8980   -5.7180 o         1 JS2     -0.883000
     16 OAD         6.8640   -2.3450   -6.3910 o         1 JS2     -0.883000
     17 OAV         8.2310   -1.8830   -4.3090 os        1 JS2     -0.828800
     18 PBF         8.2660   -1.2530   -2.8130 p5        1 JS2      1.624800
     19 OAH         9.6560   -1.0360   -2.3870 o         1 JS2     -0.893000
     20 OAC         7.2510   -1.9320   -1.9650 o         1 JS2     -0.893000
     21 OAS         7.5970    0.2360   -3.0870 os        1 JS2     -0.592200
     22 CAM         6.2920    0.2700   -3.5660 c3        1 JS2      0.204400
     23 CAK         5.3190    0.8260   -2.5190 c3        1 JS2     -0.097400
     24 CAL         4.5580   -0.2540   -1.7740 c3        1 JS2     -0.090400
     25 N9          4.3140   -1.3060    0.4790 na        1 JS2     -0.188900
     26 N3          2.3400    0.0720    1.2380 nd        1 JS2     -0.561100
     27 N1          0.6750   -1.2630    2.3910 n         1 JS2     -0.501400
     28 O6          0.8280   -3.5080    2.7610 o         1 JS2     -0.653500
     29 C5          2.6310   -2.3910    1.5670 cc        1 JS2      0.249800
     30 N7          3.5560   -3.3770    1.2640 nc        1 JS2     -0.706000
     31 C8          4.5760   -2.7130    0.5920 cd        1 JS2      0.682400
     32 NAA         5.7820   -3.2830    0.2130 nh        1 JS2     -0.916500
     33 H1          0.5760    0.8280    2.0250 h5        1 JS2      0.031800
     34 H2         10.1260   -5.1450   -6.7320 ho        1 JS2      0.487000
     35 H3         11.2560   -4.0320   -5.2470 h1        1 JS2      0.107700
     36 H4         13.6140   -4.1230   -5.2760 h1        1 JS2      0.077700
     37 H5         13.0570   -5.8080   -7.4520 ho        1 JS2      0.418000
     38 H6         14.6500   -2.6450   -6.9140 h2        1 JS2      0.084700
     39 H7         13.0930   -3.9180   -8.9030 ho        1 JS2      0.409000
     40 H8         10.8790   -2.9250   -8.0110 h1        1 JS2      0.065700
     41 H9         10.6760   -1.9730   -5.1120 h1        1 JS2      0.040200
     42 H10        11.0640   -0.6920   -6.3690 h1        1 JS2      0.040200
     43 H13         5.9690   -0.7540   -3.9010 h1        1 JS2      0.029700
     44 H14         6.2760    0.9640   -4.4570 h1        1 JS2      0.029700
     45 H15         5.8940    1.4710   -1.8060 hc        1 JS2      0.026700
     46 H16         4.5800    1.4860   -3.0440 hc        1 JS2      0.026700
     47 H17         3.4600   -0.0300   -1.8000 hc        1 JS2      0.051700
     48 H18         4.7220   -1.2500   -2.2690 hc        1 JS2      0.051700
     49 H19         6.1260   -0.6350   -0.3250 h1        1 JS2      0.086700
     50 H20         4.9190    0.6570    0.1770 h1        1 JS2      0.086700
     51 H22         6.3290   -2.7760   -0.4750 hn        1 JS2      0.458300
     52 H23         5.7220   -4.2620    0.0400 hn        1 JS2      0.458300
     53 H21        -0.2070   -1.2560    2.8440 hn        1 JS2      0.315500
     54 CAN         5.0320   -0.3480   -0.3220 c3        1 JS2      0.030300
@<TRIPOS>BOND
     1    1   26 2   
     2    1   27 1   
     3    1   33 1   
     4    2   25 1   
     5    2   26 1   
     6    2   29 2   
     7    3   27 1   
     8    3   28 2   
     9    3   29 1   
    10    4    5 1   
    11    4   34 1   
    12    5    6 1   
    13    5   11 1   
    14    5   35 1   
    15    6    7 1   
    16    6    8 1   
    17    6   36 1   
    18    7   37 1   
    19    8    9 1   
    20    8   10 1   
    21    8   38 1   
    22    9   39 1   
    23   10   11 1   
    24   11   12 1   
    25   11   40 1   
    26   12   13 1   
    27   12   41 1   
    28   12   42 1   
    29   13   14 1   
    30   14   15 1   
    31   14   16 1   
    32   14   17 1   
    33   17   18 1   
    34   18   19 1   
    35   18   20 1   
    36   18   21 1   
    37   21   22 1   
    38   22   23 1   
    39   22   43 1   
    40   22   44 1   
    41   23   24 1   
    42   23   45 1   
    43   23   46 1   
    44   24   47 1   
    45   24   48 1   
    46   24   54 1   
    47   25   31 1   
    48   25   54 1   
    49   27   53 1   
    50   29   30 1   
    51   30   31 2   
    52   31   32 1   
    53   32   51 1   
    54   32   52 1   
    55   49   54 1   
    56   50   54 1   
@<TRIPOS>SUBSTRUCTURE
     1 JS2         1 TEMP              0 ****  ****    0 ROOT
