@<TRIPOS>MOLECULE
JS3
   31    33     1     0     0
SMALL
bcc


@<TRIPOS>ATOM
      1 C1          0.1940    0.1590   -0.1550 c         1 JS3      0.722700
      2 O8          1.3990    0.4470   -0.2680 o         1 JS3     -0.576100
      3 N9         -0.4040   -0.1310    1.0700 n         1 JS3     -0.472100
      4 C10         0.2380   -0.1940    2.3210 ca        1 JS3      0.075600
      5 C11         1.4860    0.4630    2.5680 ca        1 JS3     -0.137000
      6 C12         2.0620    0.4090    3.8110 ca        1 JS3     -0.097000
      7 C13         1.4450   -0.2880    4.8830 ca        1 JS3     -0.056000
      8 C14         0.2080   -0.9390    4.6490 ca        1 JS3     -0.010000
      9 C15        -0.3800   -0.8850    3.3620 ca        1 JS3     -0.185000
     10 C16        -0.4160   -1.6400    5.7190 ca        1 JS3     -0.127000
     11 C17         0.1710   -1.6840    6.9590 ca        1 JS3     -0.120000
     12 C18         1.4070   -1.0330    7.1910 ca        1 JS3     -0.135000
     13 C19         2.0310   -0.3500    6.1770 ca        1 JS3     -0.108000
     14 C20        -0.7030    0.1170   -1.3230 cc        1 JS3     -0.304000
     15 S21        -2.3820    0.1880   -1.2770 ss        1 JS3     -0.039300
     16 C22        -2.4510    0.0900   -2.9870 cc        1 JS3      0.474400
     17 N23        -1.2630    0.0130   -3.5990 nd        1 JS3     -0.628000
     18 C24        -0.2480    0.0330   -2.6490 cd        1 JS3      0.446600
     19 CL1        -3.9200    0.0990   -3.8020 cl        1 JS3     -0.079000
     20 C26         1.1800   -0.0200   -3.0370 c3        1 JS3     -0.140400
     21 H1         -1.3310   -0.4940    1.0520 hn        1 JS3      0.313500
     22 H2          1.9880    1.0090    1.7520 ha        1 JS3      0.170000
     23 H3          3.0230    0.9140    3.9940 ha        1 JS3      0.138000
     24 H4         -1.3400   -1.4030    3.2150 ha        1 JS3      0.130000
     25 H5         -1.3760   -2.1430    5.5310 ha        1 JS3      0.131000
     26 H6         -0.3100   -2.2250    7.7880 ha        1 JS3      0.132000
     27 H7          1.8570   -1.0830    8.1940 ha        1 JS3      0.133000
     28 H8          2.9920    0.1600    6.3450 ha        1 JS3      0.133000
     29 H9          1.7100   -0.7770   -2.4040 hc        1 JS3      0.071367
     30 H10         1.6480    0.9780   -2.8340 hc        1 JS3      0.071367
     31 H11         1.3140   -0.2770   -4.1160 hc        1 JS3      0.071367
@<TRIPOS>BOND
     1    1    2 2   
     2    1    3 1   
     3    1   14 1   
     4    3    4 1   
     5    3   21 1   
     6    4    5 ar  
     7    4    9 ar  
     8    5    6 ar  
     9    5   22 1   
    10    6    7 ar  
    11    6   23 1   
    12    7    8 ar  
    13    7   13 ar  
    14    8    9 ar  
    15    8   10 ar  
    16    9   24 1   
    17   10   11 ar  
    18   10   25 1   
    19   11   12 ar  
    20   11   26 1   
    21   12   13 ar  
    22   12   27 1   
    23   13   28 1   
    24   14   15 1   
    25   14   18 2   
    26   15   16 1   
    27   16   17 2   
    28   16   19 1   
    29   17   18 1   
    30   18   20 1   
    31   20   29 1   
    32   20   30 1   
    33   20   31 1   
@<TRIPOS>SUBSTRUCTURE
     1 JS3         1 TEMP              0 ****  ****    0 ROOT
