@<TRIPOS>MOLECULE
JS3
   31    33     1     0     0
SMALL
bcc


@<TRIPOS>ATOM
      1 C1          0.1930    0.1610   -0.1540 c         1 JS3      0.722700
      2 O8          1.4000    0.4450   -0.2680 o         1 JS3     -0.576100
      3 N9         -0.4040   -0.1260    1.0710 ns        1 JS3     -0.472100
      4 C10         0.2380   -0.1930    2.3210 ca        1 JS3      0.075600
      5 C11         1.4880    0.4630    2.5680 ca        1 JS3     -0.137000
      6 C12         2.0640    0.4060    3.8100 ca        1 JS3     -0.097000
      7 C13         1.4470   -0.2910    4.8820 ca        1 JS3     -0.056000
      8 C14         0.2090   -0.9410    4.6480 ca        1 JS3     -0.010000
      9 C15        -0.3800   -0.8840    3.3620 ca        1 JS3     -0.185000
     10 C16        -0.4160   -1.6420    5.7180 ca        1 JS3     -0.127000
     11 C17         0.1720   -1.6880    6.9570 ca        1 JS3     -0.120000
     12 C18         1.4100   -1.0390    7.1900 ca        1 JS3     -0.135000
     13 C19         2.0340   -0.3560    6.1750 ca        1 JS3     -0.108000
     14 C20        -0.7040    0.1240   -1.3210 cc        1 JS3     -0.304000
     15 S21        -2.3820    0.2050   -1.2750 ss        1 JS3     -0.039300
     16 C22        -2.4530    0.1050   -2.9850 cc        1 JS3      0.474400
     17 N23        -1.2660    0.0200   -3.5970 nd        1 JS3     -0.628000
     18 C24        -0.2500    0.0350   -2.6480 cd        1 JS3      0.446600
     19 Cl1        -3.9220    0.1220   -3.7990 cl        1 JS3     -0.079000
     20 C26         1.1770   -0.0280   -3.0370 c3        1 JS3     -0.140400
     21 H1         -1.3330   -0.4880    1.0530 hn        1 JS3      0.313500
     22 H2          1.9900    1.0090    1.7520 ha        1 JS3      0.170000
     23 H3          3.0260    0.9100    3.9940 ha        1 JS3      0.138000
     24 H4         -1.3410   -1.4010    3.2150 ha        1 JS3      0.130000
     25 H5         -1.3760   -2.1440    5.5300 ha        1 JS3      0.131000
     26 H6         -0.3080   -2.2300    7.7860 ha        1 JS3      0.132000
     27 H7          1.8600   -1.0910    8.1920 ha        1 JS3      0.133000
     28 H8          2.9950    0.1520    6.3440 ha        1 JS3      0.133000
     29 H9          1.3090   -0.2890   -4.1150 hc        1 JS3      0.071367
     30 H10         1.7030   -0.7850   -2.4020 hc        1 JS3      0.071367
     31 H11         1.6510    0.9680   -2.8380 hc        1 JS3      0.071367
@<TRIPOS>BOND
     1    1    2 2   
     2    1    3 1   
     3    1   14 1   
     4    3    4 1   
     5    3   21 1   
     6    4    5 ar  
     7    4    9 ar  
     8    5    6 ar  
     9    5   22 1   
    10    6    7 ar  
    11    6   23 1   
    12    7    8 ar  
    13    7   13 ar  
    14    8    9 ar  
    15    8   10 ar  
    16    9   24 1   
    17   10   11 ar  
    18   10   25 1   
    19   11   12 ar  
    20   11   26 1   
    21   12   13 ar  
    22   12   27 1   
    23   13   28 1   
    24   14   15 1   
    25   14   18 2   
    26   15   16 1   
    27   16   17 2   
    28   16   19 1   
    29   17   18 1   
    30   18   20 1   
    31   20   29 1   
    32   20   30 1   
    33   20   31 1   
@<TRIPOS>SUBSTRUCTURE
     1 JS3         1 TEMP              0 ****  ****    0 ROOT
