@<TRIPOS>MOLECULE
JS3
   32    34     1     0     0
SMALL
bcc


@<TRIPOS>ATOM
      1 C1          0.2550    1.0280   -0.2010 c         1 JS3      0.626700
      2 O8          1.1750    1.7390   -0.5890 o         1 JS3     -0.447100
      3 N9         -0.3870    1.5070    1.1010 n4        1 JS3     -0.543200
      4 C10         0.1500    0.8080    2.2720 ca        1 JS3     -0.060400
      5 C11         1.5550    0.8660    2.5120 ca        1 JS3     -0.136000
      6 C12         2.0730    0.2410    3.6170 ca        1 JS3     -0.065000
      7 C13         1.2350   -0.4610    4.5260 ca        1 JS3     -0.012000
      8 C14        -0.1640   -0.5130    4.2800 ca        1 JS3     -0.041000
      9 C15        -0.6970    0.1340    3.1360 ca        1 JS3     -0.070000
     10 C16        -1.0060   -1.2100    5.1900 ca        1 JS3     -0.116000
     11 C17        -0.4700   -1.8280    6.2940 ca        1 JS3     -0.096000
     12 C18         0.9240   -1.7780    6.5380 ca        1 JS3     -0.085000
     13 C19         1.7600   -1.1110    5.6750 ca        1 JS3     -0.118000
     14 C20        -0.3100   -0.1360   -0.8060 cc        1 JS3     -0.391000
     15 S21        -1.5100   -1.1530   -0.2000 ss        1 JS3     -0.022300
     16 C22        -1.4320   -2.1280   -1.6070 cc        1 JS3      0.538400
     17 N23        -0.5270   -1.7300   -2.5200 nd        1 JS3     -0.621000
     18 C24         0.1250   -0.5980   -2.0820 cd        1 JS3      0.534600
     19 CL1        -2.4090   -3.4670   -1.7970 cl        1 JS3     -0.004000
     20 C26         1.1790    0.0620   -2.8820 c3        1 JS3     -0.168400
     21 H1         -1.4030    1.3830    1.0560 hn        1 JS3      0.459800
     22 H2          2.2150    1.4080    1.8130 ha        1 JS3      0.164000
     23 H3          3.1580    0.2780    3.8160 ha        1 JS3      0.168000
     24 H4         -1.7870    0.0850    2.9730 ha        1 JS3      0.148000
     25 H5         -2.0900   -1.2440    4.9970 ha        1 JS3      0.146000
     26 H6         -1.1180   -2.3690    7.0030 ha        1 JS3      0.159000
     27 H7          1.3290   -2.2820    7.4310 ha        1 JS3      0.160000
     28 H8          2.8460   -1.0670    5.8590 ha        1 JS3      0.157000
     29 H9          1.3280   -0.4310   -3.8760 hc        1 JS3      0.091700
     30 H10         2.1450    0.0340   -2.3130 hc        1 JS3      0.091700
     31 H11         0.9070    1.1380   -3.0440 hc        1 JS3      0.091700
     32 H92        -0.1740    2.5110    1.2090 hn        1 JS3      0.459800
@<TRIPOS>BOND
     1    1    2 2   
     2    1    3 1   
     3    1   14 1   
     4    3    4 1   
     5    3   21 1   
     6    3   32 1   
     7    4    5 ar  
     8    4    9 ar  
     9    5    6 ar  
    10    5   22 1   
    11    6    7 ar  
    12    6   23 1   
    13    7    8 ar  
    14    7   13 ar  
    15    8    9 ar  
    16    8   10 ar  
    17    9   24 1   
    18   10   11 ar  
    19   10   25 1   
    20   11   12 ar  
    21   11   26 1   
    22   12   13 ar  
    23   12   27 1   
    24   13   28 1   
    25   14   15 1   
    26   14   18 2   
    27   15   16 1   
    28   16   17 2   
    29   16   19 1   
    30   17   18 1   
    31   18   20 1   
    32   20   29 1   
    33   20   30 1   
    34   20   31 1   
@<TRIPOS>SUBSTRUCTURE
     1 JS3         1 TEMP              0 ****  ****    0 ROOT
