@<TRIPOS>MOLECULE
JS7
   40    41     1     0     0
SMALL
bcc


@<TRIPOS>ATOM
      1 N1         -0.0340    0.1990   -0.0860 nb        1 JS7     -0.800000
      2 C2          1.3180    0.2040   -0.0060 ca        1 JS7      0.747900
      3 N3          2.0890    0.1010    1.0920 nb        1 JS7     -0.813000
      4 C4          1.4420   -0.0330    2.3090 ca        1 JS7      0.782200
      5 C5         -0.0070   -0.0440    2.3590 ca        1 JS7     -0.524800
      6 C6         -0.6940    0.0750    1.0980 ca        1 JS7      0.755600
      7 N7          2.2070   -0.1770    3.4390 nh        1 JS7     -0.864900
      8 C8          5.7390   -0.2440    4.7330 ca        1 JS7      0.075700
      9 C9          6.3590    0.9860    4.4500 ca        1 JS7     -0.152000
     10 C10         7.7390    1.0800    4.4000 ca        1 JS7      0.017500
     11 C11         8.5640   -0.0460    4.6360 ca        1 JS7     -0.570500
     12 C12         7.9210   -1.2760    4.9150 ca        1 JS7      0.017500
     13 C13         6.5420   -1.3740    4.9660 ca        1 JS7     -0.152000
     14 S14        10.1480    0.0450    4.4910 sy        1 JS7      1.497200
     15 O15        10.8060   -1.1610    4.3960 o         1 JS7     -0.566800
     16 O16        10.6240    1.1870    3.8850 o         1 JS7     -0.566800
     17 N17        10.5540    0.4770    6.3300 n4        1 JS7     -0.786500
     18 N18        -0.7820   -0.1700    3.5950 no        1 JS7      0.349200
     19 O19        -0.2320   -0.0720    4.6700 o         1 JS7     -0.215000
     20 O20        -1.9630   -0.3650    3.5250 o         1 JS7     -0.215000
     21 O21        -2.0530    0.0670    1.1500 os        1 JS7     -0.393100
     22 C22        -2.7840    0.1890   -0.0800 c3        1 JS7      0.119700
     23 C23         3.6460   -0.1450    3.4050 c3        1 JS7      0.233800
     24 C24         4.2580   -0.3420    4.8000 c3        1 JS7     -0.094100
     25 H2          1.8600    0.3080   -0.9740 h5        1 JS7      0.069100
     26 HN7         1.7610   -0.2030    4.3330 hn        1 JS7      0.482800
     27 H9          5.7380    1.8790    4.2590 ha        1 JS7      0.178000
     28 H10         8.2110    2.0500    4.1510 ha        1 JS7      0.170000
     29 H12         8.5380   -2.1810    5.0750 ha        1 JS7      0.170000
     30 H13         6.0680   -2.3480    5.1800 ha        1 JS7      0.178000
     31 HN17       11.1650   -0.2330    6.7310 hn        1 JS7      0.455133
     32 HN1A        9.7230    0.5380    6.9080 hn        1 JS7      0.455133
     33 H22        -2.5500   -0.6650   -0.7580 h1        1 JS7      0.067367
     34 H22A       -3.8460    0.1470    0.2750 h1        1 JS7      0.067367
     35 H22B       -2.5590    1.1650   -0.5710 h1        1 JS7      0.067367
     36 H23         4.0210   -0.9610    2.7200 h1        1 JS7      0.063200
     37 H23A        3.9980    0.8430    2.9860 h1        1 JS7      0.063200
     38 H24         3.9500   -1.3410    5.2140 hc        1 JS7      0.088200
     39 H24A        3.8740    0.4470    5.5050 hc        1 JS7      0.088200
     40 H173       11.0400    1.3700    6.3820 hn        1 JS7      0.455133
@<TRIPOS>BOND
     1    1    2 ar  
     2    1    6 ar  
     3    2    3 ar  
     4    2   25 1   
     5    3    4 ar  
     6    4    5 ar  
     7    4    7 1   
     8    5    6 ar  
     9    5   18 1   
    10    6   21 1   
    11    7   23 1   
    12    7   26 1   
    13    8    9 ar  
    14    8   13 ar  
    15    8   24 1   
    16    9   10 ar  
    17    9   27 1   
    18   10   11 ar  
    19   10   28 1   
    20   11   12 ar  
    21   11   14 1   
    22   12   13 ar  
    23   12   29 1   
    24   13   30 1   
    25   14   15 2   
    26   14   16 2   
    27   14   17 1   
    28   17   31 1   
    29   17   32 1   
    30   17   40 1   
    31   18   19 1   
    32   18   20 1   
    33   21   22 1   
    34   22   33 1   
    35   22   34 1   
    36   22   35 1   
    37   23   24 1   
    38   23   36 1   
    39   23   37 1   
    40   24   38 1   
    41   24   39 1   
@<TRIPOS>SUBSTRUCTURE
     1 JS7         1 TEMP              0 ****  ****    0 ROOT
