@<TRIPOS>MOLECULE
JS7
   40    41     1     0     0
SMALL
bcc


@<TRIPOS>ATOM
      1 N1         -0.0350    0.1860   -0.0840 nb        1 JS7     -0.800000
      2 C2          1.3170    0.1890   -0.0050 ca        1 JS7      0.747900
      3 N3          2.0880    0.0900    1.0930 nb        1 JS7     -0.813000
      4 C4          1.4410   -0.0360    2.3110 ca        1 JS7      0.782200
      5 C5         -0.0070   -0.0430    2.3620 ca        1 JS7     -0.524800
      6 C6         -0.6950    0.0700    1.1000 ca        1 JS7      0.755600
      7 N7          2.2070   -0.1730    3.4420 nu        1 JS7     -0.864900
      8 C8          5.7390   -0.2390    4.7340 ca        1 JS7      0.075700
      9 C9          6.3620    0.9880    4.4410 ca        1 JS7     -0.152000
     10 C10         7.7420    1.0790    4.3900 ca        1 JS7      0.017500
     11 C11         8.5640   -0.0470    4.6340 ca        1 JS7     -0.570500
     12 C12         7.9200   -1.2730    4.9230 ca        1 JS7      0.017500
     13 C13         6.5400   -1.3690    4.9750 ca        1 JS7     -0.152000
     14 S14        10.1480    0.0400    4.4870 sy        1 JS7      1.497200
     15 O15        10.8040   -1.1680    4.4000 o         1 JS7     -0.566800
     16 O16        10.6270    1.1760    3.8710 o         1 JS7     -0.566800
     17 N17        10.5570    0.4850    6.3220 nz        1 JS7     -0.786500
     18 N18        -0.7830   -0.1610    3.5990 no        1 JS7      0.349200
     19 O19        -0.2310   -0.0620    4.6730 o         1 JS7     -0.215000
     20 O20        -1.9640   -0.3500    3.5300 o         1 JS7     -0.215000
     21 O21        -2.0540    0.0650    1.1530 os        1 JS7     -0.393100
     22 C22        -2.7860    0.1810   -0.0770 c3        1 JS7      0.119700
     23 C23         3.6450   -0.1460    3.4060 c3        1 JS7      0.233800
     24 C24         4.2580   -0.3330    4.8030 c3        1 JS7     -0.094100
     25 H2          1.8590    0.2860   -0.9740 h5        1 JS7      0.069100
     26 HN7         1.7610   -0.1960    4.3360 hn        1 JS7      0.482800
     27 H9          5.7420    1.8800    4.2440 ha        1 JS7      0.178000
     28 H10         8.2150    2.0460    4.1330 ha        1 JS7      0.170000
     29 H12         8.5350   -2.1790    5.0890 ha        1 JS7      0.170000
     30 H13         6.0640   -2.3400    5.1970 ha        1 JS7      0.178000
     31 HN17       11.0450    1.3780    6.3670 hn        1 JS7      0.455133
     32 HN1A       11.1660   -0.2230    6.7280 hn        1 JS7      0.455133
     33 H22        -2.5540   -0.6770   -0.7500 h1        1 JS7      0.067367
     34 H22A       -2.5590    1.1540   -0.5740 h1        1 JS7      0.067367
     35 H22B       -3.8480    0.1440    0.2790 h1        1 JS7      0.067367
     36 H23         3.9990    0.8380    2.9790 h1        1 JS7      0.063200
     37 H23A        4.0180   -0.9670    2.7280 h1        1 JS7      0.063200
     38 H24         3.8760    0.4620    5.5020 hc        1 JS7      0.088200
     39 H24A        3.9490   -1.3280    5.2240 hc        1 JS7      0.088200
     40 H173        9.7260    0.5530    6.9000 hn        1 JS7      0.455133
@<TRIPOS>BOND
     1    1    2 ar  
     2    1    6 ar  
     3    2    3 ar  
     4    2   25 1   
     5    3    4 ar  
     6    4    5 ar  
     7    4    7 1   
     8    5    6 ar  
     9    5   18 1   
    10    6   21 1   
    11    7   23 1   
    12    7   26 1   
    13    8    9 ar  
    14    8   13 ar  
    15    8   24 1   
    16    9   10 ar  
    17    9   27 1   
    18   10   11 ar  
    19   10   28 1   
    20   11   12 ar  
    21   11   14 1   
    22   12   13 ar  
    23   12   29 1   
    24   13   30 1   
    25   14   15 2   
    26   14   16 2   
    27   14   17 1   
    28   17   31 1   
    29   17   32 1   
    30   17   40 1   
    31   18   19 1   
    32   18   20 1   
    33   21   22 1   
    34   22   33 1   
    35   22   34 1   
    36   22   35 1   
    37   23   24 1   
    38   23   36 1   
    39   23   37 1   
    40   24   38 1   
    41   24   39 1   
@<TRIPOS>SUBSTRUCTURE
     1 JS7         1 TEMP              0 ****  ****    0 ROOT
