@<TRIPOS>MOLECULE
JS7
   39    40     1     0     0
SMALL
bcc


@<TRIPOS>ATOM
      1 N1          4.9290   -2.1650    0.2540 nb        1 JS7     -0.818000
      2 C2          3.5990   -2.4460    0.2550 ca        1 JS7      0.743900
      3 N3          2.5690   -1.5960    0.1440 nb        1 JS7     -0.799000
      4 C4          2.8660   -0.2430    0.0110 ca        1 JS7      0.782200
      5 C5          4.2550    0.1840   -0.0030 ca        1 JS7     -0.535800
      6 C6          5.2480   -0.8520    0.1260 ca        1 JS7      0.752600
      7 N7          1.8290    0.6350   -0.1020 nh        1 JS7     -0.841900
      8 C8         -1.9240    0.9260   -0.1820 ca        1 JS7     -0.021300
      9 C9         -2.4840    0.5180    1.0350 ca        1 JS7     -0.152000
     10 C10        -3.8050    0.0840    1.0850 ca        1 JS7     -0.015000
     11 C11        -4.5950    0.0490   -0.0700 ca        1 JS7     -0.380500
     12 C12        -4.0240    0.4500   -1.2820 ca        1 JS7     -0.015000
     13 C13        -2.7040    0.8860   -1.3430 ca        1 JS7     -0.152000
     14 S14        -6.1940   -0.5050   -0.0070 sy        1 JS7      1.527200
     15 O15        -6.5370   -1.0070   -1.2800 o         1 JS7     -0.656800
     16 O16        -6.3170   -1.3720    1.0990 o         1 JS7     -0.656800
     17 N17        -7.0320    0.8300    0.2750 n3        1 JS7     -1.027700
     18 N18         4.6810    1.5750   -0.1380 no        1 JS7      0.350200
     19 O19         5.8550    1.8280   -0.1400 o         1 JS7     -0.224500
     20 O20         3.8620    2.4610   -0.2460 o         1 JS7     -0.224500
     21 O21         6.5490   -0.4450    0.1120 os        1 JS7     -0.396100
     22 C22         7.5730   -1.4410    0.2360 c3        1 JS7      0.120700
     23 C23         0.4460    0.2200   -0.0940 c3        1 JS7      0.217800
     24 C24        -0.5160    1.4070   -0.2340 c3        1 JS7     -0.065100
     25 H2          3.3330   -3.5220    0.3600 h5        1 JS7      0.064100
     26 HN7         2.0180    1.6120   -0.2020 hn        1 JS7      0.480800
     27 H9         -1.8760    0.5390    1.9530 ha        1 JS7      0.143000
     28 H10        -4.2340   -0.2580    2.0440 ha        1 JS7      0.155000
     29 H12        -4.6280    0.4010   -2.2060 ha        1 JS7      0.155000
     30 H13        -2.2730    1.1970   -2.3070 ha        1 JS7      0.143000
     31 HN17       -7.4050    1.4030   -0.4390 hn        1 JS7      0.448800
     32 HN1A       -7.2550    1.1550    1.1820 hn        1 JS7      0.448800
     33 H22         8.5080   -0.8260    0.1930 h1        1 JS7      0.060700
     34 H22A        7.4840   -1.9720    1.2130 h1        1 JS7      0.060700
     35 H22B        7.5230   -2.1610   -0.6150 h1        1 JS7      0.060700
     36 H23         0.2670   -0.5020   -0.9430 h1        1 JS7      0.068200
     37 H23A        0.2220   -0.3230    0.8700 h1        1 JS7      0.068200
     38 H24        -0.3260    1.9430   -1.2020 hc        1 JS7      0.065700
     39 H24A       -0.3450    2.1420    0.5990 hc        1 JS7      0.065700
@<TRIPOS>BOND
     1    1    2 ar  
     2    1    6 ar  
     3    2    3 ar  
     4    2   25 1   
     5    3    4 ar  
     6    4    5 ar  
     7    4    7 1   
     8    5    6 ar  
     9    5   18 1   
    10    6   21 1   
    11    7   23 1   
    12    7   26 1   
    13    8    9 ar  
    14    8   13 ar  
    15    8   24 1   
    16    9   10 ar  
    17    9   27 1   
    18   10   11 ar  
    19   10   28 1   
    20   11   12 ar  
    21   11   14 1   
    22   12   13 ar  
    23   12   29 1   
    24   13   30 1   
    25   14   15 2   
    26   14   16 2   
    27   14   17 1   
    28   17   31 1   
    29   17   32 1   
    30   18   19 1   
    31   18   20 1   
    32   21   22 1   
    33   22   33 1   
    34   22   34 1   
    35   22   35 1   
    36   23   24 1   
    37   23   36 1   
    38   23   37 1   
    39   24   38 1   
    40   24   39 1   
@<TRIPOS>SUBSTRUCTURE
     1 JS7         1 TEMP              0 ****  ****    0 ROOT
