@<TRIPOS>MOLECULE
JS7
   39    40     1     0     0
SMALL
bcc


@<TRIPOS>ATOM
      1 N1         -0.0020   -0.2250   -0.0930 nb        1 JS7     -0.818000
      2 C2          1.3530   -0.2210    0.0110 ca        1 JS7      0.743900
      3 N3          2.1030   -0.1220    1.1170 nb        1 JS7     -0.799000
      4 C4          1.4380   -0.0070    2.3330 ca        1 JS7      0.782200
      5 C5         -0.0160    0.0000    2.3540 ca        1 JS7     -0.535800
      6 C6         -0.6780   -0.1140    1.0790 ca        1 JS7      0.752600
      7 N7          2.1860    0.0930    3.4690 nh        1 JS7     -0.841900
      8 C8          5.7060    0.1690    4.8020 ca        1 JS7     -0.021300
      9 C9          6.4610    1.3310    4.9980 ca        1 JS7     -0.152000
     10 C10         7.8510    1.2760    4.9490 ca        1 JS7     -0.015000
     11 C11         8.5170    0.0700    4.7080 ca        1 JS7     -0.380500
     12 C12         7.7530   -1.0850    4.5040 ca        1 JS7     -0.015000
     13 C13         6.3640   -1.0420    4.5510 ca        1 JS7     -0.152000
     14 S14        10.2070    0.0150    4.6240 sy        1 JS7      1.527200
     15 O15        10.5730   -1.0790    3.8110 o         1 JS7     -0.656800
     16 O16        10.6720    1.2950    4.2560 o         1 JS7     -0.656800
     17 N17        10.6380   -0.2860    6.1360 n3        1 JS7     -1.027700
     18 N18        -0.8160    0.1160    3.5710 no        1 JS7      0.350200
     19 O19        -0.2780    0.2120    4.6530 o         1 JS7     -0.224500
     20 O20        -2.0140    0.1140    3.4850 o         1 JS7     -0.224500
     21 O21        -2.0410   -0.1060    1.1060 os        1 JS7     -0.396100
     22 C22        -2.7430   -0.2170   -0.1390 c3        1 JS7      0.120700
     23 C23         3.6300    0.0920    3.4590 c3        1 JS7      0.217800
     24 C24         4.2200    0.2140    4.8690 c3        1 JS7     -0.065100
     25 H2          1.9100   -0.3110   -0.9490 h5        1 JS7      0.064100
     26 HN7         1.7300    0.1800    4.3540 hn        1 JS7      0.480800
     27 H9          5.9570    2.2910    5.1890 ha        1 JS7      0.143000
     28 H10         8.4410    2.2010    5.0840 ha        1 JS7      0.155000
     29 H12         8.2650   -2.0390    4.2830 ha        1 JS7      0.155000
     30 H13         5.7780   -1.9590    4.3880 ha        1 JS7      0.143000
     31 HN17       10.7650   -1.1970    6.4980 hn        1 JS7      0.448800
     32 HN1A       10.8330    0.4190    6.8010 hn        1 JS7      0.448800
     33 H22        -2.4970    0.6430   -0.8050 h1        1 JS7      0.060700
     34 H22A       -2.5050   -1.1870   -0.6370 h1        1 JS7      0.060700
     35 H22B       -3.8140   -0.1830    0.1890 h1        1 JS7      0.060700
     36 H23         4.0010   -0.8650    2.9870 h1        1 JS7      0.068200
     37 H23A        4.0010    0.9500    2.8270 h1        1 JS7      0.068200
     38 H24         3.8830    1.1750    5.3440 hc        1 JS7      0.065700
     39 H24A        3.8530   -0.6280    5.5150 hc        1 JS7      0.065700
@<TRIPOS>BOND
     1    1    2 ar  
     2    1    6 ar  
     3    2    3 ar  
     4    2   25 1   
     5    3    4 ar  
     6    4    5 ar  
     7    4    7 1   
     8    5    6 ar  
     9    5   18 1   
    10    6   21 1   
    11    7   23 1   
    12    7   26 1   
    13    8    9 ar  
    14    8   13 ar  
    15    8   24 1   
    16    9   10 ar  
    17    9   27 1   
    18   10   11 ar  
    19   10   28 1   
    20   11   12 ar  
    21   11   14 1   
    22   12   13 ar  
    23   12   29 1   
    24   13   30 1   
    25   14   15 2   
    26   14   16 2   
    27   14   17 1   
    28   17   31 1   
    29   17   32 1   
    30   18   19 1   
    31   18   20 1   
    32   21   22 1   
    33   22   33 1   
    34   22   34 1   
    35   22   35 1   
    36   23   24 1   
    37   23   36 1   
    38   23   37 1   
    39   24   38 1   
    40   24   39 1   
@<TRIPOS>SUBSTRUCTURE
     1 JS7         1 TEMP              0 ****  ****    0 ROOT
