@<TRIPOS>MOLECULE
JSR
   58    60     1     0     0
SMALL
bcc


@<TRIPOS>ATOM
      1 C1          0.0060   -0.9670    0.5280 c3        1 JSR      0.104400
      2 O1          1.3010   -1.4900    0.2960 os        1 JSR     -0.438600
      3 C2         -0.7170   -0.6720   -0.7970 c3        1 JSR      0.069800
      4 N2         -0.4740   -1.7230   -1.8250 n4        1 JSR     -0.757000
      5 C3         -1.1050   -1.3850   -3.1380 c3        1 JSR      0.101800
      6 C4         -0.8940   -2.4800   -4.1850 c3        1 JSR     -0.048100
      7 N1'         3.6960   -0.3700   -1.5540 n3        1 JSR     -0.817200
      8 C11        -1.4670   -2.0200   -5.4810 ca        1 JSR     -0.104300
      9 C12        -0.7630   -1.0880   -6.2490 ca        1 JSR     -0.172000
     10 C13        -1.2920   -0.6690   -7.4830 ca        1 JSR      0.145900
     11 F13        -0.6150    0.2340   -8.2260 f         1 JSR     -0.119900
     12 C14        -2.5190   -1.1870   -7.9440 ca        1 JSR     -0.133000
     13 C15        -3.2000   -2.1160   -7.1660 ca        1 JSR     -0.089000
     14 C16        -2.6830   -2.5340   -5.9380 ca        1 JSR     -0.127000
     15 N1A         6.8630   -1.5440    2.0080 nb        1 JSR     -0.666000
     16 C2'         2.6350    0.2630   -0.7870 c3        1 JSR      0.128800
     17 C2A         5.5900   -1.9650    2.1600 ca        1 JSR      0.458600
     18 C3'         2.3910   -0.5790    0.4860 c3        1 JSR      0.128100
     19 C3A         5.2740   -3.2560    2.6550 ca        1 JSR     -0.203300
     20 C4'         3.6510   -1.4640    0.6400 c3        1 JSR     -0.080700
     21 C4A         6.2970   -4.1360    3.0080 ca        1 JSR      0.009700
     22 C5'         4.4120   -1.3080   -0.6960 c3        1 JSR      0.151800
     23 C5A         7.6330   -3.7110    2.8650 ca        1 JSR     -0.205300
     24 C6A         7.8490   -2.4150    2.3670 ca        1 JSR      0.453200
     25 N6A         9.2380   -1.9210    2.2200 n4        1 JSR     -0.818300
     26 C7A         4.4650   -1.0160    1.8400 c3        1 JSR     -0.139700
     27 C8A         6.0090   -5.4860    3.5420 c3        1 JSR     -0.085800
     28 H1          0.0150   -0.0260    1.1390 h1        1 JSR      0.092700
     29 H1A        -0.5350   -1.7760    1.0940 h1        1 JSR      0.092700
     30 H2         -0.3710    0.3130   -1.2230 hx        1 JSR      0.112700
     31 H2A        -1.8250   -0.6060   -0.6020 hx        1 JSR      0.112700
     32 HN2         0.5460   -1.8290   -1.9430 hn        1 JSR      0.458800
     33 H3         -2.2070   -1.2260   -2.9640 hx        1 JSR      0.111200
     34 H3A        -0.6520   -0.4180   -3.5030 hx        1 JSR      0.111200
     35 H4          0.2020   -2.6910   -4.3150 hc        1 JSR      0.072700
     36 H4A        -1.3930   -3.4310   -3.8580 hc        1 JSR      0.072700
     37 HN1'        4.3130    0.3090   -1.9570 hn        1 JSR      0.385800
     38 H12         0.2050   -0.6900   -5.9140 ha        1 JSR      0.142000
     39 H14        -2.9210   -0.8540   -8.9150 ha        1 JSR      0.174000
     40 H15        -4.1570   -2.5300   -7.5250 ha        1 JSR      0.162000
     41 H16        -3.2330   -3.2780   -5.3420 ha        1 JSR      0.141000
     42 H2'         2.8730    1.3230   -0.4920 h1        1 JSR      0.045700
     43 H2'A        1.7130    0.2850   -1.4290 h1        1 JSR      0.045700
     44 H3'         2.2010    0.0670    1.3810 h1        1 JSR      0.074700
     45 H3AA        4.2180   -3.5510    2.7660 ha        1 JSR      0.178000
     46 H4'         3.3390   -2.5340    0.7730 hc        1 JSR      0.084700
     47 H5'         4.4430   -2.2940   -1.2360 h1        1 JSR      0.056200
     48 H5'A        5.4720   -0.9860   -0.5060 h1        1 JSR      0.056200
     49 H5A         8.4550   -4.3900    3.1440 ha        1 JSR      0.176000
     50 HN6A        9.3960   -1.5850    1.2610 hn        1 JSR      0.474800
     51 HN6B        9.3980   -1.1430    2.8740 hn        1 JSR      0.474800
     52 H7A         3.8020   -0.9770    2.7490 hc        1 JSR      0.084200
     53 H7AA        4.8540    0.0240    1.6640 hc        1 JSR      0.084200
     54 H8A         6.6830   -6.2500    3.0780 hc        1 JSR      0.081033
     55 H8AA        4.9490   -5.7820    3.3440 hc        1 JSR      0.081033
     56 H8AB        6.1760   -5.5000    4.6510 hc        1 JSR      0.081033
     57 H22        -0.8400   -2.6200   -1.4880 hn        1 JSR      0.458800
     58 H6A3        9.8920   -2.6830    2.4290 hn        1 JSR      0.474800
@<TRIPOS>BOND
     1    1    2 1   
     2    1    3 1   
     3    1   28 1   
     4    1   29 1   
     5    2   18 1   
     6    3    4 1   
     7    3   30 1   
     8    3   31 1   
     9    4    5 1   
    10    4   32 1   
    11    4   57 1   
    12    5    6 1   
    13    5   33 1   
    14    5   34 1   
    15    6    8 1   
    16    6   35 1   
    17    6   36 1   
    18    7   16 1   
    19    7   22 1   
    20    7   37 1   
    21    8    9 ar  
    22    8   14 ar  
    23    9   10 ar  
    24    9   38 1   
    25   10   11 1   
    26   10   12 ar  
    27   12   13 ar  
    28   12   39 1   
    29   13   14 ar  
    30   13   40 1   
    31   14   41 1   
    32   15   17 ar  
    33   15   24 ar  
    34   16   18 1   
    35   16   42 1   
    36   16   43 1   
    37   17   19 ar  
    38   17   26 1   
    39   18   20 1   
    40   18   44 1   
    41   19   21 ar  
    42   19   45 1   
    43   20   22 1   
    44   20   26 1   
    45   20   46 1   
    46   21   23 ar  
    47   21   27 1   
    48   22   47 1   
    49   22   48 1   
    50   23   24 ar  
    51   23   49 1   
    52   24   25 1   
    53   25   50 1   
    54   25   51 1   
    55   25   58 1   
    56   26   52 1   
    57   26   53 1   
    58   27   54 1   
    59   27   55 1   
    60   27   56 1   
@<TRIPOS>SUBSTRUCTURE
     1 JSR         1 TEMP              0 ****  ****    0 ROOT
