@<TRIPOS>MOLECULE
JSR
   56    58     1     0     0
SMALL
bcc


@<TRIPOS>ATOM
      1 C1          0.1740    3.3470   -0.6470 c3        1 JSR      0.120400
      2 O1         -0.6290    2.3220   -0.0660 os        1 JSR     -0.420600
      3 C2          1.6300    3.0050   -0.3140 c3        1 JSR      0.165800
      4 N2          2.1080    1.8290   -1.0130 n3        1 JSR     -0.824200
      5 C3          3.3700    1.3400   -0.4910 c3        1 JSR      0.166800
      6 C4          3.8040    0.0210   -1.1370 c3        1 JSR     -0.044100
      7 N1'        -3.7950    3.0930    1.2500 n3        1 JSR     -0.787200
      8 C11         5.1160   -0.4190   -0.5880 ca        1 JSR     -0.052300
      9 C12         5.1810   -0.9810    0.6900 ca        1 JSR     -0.166000
     10 C13         6.4200   -1.4050    1.2010 ca        1 JSR      0.125900
     11 F13         6.4840   -1.9500    2.4410 f         1 JSR     -0.142900
     12 C14         7.5920   -1.2690    0.4350 ca        1 JSR     -0.168000
     13 C15         7.5090   -0.7080   -0.8350 ca        1 JSR     -0.105000
     14 C16         6.2840   -0.2850   -1.3480 ca        1 JSR     -0.141000
     15 N1A        -3.2020   -1.8510   -0.3930 nb        1 JSR     -0.727000
     16 C2'        -2.6310    3.6140    0.5430 c3        1 JSR      0.112800
     17 C2A        -4.0190   -0.8100   -0.6640 ca        1 JSR      0.451600
     18 C3'        -2.0190    2.4870   -0.3290 c3        1 JSR      0.116100
     19 C3A        -5.4240   -0.8930   -0.6030 ca        1 JSR     -0.297300
     20 C4'        -2.7200    1.1880    0.1210 c3        1 JSR     -0.086700
     21 C4A        -6.0160   -2.1110   -0.2470 ca        1 JSR     -0.004300
     22 C5'        -3.7240    1.6350    1.2080 c3        1 JSR      0.141800
     23 C5A        -5.1980   -3.2030    0.0330 ca        1 JSR     -0.301300
     24 C6A        -3.7810   -3.0480   -0.0620 ca        1 JSR      0.635200
     25 N6A        -2.9600   -4.1720    0.1180 nh        1 JSR     -0.924500
     26 C7A        -3.3940    0.5040   -1.0530 c3        1 JSR     -0.124700
     27 C8A        -7.4910   -2.2360   -0.1830 c3        1 JSR     -0.061800
     28 H1          0.0010    3.3880   -1.7550 h1        1 JSR      0.037200
     29 H1A        -0.0900    4.3380   -0.1920 h1        1 JSR      0.037200
     30 H2          2.2700    3.8750   -0.6310 h1        1 JSR      0.040200
     31 H2A         1.7150    2.9030    0.8080 h1        1 JSR      0.040200
     32 HN2         1.4110    1.1060   -0.9920 hn        1 JSR      0.369800
     33 H3          4.1490    2.1250   -0.7030 h1        1 JSR      0.033200
     34 H3A         3.3430    1.1900    0.6300 h1        1 JSR      0.033200
     35 H4          3.0330   -0.7720   -0.9400 hc        1 JSR      0.058700
     36 H4A         3.8750    0.1500   -2.2500 hc        1 JSR      0.058700
     37 HN1'       -4.6370    3.4100    0.8040 hn        1 JSR      0.343800
     38 H12         4.2720   -1.0930    1.2980 ha        1 JSR      0.149000
     39 H14         8.5550   -1.6050    0.8460 ha        1 JSR      0.148000
     40 H15         8.4220   -0.5990   -1.4410 ha        1 JSR      0.137000
     41 H16         6.2330    0.1560   -2.3540 ha        1 JSR      0.139000
     42 H2'        -2.8930    4.5060   -0.0840 h1        1 JSR      0.056200
     43 H2'A       -1.8770    3.9330    1.3160 h1        1 JSR      0.056200
     44 H3'        -2.1760    2.6930   -1.4210 h1        1 JSR      0.043700
     45 H3AA       -6.0450   -0.0170   -0.8290 ha        1 JSR      0.140000
     46 H4'        -1.9590    0.4940    0.5700 hc        1 JSR      0.097700
     47 H5'        -3.3590    1.2910    2.2140 h1        1 JSR      0.056200
     48 H5'A       -4.7340    1.1780    1.0290 h1        1 JSR      0.056200
     49 H5A        -5.6360   -4.1710    0.3090 ha        1 JSR      0.142000
     50 HN6A       -3.3210   -4.8290    0.7720 hn        1 JSR      0.402300
     51 HN6B       -1.9860   -3.9880    0.2250 hn        1 JSR      0.402300
     52 H7A        -2.6330    0.3310   -1.8610 hc        1 JSR      0.057200
     53 H7AA       -4.1910    1.1720   -1.4760 hc        1 JSR      0.057200
     54 H8A        -7.9000   -2.4040   -1.2110 hc        1 JSR      0.050033
     55 H8AA       -7.7960   -3.0960    0.4610 hc        1 JSR      0.050033
     56 H8AB       -7.9490   -1.3030    0.2280 hc        1 JSR      0.050033
@<TRIPOS>BOND
     1    1    2 1   
     2    1    3 1   
     3    1   28 1   
     4    1   29 1   
     5    2   18 1   
     6    3    4 1   
     7    3   30 1   
     8    3   31 1   
     9    4    5 1   
    10    4   32 1   
    11    5    6 1   
    12    5   33 1   
    13    5   34 1   
    14    6    8 1   
    15    6   35 1   
    16    6   36 1   
    17    7   16 1   
    18    7   22 1   
    19    7   37 1   
    20    8    9 ar  
    21    8   14 ar  
    22    9   10 ar  
    23    9   38 1   
    24   10   11 1   
    25   10   12 ar  
    26   12   13 ar  
    27   12   39 1   
    28   13   14 ar  
    29   13   40 1   
    30   14   41 1   
    31   15   17 ar  
    32   15   24 ar  
    33   16   18 1   
    34   16   42 1   
    35   16   43 1   
    36   17   19 ar  
    37   17   26 1   
    38   18   20 1   
    39   18   44 1   
    40   19   21 ar  
    41   19   45 1   
    42   20   22 1   
    43   20   26 1   
    44   20   46 1   
    45   21   23 ar  
    46   21   27 1   
    47   22   47 1   
    48   22   48 1   
    49   23   24 ar  
    50   23   49 1   
    51   24   25 1   
    52   25   50 1   
    53   25   51 1   
    54   26   52 1   
    55   26   53 1   
    56   27   54 1   
    57   27   55 1   
    58   27   56 1   
@<TRIPOS>SUBSTRUCTURE
     1 JSR         1 TEMP              0 ****  ****    0 ROOT
