@<TRIPOS>MOLECULE
JSR
   57    59     1     0     0
SMALL
bcc


@<TRIPOS>ATOM
      1 C1         -0.2000   -0.1290    0.1530 c3        1 JSR      0.104400
      2 O1          1.1900   -0.4160    0.1200 os        1 JSR     -0.458600
      3 C2         -0.6750   -0.1340   -1.3050 c3        1 JSR      0.102800
      4 N2         -0.2360   -1.3610   -2.0340 ny        1 JSR     -0.759000
      5 C3         -0.6260   -1.3320   -3.4730 c3        1 JSR      0.101800
      6 C4         -0.1850   -2.5900   -4.2230 c3        1 JSR     -0.051100
      7 N1'         3.4860    1.4810    1.9300 n7        1 JSR     -0.791200
      8 C11        -0.5670   -2.4560   -5.6570 ca        1 JSR     -0.098300
      9 C12         0.1910   -1.6360   -6.4970 ca        1 JSR     -0.168000
     10 C13        -0.1570   -1.5260   -7.8550 ca        1 JSR      0.144900
     11 F13         0.5720   -0.7300   -8.6690 f         1 JSR     -0.121900
     12 C14        -1.2590   -2.2400   -8.3670 ca        1 JSR     -0.138000
     13 C15        -1.9970   -3.0550   -7.5150 ca        1 JSR     -0.092000
     14 C16        -1.6580   -3.1660   -6.1650 ca        1 JSR     -0.130000
     15 N1A         4.9260   -3.3010    0.6250 nb        1 JSR     -0.753000
     16 C2'         2.0680    1.2440    1.7130 c3        1 JSR      0.125800
     17 C2A         4.7280   -2.7970    1.8660 ca        1 JSR      0.438600
     18 C3'         1.8480   -0.2530    1.3840 c3        1 JSR      0.117100
     19 C3A         5.6350   -2.9640    2.9250 ca        1 JSR     -0.290300
     20 C4'         3.2550   -0.8620    1.2070 c3        1 JSR     -0.081700
     21 C4A         6.8090   -3.6990    2.7040 ca        1 JSR      0.007700
     22 C5'         4.2300    0.3020    1.4960 c3        1 JSR      0.148800
     23 C5A         7.0370   -4.2380    1.4410 ca        1 JSR     -0.294300
     24 C6A         6.0660   -4.0300    0.4120 ca        1 JSR      0.644200
     25 N6A         6.2500   -4.6520   -0.8300 nv        1 JSR     -0.930500
     26 C7A         3.4520   -2.0440    2.1350 c3        1 JSR     -0.121700
     27 C8A         7.7800   -3.9050    3.8030 c3        1 JSR     -0.066800
     28 H1         -0.3940    0.8880    0.5890 h1        1 JSR      0.072200
     29 H1A        -0.7350   -0.9070    0.7620 h1        1 JSR      0.072200
     30 H2         -1.7990   -0.0760   -1.3350 hx        1 JSR      0.112200
     31 H2A        -0.2400    0.7570   -1.8440 hx        1 JSR      0.112200
     32 HN2        -0.6390   -2.1880   -1.5810 hn        1 JSR      0.459800
     33 H3         -0.1530   -0.4230   -3.9450 hx        1 JSR      0.109200
     34 H3A        -1.7470   -1.2240   -3.5290 hx        1 JSR      0.109200
     35 H4          0.9290   -2.7210   -4.1430 hc        1 JSR      0.073700
     36 H4A        -0.6700   -3.4990   -3.7780 hc        1 JSR      0.073700
     37 HN1'        3.6690    1.6830    2.8950 hn        1 JSR      0.365800
     38 H12         1.0650   -1.0870   -6.1170 ha        1 JSR      0.146000
     39 H14        -1.5190   -2.1490   -9.4330 ha        1 JSR      0.169000
     40 H15        -2.8550   -3.6210   -7.9110 ha        1 JSR      0.157000
     41 H16        -2.2480   -3.8230   -5.5090 ha        1 JSR      0.140000
     42 H2'         1.7490    1.8690    0.8330 h1        1 JSR      0.055700
     43 H2'A        1.4510    1.5470    2.6000 h1        1 JSR      0.055700
     44 H3'         1.2500   -0.7700    2.1780 h1        1 JSR      0.057700
     45 H3AA        5.4330   -2.5300    3.9130 ha        1 JSR      0.144000
     46 H4'         3.3800   -1.1930    0.1410 hc        1 JSR      0.088700
     47 H5'         4.7710    0.5800    0.5490 h1        1 JSR      0.064700
     48 H5'A        5.0000   -0.0060    2.2530 h1        1 JSR      0.064700
     49 H5A         7.9440   -4.8230    1.2410 ha        1 JSR      0.151000
     50 HN6A        7.2010   -4.8370   -1.0570 hn        1 JSR      0.406800
     51 HN6B        5.7050   -4.3080   -1.5870 hn        1 JSR      0.406800
     52 H7A         2.5890   -2.7550    2.0160 hc        1 JSR      0.055700
     53 H7AA        3.4530   -1.6920    3.2010 hc        1 JSR      0.055700
     54 H8A         8.7890   -4.1790    3.4070 hc        1 JSR      0.056700
     55 H8AA        7.4270   -4.7330    4.4680 hc        1 JSR      0.056700
     56 H8AB        7.8800   -2.9780    4.4210 hc        1 JSR      0.056700
     57 H22         0.7900   -1.4330   -1.9490 hn        1 JSR      0.459800
@<TRIPOS>BOND
     1    1    2 1   
     2    1    3 1   
     3    1   28 1   
     4    1   29 1   
     5    2   18 1   
     6    3    4 1   
     7    3   30 1   
     8    3   31 1   
     9    4    5 1   
    10    4   32 1   
    11    4   57 1   
    12    5    6 1   
    13    5   33 1   
    14    5   34 1   
    15    6    8 1   
    16    6   35 1   
    17    6   36 1   
    18    7   16 1   
    19    7   22 1   
    20    7   37 1   
    21    8    9 ar  
    22    8   14 ar  
    23    9   10 ar  
    24    9   38 1   
    25   10   11 1   
    26   10   12 ar  
    27   12   13 ar  
    28   12   39 1   
    29   13   14 ar  
    30   13   40 1   
    31   14   41 1   
    32   15   17 ar  
    33   15   24 ar  
    34   16   18 1   
    35   16   42 1   
    36   16   43 1   
    37   17   19 ar  
    38   17   26 1   
    39   18   20 1   
    40   18   44 1   
    41   19   21 ar  
    42   19   45 1   
    43   20   22 1   
    44   20   26 1   
    45   20   46 1   
    46   21   23 ar  
    47   21   27 1   
    48   22   47 1   
    49   22   48 1   
    50   23   24 ar  
    51   23   49 1   
    52   24   25 1   
    53   25   50 1   
    54   25   51 1   
    55   26   52 1   
    56   26   53 1   
    57   27   54 1   
    58   27   55 1   
    59   27   56 1   
@<TRIPOS>SUBSTRUCTURE
     1 JSR         1 TEMP              0 ****  ****    0 ROOT
