@<TRIPOS>MOLECULE
JSR
   57    59     1     0     0
SMALL
bcc


@<TRIPOS>ATOM
      1 C1         -0.1780   -0.0840    0.1410 c3        1 JSR      0.104400
      2 O1          1.2080   -0.3870    0.1090 os        1 JSR     -0.458600
      3 C2         -0.6560   -0.1000   -1.3170 c3        1 JSR      0.102800
      4 N2         -0.2310   -1.3400   -2.0320 n4        1 JSR     -0.759000
      5 C3         -0.6230   -1.3240   -3.4710 c3        1 JSR      0.101800
      6 C4         -0.1960   -2.5940   -4.2070 c3        1 JSR     -0.051100
      7 N1'         3.5280    1.5050    1.8960 n3        1 JSR     -0.791200
      8 C11        -0.5790   -2.4730   -5.6420 ca        1 JSR     -0.098300
      9 C12         0.1870   -1.6710   -6.4920 ca        1 JSR     -0.168000
     10 C13        -0.1630   -1.5720   -7.8510 ca        1 JSR      0.144900
     11 F13         0.5740   -0.7940   -8.6750 f         1 JSR     -0.121900
     12 C14        -1.2730   -2.2800   -8.3530 ca        1 JSR     -0.138000
     13 C15        -2.0190   -3.0770   -7.4910 ca        1 JSR     -0.092000
     14 C16        -1.6790   -3.1760   -6.1400 ca        1 JSR     -0.130000
     15 N1A         4.9100   -3.3090    0.6380 nb        1 JSR     -0.753000
     16 C2'         2.1070    1.2800    1.6830 c3        1 JSR      0.125800
     17 C2A         4.7230   -2.7880    1.8730 ca        1 JSR      0.438600
     18 C3'         1.8700   -0.2170    1.3700 c3        1 JSR      0.117100
     19 C3A         5.6330   -2.9500    2.9310 ca        1 JSR     -0.290300
     20 C4'         3.2700   -0.8420    1.1980 c3        1 JSR     -0.081700
     21 C4A         6.7990   -3.7000    2.7140 ca        1 JSR      0.007700
     22 C5'         4.2580    0.3140    1.4730 c3        1 JSR      0.148800
     23 C5A         7.0150   -4.2570    1.4580 ca        1 JSR     -0.294300
     24 C6A         6.0420   -4.0530    0.4300 ca        1 JSR      0.644200
     25 N6A         6.2150   -4.6930   -0.8050 nh        1 JSR     -0.930500
     26 C7A         3.4560   -2.0170    2.1370 c3        1 JSR     -0.121700
     27 C8A         7.7720   -3.9010    3.8120 c3        1 JSR     -0.066800
     28 H1         -0.3600    0.9390    0.5660 h1        1 JSR      0.072200
     29 H1A        -0.7210   -0.8500    0.7590 h1        1 JSR      0.072200
     30 H2         -1.7790   -0.0300   -1.3450 hx        1 JSR      0.112200
     31 H2A        -0.2120    0.7790   -1.8660 hx        1 JSR      0.112200
     32 HN2         0.7950   -1.4230   -1.9480 hn        1 JSR      0.459800
     33 H3         -0.1410   -0.4250   -3.9540 hx        1 JSR      0.109200
     34 H3A        -1.7430   -1.2040   -3.5260 hx        1 JSR      0.109200
     35 H4          0.9160   -2.7370   -4.1270 hc        1 JSR      0.073700
     36 H4A        -0.6910   -3.4930   -3.7510 hc        1 JSR      0.073700
     37 HN1'        3.7140    1.7140    2.8590 hn        1 JSR      0.365800
     38 H12         1.0670   -1.1270   -6.1200 ha        1 JSR      0.146000
     39 H14        -1.5340   -2.1980   -9.4200 ha        1 JSR      0.169000
     40 H15        -2.8840   -3.6380   -7.8790 ha        1 JSR      0.157000
     41 H16        -2.2750   -3.8190   -5.4760 ha        1 JSR      0.140000
     42 H2'         1.7940    1.9000    0.7970 h1        1 JSR      0.055700
     43 H2'A        1.4940    1.5990    2.5670 h1        1 JSR      0.055700
     44 H3'         1.2680   -0.7200    2.1710 h1        1 JSR      0.057700
     45 H3AA        5.4390   -2.5010    3.9130 ha        1 JSR      0.144000
     46 H4'         3.3900   -1.1860    0.1350 hc        1 JSR      0.088700
     47 H5'         5.0250    0.0050    2.2330 h1        1 JSR      0.064700
     48 H5'A        4.8010    0.5760    0.5230 h1        1 JSR      0.064700
     49 H5A         7.9160   -4.8540    1.2610 ha        1 JSR      0.151000
     50 HN6A        7.1630   -4.8900   -1.0330 hn        1 JSR      0.406800
     51 HN6B        5.6700   -4.3530   -1.5640 hn        1 JSR      0.406800
     52 H7A         3.4640   -1.6550    3.1990 hc        1 JSR      0.055700
     53 H7AA        2.5850   -2.7200    2.0270 hc        1 JSR      0.055700
     54 H8A         7.4140   -4.7180    4.4890 hc        1 JSR      0.056700
     55 H8AA        7.8830   -2.9680    4.4180 hc        1 JSR      0.056700
     56 H8AB        8.7770   -4.1890    3.4160 hc        1 JSR      0.056700
     57 H22        -0.6420   -2.1580   -1.5700 hn        1 JSR      0.459800
@<TRIPOS>BOND
     1    1    2 1   
     2    1    3 1   
     3    1   28 1   
     4    1   29 1   
     5    2   18 1   
     6    3    4 1   
     7    3   30 1   
     8    3   31 1   
     9    4    5 1   
    10    4   32 1   
    11    4   57 1   
    12    5    6 1   
    13    5   33 1   
    14    5   34 1   
    15    6    8 1   
    16    6   35 1   
    17    6   36 1   
    18    7   16 1   
    19    7   22 1   
    20    7   37 1   
    21    8    9 ar  
    22    8   14 ar  
    23    9   10 ar  
    24    9   38 1   
    25   10   11 1   
    26   10   12 ar  
    27   12   13 ar  
    28   12   39 1   
    29   13   14 ar  
    30   13   40 1   
    31   14   41 1   
    32   15   17 ar  
    33   15   24 ar  
    34   16   18 1   
    35   16   42 1   
    36   16   43 1   
    37   17   19 ar  
    38   17   26 1   
    39   18   20 1   
    40   18   44 1   
    41   19   21 ar  
    42   19   45 1   
    43   20   22 1   
    44   20   26 1   
    45   20   46 1   
    46   21   23 ar  
    47   21   27 1   
    48   22   47 1   
    49   22   48 1   
    50   23   24 ar  
    51   23   49 1   
    52   24   25 1   
    53   25   50 1   
    54   25   51 1   
    55   26   52 1   
    56   26   53 1   
    57   27   54 1   
    58   27   55 1   
    59   27   56 1   
@<TRIPOS>SUBSTRUCTURE
     1 JSR         1 TEMP              0 ****  ****    0 ROOT
