@<TRIPOS>MOLECULE
JSS
   56    53     1     0     0
SMALL
bcc


@<TRIPOS>ATOM
      1 C1         -2.0470   -0.4770   -0.2490 c3        1 JSS     -0.022000
      2 O1         -0.6320   -0.5810   -0.0310 os        1 JSS     -0.283000
      3 C2         -2.3220    0.5630   -1.3970 c3        1 JSS     -0.075000
      4 N2         -3.5330    1.3260   -1.0850 n3        1 JSS     -0.306000
      5 C3         -3.2840    2.7710   -1.2980 c3        1 JSS     -0.074000
      6 C4         -4.0440    3.5880   -0.2090 c3        1 JSS     -0.130000
      7 N1'         1.2980    0.3150    2.1060 n3        1 JSS     -0.268000
      8 C11        -3.3500    4.9730    0.0030 c2        1 JSS     -0.047000
      9 C12        -3.9140    6.1260   -0.5520 c2        1 JSS     -0.166000
     10 C13        -3.3390    7.3700   -0.3030 c1        1 JSS      0.092000
     11 F13        -3.8180    8.4960   -0.9550 f         1 JSS     -0.107000
     12 C14        -2.2090    7.4660    0.4960 c1        1 JSS     -0.135500
     13 C15        -1.6480    6.3280    1.0470 c1        1 JSS     -0.135500
     14 C16        -2.2210    5.0710    0.8010 c1        1 JSS     -0.140000
     15 N1A         3.6820   -2.9670   -0.6740 n1        1 JSS     -0.204000
     16 C2'        -0.2050   -0.1240    2.1190 c3        1 JSS     -0.119000
     17 C2A         2.5390   -3.4640   -0.0960 c1        1 JSS      0.030000
     18 C3'        -0.2860   -1.0980    1.2300 c3        1 JSS      0.004000
     19 C3A         2.4230   -4.8270    0.1560 c1        1 JSS     -0.231000
     20 C4'         1.2210   -1.7860    1.1650 c3        1 JSS     -0.120000
     21 C4A         3.4470   -5.6740   -0.1720 c1        1 JSS      0.002000
     22 C5'         2.0660   -0.8160    1.2850 c3        1 JSS     -0.097000
     23 C5A         4.5890   -5.1760   -0.7500 c1        1 JSS     -0.238000
     24 C6A         4.7020   -3.8070   -1.0020 c1        1 JSS      0.110000
     25 N6A         5.8940   -3.2850   -1.6650 n3        1 JSS     -0.321000
     26 C7A         1.4240   -2.5030   -0.2070 c3        1 JSS     -0.106000
     27 C8A         3.3610   -7.2170   -0.0710 c3        1 JSS     -0.186000
     28 H1         -2.4180   -1.3820   -0.5160 h1        1 JSS      0.074500
     29 H1A        -2.4880   -0.1730    0.5860 h1        1 JSS      0.074500
     30 H2         -1.5780    1.1610   -1.4710 h1        1 JSS      0.083500
     31 H2A        -2.4440    0.0930   -2.2390 h1        1 JSS      0.083500
     32 HN2        -4.2220    1.0490   -1.6340 hn        1 JSS      0.159000
     33 H3         -2.3200    2.9510   -1.2350 h1        1 JSS      0.074500
     34 H3A        -3.6090    3.0310   -2.1860 h1        1 JSS      0.074500
     35 H4         -4.0400    3.1140    0.5900 hc        1 JSS      0.097000
     36 H4A        -4.9850    3.7330   -0.5040 hc        1 JSS      0.097000
     37 HN1'        1.3780    1.1110    1.6710 hn        1 JSS      0.146000
     38 H12        -4.6830    6.0570   -1.1350 ha        1 JSS      0.148000
     39 H14        -1.8230    8.3040    0.6620 ha        1 JSS      0.143500
     40 H15        -0.8340    6.4030    1.6220 ha        1 JSS      0.143500
     41 H16        -1.8240    4.2660    1.1930 ha        1 JSS      0.139000
     42 H2'        -0.4550   -0.4470    2.9950 h1        1 JSS      0.093500
     43 H2'A       -0.7810    0.6260    1.8560 h1        1 JSS      0.093500
     44 H3'        -0.9540   -1.7670    1.5190 h1        1 JSS      0.088000
     45 H3AA        1.5810   -5.1910    0.5820 ha        1 JSS      0.141000
     46 H4'         1.3300   -2.3970    1.8690 hc        1 JSS      0.100000
     47 H5'         2.9060   -1.1320    1.8070 h1        1 JSS      0.101000
     48 H5'A        2.3150   -0.4880    0.4290 h1        1 JSS      0.101000
     49 H5A         5.3460   -5.7990   -0.9930 ha        1 JSS      0.141000
     50 HN6A        6.4920   -3.8500   -2.0270 hn        1 JSS      0.195500
     51 HN6B        6.0620   -2.3920   -1.6570 hn        1 JSS      0.195500
     52 H7A         1.6350   -1.8370   -0.8980 hc        1 JSS      0.110000
     53 H7AA        0.5860   -2.9900   -0.4590 hc        1 JSS      0.110000
     54 H8A         4.2000   -7.5720    0.3640 hc        1 JSS      0.088333
     55 H8AA        2.5630   -7.4720    0.4830 hc        1 JSS      0.088333
     56 H8AB        3.2720   -7.5990   -0.9670 hc        1 JSS      0.088333
@<TRIPOS>BOND
     1    1    2 1   
     2    1    3 1   
     3    1   28 1   
     4    1   29 1   
     5    2   18 1   
     6    3    4 1   
     7    3   30 1   
     8    3   31 1   
     9    4    5 1   
    10    4   32 1   
    11    5    6 1   
    12    5   33 1   
    13    5   34 1   
    14    6    8 1   
    15    6   35 1   
    16    6   36 1   
    17    7   16 1   
    18    7   22 1   
    19    7   37 1   
    20    8    9 1   
    21    8   14 1   
    22    9   10 1   
    23    9   38 1   
    24   10   11 1   
    25   12   13 1   
    26   12   39 1   
    27   13   40 1   
    28   14   41 1   
    29   15   24 1   
    30   16   18 1   
    31   16   42 1   
    32   16   43 1   
    33   17   19 1   
    34   17   26 1   
    35   18   20 1   
    36   18   44 1   
    37   19   45 1   
    38   20   22 1   
    39   20   26 1   
    40   20   46 1   
    41   21   23 1   
    42   21   27 1   
    43   22   47 1   
    44   22   48 1   
    45   23   49 1   
    46   24   25 1   
    47   25   50 1   
    48   25   51 1   
    49   26   52 1   
    50   26   53 1   
    51   27   54 1   
    52   27   55 1   
    53   27   56 1   
@<TRIPOS>SUBSTRUCTURE
     1 JSS         1 TEMP              0 ****  ****    0 ROOT
