@<TRIPOS>MOLECULE
JSS
   56    58     1     0     0
SMALL
bcc


@<TRIPOS>ATOM
      1 C1         -0.1420    3.4580   -0.9660 c3        1 JSS      0.123400
      2 O1         -1.0210    2.5280   -0.3370 os        1 JSS     -0.429600
      3 C2          1.2730    3.1200   -0.4830 c3        1 JSS      0.164800
      4 N2          1.7460    1.8410   -0.9740 n3        1 JSS     -0.823200
      5 C3          2.9660    1.4060   -0.3220 c3        1 JSS      0.165800
      6 C4          3.3750   -0.0150   -0.7210 c3        1 JSS     -0.044100
      7 N1'        -3.9790    3.1350    1.0790 n3        1 JSS     -0.788200
      8 C11         4.6850   -0.3690   -0.1090 ca        1 JSS     -0.053300
      9 C12         4.7390   -1.2460    0.9760 ca        1 JSS     -0.164000
     10 C13         5.9850   -1.5810    1.5380 ca        1 JSS      0.125900
     11 F13         6.0390   -2.4320    2.5910 f         1 JSS     -0.142900
     12 C14         7.1730   -1.0390    1.0140 ca        1 JSS     -0.168000
     13 C15         7.1000   -0.1660   -0.0680 ca        1 JSS     -0.104000
     14 C16         5.8700    0.1690   -0.6280 ca        1 JSS     -0.143000
     15 N1A        -3.3660   -1.6190    1.1680 nb        1 JSS     -0.730000
     16 C2'        -3.0740    3.7760    0.1350 c3        1 JSS      0.118800
     17 C2A        -2.9670   -1.0710    0.0000 ca        1 JSS      0.450600
     18 C3'        -2.3810    2.6890   -0.7290 c3        1 JSS      0.114100
     19 C3A        -3.1670   -1.6870   -1.2520 ca        1 JSS     -0.296300
     20 C4'        -3.1520    1.3810   -0.4390 c3        1 JSS     -0.081700
     21 C4A        -3.8100   -2.9280   -1.3020 ca        1 JSS     -0.004300
     22 C5'        -4.2150    1.7710    0.6150 c3        1 JSS      0.139800
     23 C5A        -4.2370   -3.5150   -0.1120 ca        1 JSS     -0.303300
     24 C6A        -4.0130   -2.8270    1.1180 ca        1 JSS      0.632200
     25 N6A        -4.5340   -3.3670    2.3050 nh        1 JSS     -0.924500
     26 C7A        -2.2520    0.2540    0.0300 c3        1 JSS     -0.120700
     27 C8A        -4.0450   -3.6010   -2.6000 c3        1 JSS     -0.060800
     28 H1         -0.2290    3.3760   -2.0810 h1        1 JSS      0.038200
     29 H1A        -0.4040    4.5020   -0.6470 h1        1 JSS      0.038200
     30 H2          1.9680    3.9150   -0.8730 h1        1 JSS      0.040700
     31 H2A         1.2800    3.1770    0.6450 h1        1 JSS      0.040700
     32 HN2         1.0250    1.1470   -0.8780 hn        1 JSS      0.367800
     33 H3          3.7840    2.1190   -0.6280 h1        1 JSS      0.034200
     34 H3A         2.8890    1.4500    0.8050 h1        1 JSS      0.034200
     35 H4          2.5860   -0.7430   -0.3940 hc        1 JSS      0.058200
     36 H4A         3.4560   -0.0870   -1.8390 hc        1 JSS      0.058200
     37 HN1'       -3.5660    3.1190    1.9940 hn        1 JSS      0.351800
     38 H12         3.8210   -1.6790    1.3980 ha        1 JSS      0.149000
     39 H14         8.1400   -1.3090    1.4620 ha        1 JSS      0.148000
     40 H15         8.0260    0.2610   -0.4830 ha        1 JSS      0.137000
     41 H16         5.8230    0.8580   -1.4850 ha        1 JSS      0.139000
     42 H2'        -3.6900    4.4400   -0.5300 h1        1 JSS      0.054700
     43 H2'A       -2.3080    4.4080    0.6570 h1        1 JSS      0.054700
     44 H3'        -2.4390    2.9500   -1.8190 h1        1 JSS      0.049700
     45 H3AA       -2.8160   -1.1980   -2.1690 ha        1 JSS      0.141000
     46 H4'        -3.6690    1.0620   -1.3830 hc        1 JSS      0.060700
     47 H5'        -4.2200    1.0430    1.4690 h1        1 JSS      0.061700
     48 H5'A       -5.2340    1.7530    0.1380 h1        1 JSS      0.061700
     49 H5A        -4.7480   -4.4870   -0.1240 ha        1 JSS      0.141000
     50 HN6A       -4.1980   -2.9610    3.1510 hn        1 JSS      0.401300
     51 HN6B       -4.5500   -4.3620    2.3160 hn        1 JSS      0.401300
     52 H7A        -1.8620    0.4890    1.0560 hc        1 JSS      0.068200
     53 H7AA       -1.3620    0.1840   -0.6530 hc        1 JSS      0.068200
     54 H8A        -3.2180   -3.3790   -3.3190 hc        1 JSS      0.049033
     55 H8AA       -4.1180   -4.7090   -2.4720 hc        1 JSS      0.049033
     56 H8AB       -5.0050   -3.2360   -3.0460 hc        1 JSS      0.049033
@<TRIPOS>BOND
     1    1    2 1   
     2    1    3 1   
     3    1   28 1   
     4    1   29 1   
     5    2   18 1   
     6    3    4 1   
     7    3   30 1   
     8    3   31 1   
     9    4    5 1   
    10    4   32 1   
    11    5    6 1   
    12    5   33 1   
    13    5   34 1   
    14    6    8 1   
    15    6   35 1   
    16    6   36 1   
    17    7   16 1   
    18    7   22 1   
    19    7   37 1   
    20    8    9 ar  
    21    8   14 ar  
    22    9   10 ar  
    23    9   38 1   
    24   10   11 1   
    25   10   12 ar  
    26   12   13 ar  
    27   12   39 1   
    28   13   14 ar  
    29   13   40 1   
    30   14   41 1   
    31   15   17 ar  
    32   15   24 ar  
    33   16   18 1   
    34   16   42 1   
    35   16   43 1   
    36   17   19 ar  
    37   17   26 1   
    38   18   20 1   
    39   18   44 1   
    40   19   21 ar  
    41   19   45 1   
    42   20   22 1   
    43   20   26 1   
    44   20   46 1   
    45   21   23 ar  
    46   21   27 1   
    47   22   47 1   
    48   22   48 1   
    49   23   24 ar  
    50   23   49 1   
    51   24   25 1   
    52   25   50 1   
    53   25   51 1   
    54   26   52 1   
    55   26   53 1   
    56   27   54 1   
    57   27   55 1   
    58   27   56 1   
@<TRIPOS>SUBSTRUCTURE
     1 JSS         1 TEMP              0 ****  ****    0 ROOT
