@<TRIPOS>MOLECULE
JSS
   57    59     1     0     0
SMALL
bcc


@<TRIPOS>ATOM
      1 C1         -0.2530   -0.4520    0.3000 c3        1 JSS      0.108400
      2 O1          1.1620   -0.4260    0.1960 os        1 JSS     -0.467600
      3 C2         -0.7820   -0.4120   -1.1400 c3        1 JSS      0.102800
      4 N2         -0.1170   -1.4270   -2.0110 n4        1 JSS     -0.760000
      5 C3         -0.5100   -1.2850   -3.4440 c3        1 JSS      0.102800
      6 C4          0.1490   -2.3370   -4.3370 c3        1 JSS     -0.052100
      7 N1'         3.3580    1.5810    1.5650 n3        1 JSS     -0.783200
      8 C11        -0.2560   -2.0910   -5.7500 ca        1 JSS     -0.098300
      9 C12         0.3600   -1.0650   -6.4720 ca        1 JSS     -0.167000
     10 C13        -0.0080   -0.8460   -7.8120 ca        1 JSS      0.144900
     11 F13         0.5830    0.1480   -8.5130 f         1 JSS     -0.121900
     12 C14        -0.9860   -1.6560   -8.4230 ca        1 JSS     -0.138000
     13 C15        -1.5820   -2.6750   -7.6880 ca        1 JSS     -0.092000
     14 C16        -1.2240   -2.8950   -6.3560 ca        1 JSS     -0.130000
     15 N1A         5.6510   -1.7430   -1.1570 nb        1 JSS     -0.746000
     16 C2'         2.0070    1.1420    1.8750 c3        1 JSS      0.126800
     17 C2A         4.8230   -2.2210   -0.2020 ca        1 JSS      0.432600
     18 C3'         1.8480   -0.3410    1.4540 c3        1 JSS      0.114100
     19 C3A         5.1530   -3.2840    0.6560 ca        1 JSS     -0.300300
     20 C4'         3.2880   -0.8610    1.2450 c3        1 JSS     -0.085700
     21 C4A         6.4130   -3.8890    0.5280 ca        1 JSS      0.008700
     22 C5'         4.1860    0.3950    1.3670 c3        1 JSS      0.143800
     23 C5A         7.2870   -3.4220   -0.4480 ca        1 JSS     -0.296300
     24 C6A         6.8750   -2.3460   -1.2960 ca        1 JSS      0.651200
     25 N6A         7.7090   -1.9470   -2.3440 nh        1 JSS     -0.932500
     26 C7A         3.4630   -1.5890   -0.0720 c3        1 JSS     -0.108700
     27 C8A         6.7960   -5.0130    1.4130 c3        1 JSS     -0.066800
     28 H1         -0.5830   -1.3840    0.8340 h1        1 JSS      0.072200
     29 H1A        -0.6350    0.4510    0.8480 h1        1 JSS      0.072200
     30 H2         -1.8910   -0.6030   -1.1390 hx        1 JSS      0.112200
     31 H2A        -0.5780    0.6040   -1.5850 hx        1 JSS      0.112200
     32 HN2        -0.3530   -2.3680   -1.6800 hn        1 JSS      0.459800
     33 H3         -1.6320   -1.3730   -3.5080 hx        1 JSS      0.109200
     34 H3A        -0.2090   -0.2530   -3.7880 hx        1 JSS      0.109200
     35 H4         -0.1640   -3.3680   -4.0210 hc        1 JSS      0.074700
     36 H4A         1.2680   -2.2760   -4.2520 hc        1 JSS      0.074700
     37 HN1'        3.3630    2.1560    0.7430 hn        1 JSS      0.357800
     38 H12         1.1390   -0.4370   -6.0160 ha        1 JSS      0.147000
     39 H14        -1.2610   -1.4780   -9.4740 ha        1 JSS      0.169000
     40 H15        -2.3410   -3.3170   -8.1630 ha        1 JSS      0.157000
     41 H16        -1.6990   -3.7130   -5.7940 ha        1 JSS      0.139000
     42 H2'         1.2330    1.7820    1.3760 h1        1 JSS      0.062700
     43 H2'A        1.8700    1.2200    2.9890 h1        1 JSS      0.062700
     44 H3'         1.2970   -0.9380    2.2250 h1        1 JSS      0.063700
     45 H3AA        4.4420   -3.6320    1.4150 ha        1 JSS      0.138000
     46 H4'         3.5300   -1.5640    2.0870 hc        1 JSS      0.078700
     47 H5'         4.8480    0.5000    0.4660 h1        1 JSS      0.071700
     48 H5'A        4.8460    0.2930    2.2720 h1        1 JSS      0.071700
     49 H5A         8.2780   -3.8800   -0.5710 ha        1 JSS      0.152000
     50 HN6A        8.6760   -2.1270   -2.1970 hn        1 JSS      0.415300
     51 HN6B        7.5060   -1.0750   -2.7780 hn        1 JSS      0.415300
     52 H7A         2.6960   -2.4090   -0.1380 hc        1 JSS      0.041700
     53 H7AA        3.2660   -0.8760   -0.9160 hc        1 JSS      0.041700
     54 H8A         6.3550   -4.8860    2.4320 hc        1 JSS      0.056033
     55 H8AA        7.9070   -5.0860    1.5130 hc        1 JSS      0.056033
     56 H8AB        6.4190   -5.9760    0.9840 hc        1 JSS      0.056033
     57 H22         0.9060   -1.3130   -1.9150 hn        1 JSS      0.459800
@<TRIPOS>BOND
     1    1    2 1   
     2    1    3 1   
     3    1   28 1   
     4    1   29 1   
     5    2   18 1   
     6    3    4 1   
     7    3   30 1   
     8    3   31 1   
     9    4    5 1   
    10    4   32 1   
    11    4   57 1   
    12    5    6 1   
    13    5   33 1   
    14    5   34 1   
    15    6    8 1   
    16    6   35 1   
    17    6   36 1   
    18    7   16 1   
    19    7   22 1   
    20    7   37 1   
    21    8    9 ar  
    22    8   14 ar  
    23    9   10 ar  
    24    9   38 1   
    25   10   11 1   
    26   10   12 ar  
    27   12   13 ar  
    28   12   39 1   
    29   13   14 ar  
    30   13   40 1   
    31   14   41 1   
    32   15   17 ar  
    33   15   24 ar  
    34   16   18 1   
    35   16   42 1   
    36   16   43 1   
    37   17   19 ar  
    38   17   26 1   
    39   18   20 1   
    40   18   44 1   
    41   19   21 ar  
    42   19   45 1   
    43   20   22 1   
    44   20   26 1   
    45   20   46 1   
    46   21   23 ar  
    47   21   27 1   
    48   22   47 1   
    49   22   48 1   
    50   23   24 ar  
    51   23   49 1   
    52   24   25 1   
    53   25   50 1   
    54   25   51 1   
    55   26   52 1   
    56   26   53 1   
    57   27   54 1   
    58   27   55 1   
    59   27   56 1   
@<TRIPOS>SUBSTRUCTURE
     1 JSS         1 TEMP              0 ****  ****    0 ROOT
