@<TRIPOS>MOLECULE
JSS
   58    60     1     0     0
SMALL
bcc


@<TRIPOS>ATOM
      1 C1          1.0960   -1.6650   -0.5120 c3        1 JSS      0.102400
      2 O1          2.2850   -1.6990   -1.2780 os        1 JSS     -0.441600
      3 C2         -0.0630   -1.1050   -1.3510 c3        1 JSS      0.067800
      4 N2         -0.2190   -1.8250   -2.6470 n4        1 JSS     -0.758000
      5 C3         -1.2590   -1.1980   -3.5200 c3        1 JSS      0.100800
      6 C4         -1.4410   -1.9460   -4.8410 c3        1 JSS     -0.048100
      7 N1'         5.0490   -0.5490   -2.6860 n3        1 JSS     -0.781200
      8 C11        -2.4300   -1.2100   -5.6760 ca        1 JSS     -0.106300
      9 C12        -2.0410   -0.0320   -6.3220 ca        1 JSS     -0.172000
     10 C13        -2.9660    0.6520   -7.1300 ca        1 JSS      0.147900
     11 F13        -2.5930    1.7930   -7.7510 f         1 JSS     -0.117900
     12 C14        -4.2740    0.1520   -7.2930 ca        1 JSS     -0.132000
     13 C15        -4.6380   -1.0240   -6.6470 ca        1 JSS     -0.088000
     14 C16        -3.7260   -1.7060   -5.8390 ca        1 JSS     -0.127000
     15 N1A         5.7970   -1.6890    2.3170 nb        1 JSS     -0.671000
     16 C2'         3.6400   -0.2160   -2.5900 c3        1 JSS      0.147800
     17 C2A         5.6020   -2.4230    1.2020 ca        1 JSS      0.455600
     18 C3'         3.1300   -0.5470   -1.1590 c3        1 JSS      0.103100
     19 C3A         6.5120   -3.4320    0.7920 ca        1 JSS     -0.202300
     20 C4'         4.4010   -0.8340   -0.3270 c3        1 JSS     -0.106700
     21 C4A         7.6540   -3.6920    1.5510 ca        1 JSS      0.012700
     22 C5'         5.5710   -0.7180   -1.3370 c3        1 JSS      0.148800
     23 C5A         7.8740   -2.9350    2.7190 ca        1 JSS     -0.205300
     24 C6A         6.9190   -1.9570    3.0440 ca        1 JSS      0.453200
     25 N6A         7.1160   -1.1390    4.2640 n4        1 JSS     -0.818300
     26 C7A         4.3710   -2.1800    0.3690 c3        1 JSS     -0.122700
     27 C8A         8.6310   -4.7270    1.1490 c3        1 JSS     -0.086800
     28 H1          1.1920   -1.0400    0.4140 h1        1 JSS      0.090200
     29 H1A         0.9050   -2.7360   -0.2230 h1        1 JSS      0.090200
     30 H2          0.1250   -0.0170   -1.5820 hx        1 JSS      0.114700
     31 H2A        -1.0250   -1.1940   -0.7710 hx        1 JSS      0.114700
     32 HN2        -0.4700   -2.8030   -2.4660 hn        1 JSS      0.454800
     33 H3         -0.9470   -0.1330   -3.7260 hx        1 JSS      0.112200
     34 H3A        -2.2310   -1.1850   -2.9480 hx        1 JSS      0.112200
     35 H4         -0.4630   -2.0140   -5.3910 hc        1 JSS      0.072700
     36 H4A        -1.8010   -2.9930   -4.6490 hc        1 JSS      0.072700
     37 HN1'        5.1890   -1.3760   -3.2360 hn        1 JSS      0.369800
     38 H12        -1.0180    0.3590   -6.2240 ha        1 JSS      0.141000
     39 H14        -4.9880    0.6930   -7.9350 ha        1 JSS      0.175000
     40 H15        -5.6570   -1.4240   -6.7780 ha        1 JSS      0.162000
     41 H16        -4.0310   -2.6400   -5.3440 ha        1 JSS      0.141000
     42 H2'         3.0280   -0.7560   -3.3590 h1        1 JSS      0.063200
     43 H2'A        3.5380    0.8920   -2.7620 h1        1 JSS      0.063200
     44 H3'         2.5600    0.3150   -0.7260 h1        1 JSS      0.065700
     45 H3AA        6.3120   -4.0080   -0.1270 ha        1 JSS      0.180000
     46 H4'         4.5040   -0.0240    0.4430 hc        1 JSS      0.079700
     47 H5'         6.1790    0.1980   -1.0990 h1        1 JSS      0.061700
     48 H5'A        6.2480   -1.6120   -1.2680 h1        1 JSS      0.061700
     49 H5A         8.7690   -3.1260    3.3320 ha        1 JSS      0.177000
     50 HN6A        6.3050   -1.2370    4.8890 hn        1 JSS      0.474133
     51 HN6B        7.2200   -0.1490    4.0080 hn        1 JSS      0.474133
     52 H7A         4.2830   -2.9980   -0.3960 hc        1 JSS      0.073700
     53 H7AA        3.4570   -2.2360    1.0210 hc        1 JSS      0.073700
     54 H8A         8.1860   -5.4400    0.4110 hc        1 JSS      0.082033
     55 H8AA        8.9820   -5.3110    2.0380 hc        1 JSS      0.082033
     56 H8AB        9.5250   -4.2440    0.6750 hc        1 JSS      0.082033
     57 H22         0.6910   -1.8230   -3.1310 hn        1 JSS      0.454800
     58 H6A3        7.9620   -1.4570    4.7500 hn        1 JSS      0.474133
@<TRIPOS>BOND
     1    1    2 1   
     2    1    3 1   
     3    1   28 1   
     4    1   29 1   
     5    2   18 1   
     6    3    4 1   
     7    3   30 1   
     8    3   31 1   
     9    4    5 1   
    10    4   32 1   
    11    4   57 1   
    12    5    6 1   
    13    5   33 1   
    14    5   34 1   
    15    6    8 1   
    16    6   35 1   
    17    6   36 1   
    18    7   16 1   
    19    7   22 1   
    20    7   37 1   
    21    8    9 ar  
    22    8   14 ar  
    23    9   10 ar  
    24    9   38 1   
    25   10   11 1   
    26   10   12 ar  
    27   12   13 ar  
    28   12   39 1   
    29   13   14 ar  
    30   13   40 1   
    31   14   41 1   
    32   15   17 ar  
    33   15   24 ar  
    34   16   18 1   
    35   16   42 1   
    36   16   43 1   
    37   17   19 ar  
    38   17   26 1   
    39   18   20 1   
    40   18   44 1   
    41   19   21 ar  
    42   19   45 1   
    43   20   22 1   
    44   20   26 1   
    45   20   46 1   
    46   21   23 ar  
    47   21   27 1   
    48   22   47 1   
    49   22   48 1   
    50   23   24 ar  
    51   23   49 1   
    52   24   25 1   
    53   25   50 1   
    54   25   51 1   
    55   25   58 1   
    56   26   52 1   
    57   26   53 1   
    58   27   54 1   
    59   27   55 1   
    60   27   56 1   
@<TRIPOS>SUBSTRUCTURE
     1 JSS         1 TEMP              0 ****  ****    0 ROOT
