@<TRIPOS>MOLECULE
JSS
   57    59     1     0     0
SMALL
bcc


@<TRIPOS>ATOM
      1 C1         -0.2460   -0.4400    0.3000 c3        1 JSS      0.108400
      2 O1          1.1700   -0.4240    0.1960 os        1 JSS     -0.467600
      3 C2         -0.7740   -0.3920   -1.1410 c3        1 JSS      0.102800
      4 N2         -0.1170   -1.4100   -2.0140 ny        1 JSS     -0.760000
      5 C3         -0.5090   -1.2620   -3.4460 c3        1 JSS      0.102800
      6 C4          0.1420   -2.3160   -4.3430 c3        1 JSS     -0.052100
      7 N1'         3.3770    1.5700    1.5670 n7        1 JSS     -0.783200
      8 C11        -0.2610   -2.0640   -5.7540 ca        1 JSS     -0.098300
      9 C12         0.3610   -1.0410   -6.4740 ca        1 JSS     -0.167000
     10 C13        -0.0060   -0.8150   -7.8130 ca        1 JSS      0.144900
     11 F13         0.5910    0.1760   -8.5110 f         1 JSS     -0.121900
     12 C14        -0.9890   -1.6170   -8.4260 ca        1 JSS     -0.138000
     13 C15        -1.5920   -2.6340   -7.6940 ca        1 JSS     -0.092000
     14 C16        -1.2350   -2.8610   -6.3630 ca        1 JSS     -0.130000
     15 N1A         5.6540   -1.7660   -1.1510 nb        1 JSS     -0.746000
     16 C2'         2.0220    1.1390    1.8750 c3        1 JSS      0.126800
     17 C2A         4.8200   -2.2410   -0.1990 ca        1 JSS      0.432600
     18 C3'         1.8550   -0.3430    1.4540 c3        1 JSS      0.114100
     19 C3A         5.1420   -3.3080    0.6580 ca        1 JSS     -0.300300
     20 C4'         3.2930   -0.8710    1.2470 c3        1 JSS     -0.085700
     21 C4A         6.3970   -3.9200    0.5320 ca        1 JSS      0.008700
     22 C5'         4.1980    0.3790    1.3690 c3        1 JSS      0.143800
     23 C5A         7.2770   -3.4580   -0.4410 ca        1 JSS     -0.296300
     24 C6A         6.8740   -2.3780   -1.2890 ca        1 JSS      0.651200
     25 N6A         7.7130   -1.9820   -2.3340 nv        1 JSS     -0.932500
     26 C7A         3.4640   -1.6010   -0.0700 c3        1 JSS     -0.108700
     27 C8A         6.7720   -5.0490    1.4150 c3        1 JSS     -0.066800
     28 H1         -0.5830   -1.3710    0.8300 h1        1 JSS      0.072200
     29 H1A        -0.6210    0.4640    0.8500 h1        1 JSS      0.072200
     30 H2         -1.8850   -0.5740   -1.1410 hx        1 JSS      0.112200
     31 H2A        -0.5620    0.6240   -1.5830 hx        1 JSS      0.112200
     32 HN2         0.9070   -1.3040   -1.9180 hn        1 JSS      0.459800
     33 H3         -1.6320   -1.3420   -3.5100 hx        1 JSS      0.109200
     34 H3A        -0.2010   -0.2320   -3.7880 hx        1 JSS      0.109200
     35 H4          1.2610   -2.2640   -4.2580 hc        1 JSS      0.074700
     36 H4A        -0.1790   -3.3460   -4.0280 hc        1 JSS      0.074700
     37 HN1'        3.3860    2.1440    0.7450 hn        1 JSS      0.357800
     38 H12         1.1440   -0.4190   -6.0170 ha        1 JSS      0.147000
     39 H14        -1.2640   -1.4340   -9.4770 ha        1 JSS      0.169000
     40 H15        -2.3560   -3.2700   -8.1700 ha        1 JSS      0.157000
     41 H16        -1.7160   -3.6760   -5.8030 ha        1 JSS      0.139000
     42 H2'         1.8850    1.2170    2.9890 h1        1 JSS      0.062700
     43 H2'A        1.2530    1.7840    1.3750 h1        1 JSS      0.062700
     44 H3'         1.3000   -0.9370    2.2250 h1        1 JSS      0.063700
     45 H3AA        4.4270   -3.6520    1.4150 ha        1 JSS      0.138000
     46 H4'         3.5300   -1.5760    2.0890 hc        1 JSS      0.078700
     47 H5'         4.8560    0.2730    2.2750 h1        1 JSS      0.071700
     48 H5'A        4.8610    0.4800    0.4690 h1        1 JSS      0.071700
     49 H5A         8.2660   -3.9220   -0.5630 ha        1 JSS      0.152000
     50 HN6A        7.5160   -1.1080   -2.7670 hn        1 JSS      0.415300
     51 HN6B        8.6790   -2.1680   -2.1850 hn        1 JSS      0.415300
     52 H7A         3.2730   -0.8850   -0.9150 hc        1 JSS      0.041700
     53 H7AA        2.6920   -2.4150   -0.1380 hc        1 JSS      0.041700
     54 H8A         6.3230   -4.9250    2.4310 hc        1 JSS      0.056033
     55 H8AA        7.8820   -5.1240    1.5240 hc        1 JSS      0.056033
     56 H8AB        6.3960   -6.0100    0.9800 hc        1 JSS      0.056033
     57 H22        -0.3600   -2.3500   -1.6850 hn        1 JSS      0.459800
@<TRIPOS>BOND
     1    1    2 1   
     2    1    3 1   
     3    1   28 1   
     4    1   29 1   
     5    2   18 1   
     6    3    4 1   
     7    3   30 1   
     8    3   31 1   
     9    4    5 1   
    10    4   32 1   
    11    4   57 1   
    12    5    6 1   
    13    5   33 1   
    14    5   34 1   
    15    6    8 1   
    16    6   35 1   
    17    6   36 1   
    18    7   16 1   
    19    7   22 1   
    20    7   37 1   
    21    8    9 ar  
    22    8   14 ar  
    23    9   10 ar  
    24    9   38 1   
    25   10   11 1   
    26   10   12 ar  
    27   12   13 ar  
    28   12   39 1   
    29   13   14 ar  
    30   13   40 1   
    31   14   41 1   
    32   15   17 ar  
    33   15   24 ar  
    34   16   18 1   
    35   16   42 1   
    36   16   43 1   
    37   17   19 ar  
    38   17   26 1   
    39   18   20 1   
    40   18   44 1   
    41   19   21 ar  
    42   19   45 1   
    43   20   22 1   
    44   20   26 1   
    45   20   46 1   
    46   21   23 ar  
    47   21   27 1   
    48   22   47 1   
    49   22   48 1   
    50   23   24 ar  
    51   23   49 1   
    52   24   25 1   
    53   25   50 1   
    54   25   51 1   
    55   26   52 1   
    56   26   53 1   
    57   27   54 1   
    58   27   55 1   
    59   27   56 1   
@<TRIPOS>SUBSTRUCTURE
     1 JSS         1 TEMP              0 ****  ****    0 ROOT
