@<TRIPOS>MOLECULE
JST
   32    29     1     0     0
SMALL
bcc


@<TRIPOS>ATOM
      1 S1         -0.1300    0.3110   -0.7610 ss        1 JST      0.143000
      2 N1          1.1780    1.1310    1.9050 n2        1 JST     -0.022000
      3 N2         -0.0890    1.3930    1.7590 n2        1 JST     -0.225000
      4 C1          4.1550   -0.6190    0.7760 c2        1 JST     -0.223000
      5 C2          6.6110   -1.8380    2.6430 c1        1 JST      0.269000
      6 C3          6.4620   -2.3300    3.8780 c2        1 JST     -0.258000
      7 C4          5.2670   -2.2990    4.6070 c1        1 JST     -0.142000
      8 C5          4.2510   -2.2760    5.2390 c1        1 JST     -0.139000
      9 C6          3.3530    0.2410    1.4040 c2        1 JST     -0.104000
     10 C7          1.9360    0.4410    1.0740 c2        1 JST     -0.118000
     11 C8          1.4800   -0.1870   -0.2040 c3        1 JST     -0.263000
     12 C9         -0.8060    1.0870    0.6570 c2        1 JST     -0.013000
     13 C11        -3.5340    1.8680   -2.5740 c2        1 JST     -0.227500
     14 C12        -2.1510    2.9510    3.1090 c1        1 JST      0.127000
     15 C13        -1.3830    3.2670    4.1090 c2        1 JST     -0.518000
     16 HN2        -2.5760    1.9030    1.3130 hn        1 JST      0.253500
     17 H1          5.2120   -0.7350    1.0630 ha        1 JST      0.121000
     18 H2          3.8330   -1.2620   -0.0530 ha        1 JST      0.121000
     19 H4          3.3460   -2.2510    5.7920 ha        1 JST      0.234000
     20 H5          3.7370    0.8580    2.2380 ha        1 JST      0.143000
     21 H82         2.1850    0.0760   -1.0350 h1        1 JST      0.127000
     22 H81         1.4810   -1.3020   -0.0910 h1        1 JST      0.127000
     23 H101       -2.5840    1.3120   -0.3030 hn        1 JST      0.253500
     24 H102       -1.9130    0.4800   -2.5260 ha        1 JST      0.115500
     25 H111       -2.9380    2.7770   -2.4120 ha        1 JST      0.115500
     26 H112       -3.5900   -0.2500   -2.8110 ha        1 JST      0.115500
     27 H12        -4.6120    2.0440   -2.6910 ha        1 JST      0.115500
     28 H131       -0.3410    2.8940    4.1570 ha        1 JST      0.201000
     29 H132       -1.6610    3.8970    4.9650 ha        1 JST      0.201000
     30 N3         -2.1410    1.3630    0.5860 n3        1 JST     -0.341000
     31 CL1         7.8230   -3.0490    4.6250 cl        1 JST      0.034000
     32 C10        -2.9950    0.6580   -2.6380 c2        1 JST     -0.227500
@<TRIPOS>BOND
     1    1   11 1   
     2    1   12 1   
     3    2    3 1   
     4    2   10 1   
     5    3   12 1   
     6    4    9 1   
     7    4   17 1   
     8    4   18 1   
     9    5    6 1   
    10    6    7 1   
    11    6   31 1   
    12    7    8 1   
    13    8   19 1   
    14    9   10 1   
    15    9   20 1   
    16   10   11 1   
    17   11   21 1   
    18   11   22 1   
    19   12   30 1   
    20   13   25 1   
    21   13   27 1   
    22   13   32 1   
    23   14   15 1   
    24   15   28 1   
    25   15   29 1   
    26   16   30 1   
    27   23   30 1   
    28   24   32 1   
    29   26   32 1   
@<TRIPOS>SUBSTRUCTURE
     1 JST         1 TEMP              0 ****  ****    0 ROOT
