@<TRIPOS>MOLECULE
JST
   32    31     1     0     0
SMALL
bcc


@<TRIPOS>ATOM
      1 S1          0.3980   -0.2560   -0.2030 ss        1 JST      0.166000
      2 N1          1.7320    0.7650    2.3870 n2        1 JST      0.002000
      3 N2          0.4410    0.9510    2.2260 n3        1 JST     -0.227000
      4 C1          4.9160   -0.1810    0.9590 c2        1 JST     -0.183000
      5 C2          4.3090   -2.3410    1.2200 c1        1 JST      0.151000
      6 C3          4.8140   -2.9180    2.3210 c2        1 JST     -0.237000
      7 C4          5.3820   -2.3220    3.4510 c1        1 JST     -0.133000
      8 C5          5.8710   -1.8320    4.4290 c1        1 JST     -0.173000
      9 C6          3.9280   -0.0120    1.8590 c2        1 JST     -0.071000
     10 C7          2.5220    0.2120    1.4900 c2        1 JST     -0.115000
     11 C8          2.1340   -0.2270    0.1200 c3        1 JST     -0.281000
     12 C9         -0.3010    0.7850    1.0180 c2        1 JST     -0.052000
     13 C11        -3.2490    2.2720   -0.5130 c3        1 JST     -0.173000
     14 C12        -4.1390    2.6060    0.6660 c3        1 JST     -0.241000
     15 C13        -3.6020    3.4340    1.7230 c1        1 JST     -0.051000
     16 HN2         0.0650    1.5860    2.9150 hn        1 JST      0.274000
     17 H1          5.9630   -0.2960    1.2780 ha        1 JST      0.135500
     18 H2          4.7570   -0.1500   -0.1280 ha        1 JST      0.135500
     19 H4          6.3030   -1.3950    5.2940 ha        1 JST      0.230000
     20 H5          4.1550   -0.0100    2.9430 ha        1 JST      0.155000
     21 H82         2.6230    0.4400   -0.6360 h1        1 JST      0.145500
     22 H81         2.5050   -1.2760   -0.0520 h1        1 JST      0.145500
     23 H101       -2.9210    0.1800   -0.0320 h1        1 JST      0.092500
     24 H102       -1.6930    0.9070   -1.1630 h1        1 JST      0.092500
     25 H111       -2.6590    3.1780   -0.8110 hc        1 JST      0.085500
     26 H112       -3.8770    1.9740   -1.3940 hc        1 JST      0.085500
     27 H12        -4.5010    1.6540    1.1570 hc        1 JST      0.142500
     28 H131       -5.0670    3.1400    0.3040 hc        1 JST      0.142500
     29 H132       -2.5900    3.8410    1.5800 ha        1 JST      0.042000
     30 N3         -1.4720    1.3370    0.9200 n2        1 JST     -0.228000
     31 CL1         4.7400   -4.6350    2.3320 cl        1 JST      0.023000
     32 C10        -2.3020    1.1050   -0.2280 c3        1 JST     -0.083000
@<TRIPOS>BOND
     1    1   11 1   
     2    1   12 1   
     3    2    3 1   
     4    2   10 1   
     5    3   12 1   
     6    3   16 1   
     7    4    9 1   
     8    4   17 1   
     9    4   18 1   
    10    5    6 1   
    11    6    7 1   
    12    6   31 1   
    13    7    8 1   
    14    8   19 1   
    15    9   10 1   
    16    9   20 1   
    17   10   11 1   
    18   11   21 1   
    19   11   22 1   
    20   12   30 1   
    21   13   14 1   
    22   13   25 1   
    23   13   26 1   
    24   13   32 1   
    25   14   15 1   
    26   14   27 1   
    27   14   28 1   
    28   15   29 1   
    29   23   32 1   
    30   24   32 1   
    31   30   32 1   
@<TRIPOS>SUBSTRUCTURE
     1 JST         1 TEMP              0 ****  ****    0 ROOT
