@<TRIPOS>MOLECULE
JST
   32    28     1     0     0
SMALL
bcc


@<TRIPOS>ATOM
      1 S1         -0.1880   -0.1740   -0.4010 ss        1 JST      0.157000
      2 CL1         7.0260    1.7040    2.7040 cl        1 JST     -0.009000
      3 N1          0.0260    0.5450    2.4010 n1        1 JST     -0.042000
      4 N2         -1.3370   -0.1120    1.8070 n2        1 JST     -0.205000
      5 N3         -2.5990   -0.6260   -0.1160 n1        1 JST     -0.214000
      6 C1          3.2120    2.5190    1.7700 c1        1 JST     -0.108000
      7 C2          4.5590    2.6550    2.0910 c1        1 JST     -0.127000
      8 C3          5.3180    1.5370    2.3720 c2        1 JST     -0.052000
      9 C4          4.7380    0.2750    2.3320 c2        1 JST     -0.128000
     10 C5          3.3960    0.1380    2.0120 c1        1 JST     -0.087000
     11 C6          2.6330    1.2600    1.7300 c1        1 JST     -0.033000
     12 C7          1.1580    1.1020    1.3030 c2        1 JST     -0.059000
     13 C8          0.8060    0.9850   -0.1610 c3        1 JST     -0.276000
     14 C9         -1.4680   -0.1870    0.4220 c2        1 JST     -0.068000
     15 C10        -2.6140   -1.0920   -1.4900 c2        1 JST     -0.078000
     16 C11        -4.0240   -1.5400   -1.8630 c3        1 JST     -0.127000
     17 C12        -4.0200   -2.1110   -3.2980 c2        1 JST     -0.167000
     18 C13        -5.1900   -2.2320   -3.9880 c1        1 JST     -0.218000
     19 HN2        -1.8740   -0.6240    2.3480 hn        1 JST      0.249000
     20 H1          2.6760    3.3090    1.5720 ha        1 JST      0.139000
     21 H2          4.9680    3.5470    2.1190 ha        1 JST      0.150000
     22 H4          5.2770   -0.5180    2.5310 ha        1 JST      0.152000
     23 H5          2.9910   -0.7460    1.9840 ha        1 JST      0.152000
     24 H82         0.5450    1.7620   -0.6910 h1        1 JST      0.137000
     25 H81         1.6660    0.7800   -0.5800 h1        1 JST      0.137000
     26 H101       -2.3350   -0.3650   -2.0830 ha        1 JST      0.091000
     27 H102       -1.9980   -1.8440   -1.5840 ha        1 JST      0.091000
     28 H111       -4.6330   -0.7740   -1.8180 hc        1 JST      0.099500
     29 H112       -4.3230   -2.2310   -1.2380 hc        1 JST      0.099500
     30 H12        -3.1770   -2.3860   -3.7120 ha        1 JST      0.119000
     31 H131       -6.0300   -1.9580   -3.5750 DU        1 JST      0.113000
     32 H132       -5.1870   -2.5970   -4.9020 ha        1 JST      0.112000
@<TRIPOS>BOND
     1    1   13 1   
     2    1   14 1   
     3    2    8 1   
     4    3   12 1   
     5    4   14 1   
     6    4   19 1   
     7    5   14 1   
     8    6   11 1   
     9    6   20 1   
    10    7    8 1   
    11    7   21 1   
    12    8    9 1   
    13    9   10 1   
    14    9   22 1   
    15   10   23 1   
    16   11   12 1   
    17   12   13 1   
    18   13   24 1   
    19   13   25 1   
    20   15   16 1   
    21   15   26 1   
    22   15   27 1   
    23   16   17 1   
    24   16   28 1   
    25   16   29 1   
    26   17   18 1   
    27   17   30 1   
    28   18   32 1   
@<TRIPOS>SUBSTRUCTURE
     1 JST         1 TEMP              0 ****  ****    0 ROOT
