@<TRIPOS>MOLECULE
JST
   32    33     1     0     0
SMALL
bcc


@<TRIPOS>ATOM
      1 S1         -1.0350    0.3360    1.8410 ss        1 JST     -0.255300
      2 N1          1.6590   -0.8960    2.6160 n2        1 JST     -0.415400
      3 N2          0.9910   -0.2520    3.5710 nh        1 JST     -0.475300
      4 C1          2.6510   -0.6910   -0.8260 ca        1 JST     -0.097500
      5 C2          3.4240   -1.3260   -1.7950 ca        1 JST     -0.127500
      6 C3          3.8090   -2.6580   -1.6080 ca        1 JST      0.026400
      7 C4          3.4280   -3.3510   -0.4560 ca        1 JST     -0.127500
      8 C5          2.6560   -2.7090    0.5120 ca        1 JST     -0.097500
      9 C6          2.2600   -1.3790    0.3310 ca        1 JST     -0.116900
     10 C7          1.4330   -0.6890    1.3380 ce        1 JST      0.385900
     11 C8          0.3860    0.2260    0.7950 c3        1 JST     -0.088600
     12 C9         -0.4020    0.0920    3.4580 c2        1 JST      0.595100
     13 C11        -2.9120    1.4260    5.7270 c3        1 JST     -0.039200
     14 C12        -2.9080    0.5670    6.9340 c2        1 JST     -0.152200
     15 C13        -2.5390    0.9900    8.1410 c2        1 JST     -0.223000
     16 HN2         1.2490   -0.6350    4.4740 hn        1 JST      0.454800
     17 H1          2.3550    0.3590   -0.9710 ha        1 JST      0.145500
     18 H2          3.7300   -0.7790   -2.7000 ha        1 JST      0.151000
     19 H4          3.7350   -4.3980   -0.3090 ha        1 JST      0.151000
     20 H5          2.3620   -3.2580    1.4200 ha        1 JST      0.145500
     21 H82         0.8300    1.2450    0.6530 h1        1 JST      0.097200
     22 H81         0.0080   -0.1330   -0.1960 h1        1 JST      0.097200
     23 H101       -2.6600    1.3460    3.5760 h1        1 JST      0.050700
     24 H102       -3.1350   -0.2370    4.3440 h1        1 JST      0.050700
     25 H111       -3.9600    1.7910    5.5440 hc        1 JST      0.053700
     26 H112       -2.2630    2.3280    5.8780 hc        1 JST      0.053700
     27 H12        -3.2410   -0.4720    6.7720 ha        1 JST      0.119000
     28 H131       -2.5600    0.3350    9.0220 ha        1 JST      0.110500
     29 H132       -2.1890    2.0130    8.3330 ha        1 JST      0.110500
     30 N3         -1.1110    0.2270    4.5350 n2        1 JST     -0.618900
     31 CL1         4.7480   -3.4360   -2.7910 cl        1 JST     -0.087400
     32 C10        -2.4750    0.6720    4.4680 c3        1 JST      0.125800
@<TRIPOS>BOND
     1    1   11 1   
     2    1   12 1   
     3    2    3 1   
     4    2   10 2   
     5    3   12 1   
     6    3   16 1   
     7    4    5 ar  
     8    4    9 ar  
     9    4   17 1   
    10    5    6 ar  
    11    5   18 1   
    12    6    7 ar  
    13    6   31 1   
    14    7    8 ar  
    15    7   19 1   
    16    8    9 ar  
    17    8   20 1   
    18    9   10 1   
    19   10   11 1   
    20   11   21 1   
    21   11   22 1   
    22   12   30 2   
    23   13   14 1   
    24   13   25 1   
    25   13   26 1   
    26   13   32 1   
    27   14   15 2   
    28   14   27 1   
    29   15   28 1   
    30   15   29 1   
    31   23   32 1   
    32   24   32 1   
    33   30   32 1   
@<TRIPOS>SUBSTRUCTURE
     1 JST         1 TEMP              0 ****  ****    0 ROOT
