@<TRIPOS>MOLECULE
JST
   32    30     1     0     0
SMALL
bcc


@<TRIPOS>ATOM
      1 S1          0.5690   -0.4140   -0.5140 ss        1 JST      0.167000
      2 N1          1.5950    0.6840    2.1840 n2        1 JST     -0.002000
      3 N2          0.3100    0.7680    1.9130 n7        1 JST     -0.223000
      4 C1          4.9520   -0.0220    1.0400 c2        1 JST     -0.184000
      5 C2          4.4840   -2.2210    1.2650 c1        1 JST      0.152000
      6 C3          4.9340   -2.7560    2.4100 c2        1 JST     -0.238000
      7 C4          5.3590   -2.1170    3.5790 c1        1 JST     -0.132000
      8 C5          5.7260   -1.5900    4.5900 c1        1 JST     -0.174000
      9 C6          3.8790    0.0750    1.8500 c2        1 JST     -0.071000
     10 C7          2.4980    0.1940    1.3610 c2        1 JST     -0.113000
     11 C8          2.2630   -0.2710   -0.0350 c3        1 JST     -0.282000
     12 C9         -0.3030    0.5730    0.6380 c2        1 JST     -0.058000
     13 C11        -3.1520    1.9080   -1.1690 c3        1 JST     -0.205000
     14 C12        -3.9790    3.1770    2.4670 c1        1 JST     -0.224000
     15 C13        -4.6780    3.8430    3.1730 c1        1 JST     -0.224000
     16 HN2        -0.1630    1.3860    2.5570 hn        1 JST      0.270000
     17 H1          5.9730   -0.0590    1.4490 ha        1 JST      0.135500
     18 H2          4.8860   -0.0050   -0.0570 ha        1 JST      0.135500
     19 H4          6.0490   -1.1210    5.4850 ha        1 JST      0.230000
     20 H5          4.0120    0.0960    2.9500 ha        1 JST      0.155000
     21 H82         2.7740    0.4260   -0.7500 h1        1 JST      0.145000
     22 H81         2.7170   -1.2930   -0.1660 h1        1 JST      0.145000
     23 H101       -2.7870   -0.1640   -0.6510 h1        1 JST      0.091500
     24 H102       -1.4860    0.6110   -1.6610 h1        1 JST      0.091500
     25 H111       -2.6000    2.8550   -1.3790 hc        1 JST      0.082667
     26 H112       -3.7080    1.6050   -2.0880 hc        1 JST      0.082667
     27 H12        -3.3570    2.5850    1.8400 ha        1 JST      0.224000
     28 H131       -5.2990    4.4330    3.7980 ha        1 JST      0.224000
     29 H132       -3.8880    2.1020   -0.3520 hc        1 JST      0.082667
     30 N3         -1.4900    1.0560    0.4310 n2        1 JST     -0.223000
     31 Cl1         4.9850   -4.4740    2.4290 cl        1 JST      0.022000
     32 C10        -2.1930    0.7870   -0.7930 c3        1 JST     -0.084000
@<TRIPOS>BOND
     1    1   11 1   
     2    1   12 1   
     3    2    3 1   
     4    2   10 1   
     5    3   12 1   
     6    3   16 1   
     7    4    9 1   
     8    4   17 1   
     9    4   18 1   
    10    5    6 1   
    11    6    7 1   
    12    6   31 1   
    13    7    8 1   
    14    8   19 1   
    15    9   10 1   
    16    9   20 1   
    17   10   11 1   
    18   11   21 1   
    19   11   22 1   
    20   12   30 1   
    21   13   25 1   
    22   13   26 1   
    23   13   29 1   
    24   13   32 1   
    25   14   15 1   
    26   14   27 1   
    27   15   28 1   
    28   23   32 1   
    29   24   32 1   
    30   30   32 1   
@<TRIPOS>SUBSTRUCTURE
     1 JST         1 TEMP              0 ****  ****    0 ROOT
