@<TRIPOS>MOLECULE
JSZ
   49    50     1     0     0
SMALL
bcc


@<TRIPOS>ATOM
      1 C1          3.8630   -1.3620   -0.6470 c         1 JSZ      0.678300
      2 N1         -6.0380   -0.3050    0.5730 n3        1 JSZ     -0.811200
      3 O1          3.6630   -2.5490   -0.9270 o         1 JSZ     -0.544000
      4 C2          6.1550   -1.8190   -1.0950 c3        1 JSZ      0.138400
      5 O2          5.1380   -0.8760   -0.7050 os        1 JSZ     -0.416900
      6 C3          7.4570   -1.0560   -1.0830 c3        1 JSZ     -0.100100
      7 O3          3.3450    0.9240    0.0370 os        1 JSZ     -0.163200
      8 C4          2.8710   -0.3800   -0.2470 cc        1 JSZ     -0.064100
      9 C5          1.5020   -0.4820   -0.0740 cd        1 JSZ      0.022600
     10 O5         -3.6010   -0.7660    2.1110 oh        1 JSZ     -0.584800
     11 C6          0.6550   -1.6560   -0.2810 c3        1 JSZ     -0.058900
     12 C7          1.0530    0.8310    0.3540 ca        1 JSZ     -0.162800
     13 C8          2.2200    1.6520    0.4050 ca        1 JSZ      0.115100
     14 C9          2.1990    2.9950    0.7800 ca        1 JSZ     -0.165000
     15 C10         0.9570    3.5220    1.1160 ca        1 JSZ     -0.059000
     16 C11        -0.2160    2.7530    1.0840 ca        1 JSZ     -0.241000
     17 C12        -0.1810    1.4060    0.7060 ca        1 JSZ      0.194100
     18 C13        -2.5240    1.1470    1.0520 c3        1 JSZ      0.098400
     19 C14        -3.5540    0.0190    0.9350 c3        1 JSZ      0.090100
     20 C15        -4.9380    0.6240    0.6170 c3        1 JSZ      0.133800
     21 C16        -6.1520   -1.0640   -0.6750 c3        1 JSZ      0.170500
     22 C17        -6.8800   -2.3940   -0.4730 c3        1 JSZ     -0.095100
     23 C18        -6.8850   -0.2650   -1.7550 c3        1 JSZ     -0.095100
     24 HN1        -5.9840   -0.9370    1.3530 hn        1 JSZ      0.371800
     25 H2          6.1580   -2.6680   -0.3620 h1        1 JSZ      0.052700
     26 H2A         5.9070   -2.2150   -2.1140 h1        1 JSZ      0.052700
     27 H3          7.4160   -0.2010   -1.8000 hc        1 JSZ      0.049367
     28 H3A         7.6650   -0.6490   -0.0650 hc        1 JSZ      0.049367
     29 H3B         8.2840   -1.7440   -1.3800 hc        1 JSZ      0.049367
     30 HO5        -3.8800   -0.1920    2.8350 ho        1 JSZ      0.398000
     31 H6         -0.1300   -1.7110    0.5160 hc        1 JSZ      0.068367
     32 H6A         0.1360   -1.5790   -1.2720 hc        1 JSZ      0.068367
     33 H6B         1.2660   -2.5950   -0.2730 hc        1 JSZ      0.068367
     34 H9          3.1180    3.5940    0.8050 ha        1 JSZ      0.158000
     35 H10         0.8860    4.5790    1.4200 ha        1 JSZ      0.139000
     36 H11        -1.1650    3.2300    1.3630 ha        1 JSZ      0.139000
     37 H13        -2.4430    1.5090    2.1100 h1        1 JSZ      0.049200
     38 H13A       -2.7830    1.9990    0.3720 h1        1 JSZ      0.049200
     39 H14        -3.2340   -0.7100    0.1360 h1        1 JSZ      0.101700
     40 H15        -4.8680    1.1690   -0.3650 h1        1 JSZ      0.056700
     41 H15A       -5.1830    1.3770    1.4200 h1        1 JSZ      0.056700
     42 H16        -5.1190   -1.3060   -1.0800 h1        1 JSZ      0.019700
     43 H17        -7.9170   -2.2270   -0.0960 hc        1 JSZ      0.039700
     44 H17A       -6.9380   -2.9290   -1.4500 hc        1 JSZ      0.039700
     45 H17B       -6.3330   -3.0410    0.2540 hc        1 JSZ      0.039700
     46 H18        -6.9210   -0.8700   -2.6920 hc        1 JSZ      0.039700
     47 H18A       -7.9280   -0.0320   -1.4360 hc        1 JSZ      0.039700
     48 H18B       -6.3570    0.6950   -1.9710 hc        1 JSZ      0.039700
     49 O4         -1.2760    0.5750    0.6410 os        1 JSZ     -0.313900
@<TRIPOS>BOND
     1    1    3 2   
     2    1    5 1   
     3    1    8 1   
     4    2   20 1   
     5    2   21 1   
     6    2   24 1   
     7    4    5 1   
     8    4    6 1   
     9    4   25 1   
    10    4   26 1   
    11    6   27 1   
    12    6   28 1   
    13    6   29 1   
    14    7    8 1   
    15    7   13 1   
    16    8    9 2   
    17    9   11 1   
    18    9   12 1   
    19   10   19 1   
    20   10   30 1   
    21   11   31 1   
    22   11   32 1   
    23   11   33 1   
    24   12   13 ar  
    25   12   17 ar  
    26   13   14 ar  
    27   14   15 ar  
    28   14   34 1   
    29   15   16 ar  
    30   15   35 1   
    31   16   17 ar  
    32   16   36 1   
    33   17   49 1   
    34   18   19 1   
    35   18   37 1   
    36   18   38 1   
    37   18   49 1   
    38   19   20 1   
    39   19   39 1   
    40   20   40 1   
    41   20   41 1   
    42   21   22 1   
    43   21   23 1   
    44   21   42 1   
    45   22   43 1   
    46   22   44 1   
    47   22   45 1   
    48   23   46 1   
    49   23   47 1   
    50   23   48 1   
@<TRIPOS>SUBSTRUCTURE
     1 JSZ         1 TEMP              0 ****  ****    0 ROOT
