@<TRIPOS>MOLECULE
JSZ
   49    45     1     0     0
SMALL
bcc


@<TRIPOS>ATOM
      1 C1          0.1640    0.0960    5.2430 c1        1 JSZ      0.379000
      2 N1          1.4730   -0.8490   -4.7970 n3        1 JSZ     -0.298000
      3 O1          1.0100   -0.7390    5.4310 o         1 JSZ     -0.355000
      4 C2          0.5650    0.8030    7.4960 c3        1 JSZ     -0.012000
      5 O2         -0.2050    0.9710    6.2820 o         1 JSZ     -0.255000
      6 C3         -0.0000    1.7320    8.6000 c3        1 JSZ     -0.219000
      7 O3         -1.8080    0.1980    4.0040 os        1 JSZ     -0.073000
      8 C4         -0.4470    0.2570    3.8680 c2        1 JSZ     -0.084000
      9 O4         -0.6110   -0.4020   -0.4040 os        1 JSZ     -0.219000
     10 C5         -0.1490    0.2130    2.5210 c1        1 JSZ      0.009000
     11 O5          0.3410   -2.1000   -2.4600 oh        1 JSZ     -0.325000
     12 C6          1.4110    0.4250    2.3390 c2        1 JSZ     -0.176000
     13 C7         -1.3280    0.1270    1.8270 c1        1 JSZ     -0.152000
     14 C8         -2.3600    0.1180    2.7390 c1        1 JSZ      0.070000
     15 C9         -3.7330    0.1560    2.2750 c1        1 JSZ     -0.163000
     16 C10        -4.0010    0.2010    0.9110 c1        1 JSZ     -0.147500
     17 C11        -2.9380    0.2100   -0.0190 c1        1 JSZ     -0.147500
     18 C12        -1.6100    0.1740    0.4310 c1        1 JSZ      0.150000
     19 C13        -0.7400   -0.0640   -1.7900 c3        1 JSZ     -0.060000
     20 C14         0.4110   -0.7070   -2.5800 c3        1 JSZ     -0.013000
     21 C15         0.2970   -0.3140   -4.0350 c3        1 JSZ     -0.057000
     22 C16         1.3570   -0.4800   -6.1840 c3        1 JSZ     -0.025000
     23 C17         2.5430    0.3620   -6.5810 c3        1 JSZ     -0.229500
     24 C18         1.3180   -1.7770   -7.0650 c3        1 JSZ     -0.229500
     25 HN1         2.2870   -0.4820   -4.4340 hn        1 JSZ      0.176000
     26 H2          0.5090   -0.1010    7.7850 h1        1 JSZ      0.092000
     27 H2A         1.4700    1.0250    7.3290 h1        1 JSZ      0.092000
     28 H3          0.0230    2.6160    8.3050 hc        1 JSZ      0.088667
     29 H3A         0.5570    1.6420    9.4280 hc        1 JSZ      0.088667
     30 H3B        -0.9500    1.4720    8.8050 hc        1 JSZ      0.088667
     31 HO5         1.0140   -2.3920   -1.8980 ho        1 JSZ      0.215000
     32 H6          1.8690   -0.3780    2.5670 ha        1 JSZ      0.104333
     33 H6A         1.7130    1.1490    2.9200 ha        1 JSZ      0.104333
     34 H6B         1.5970    0.6500    1.4290 ha        1 JSZ      0.104333
     35 H9         -4.4970    0.1480    2.9420 ha        1 JSZ      0.159000
     36 H10        -4.9500    0.2290    0.5850 ha        1 JSZ      0.141000
     37 H11        -3.1260    0.2410   -0.9710 ha        1 JSZ      0.141000
     38 H13        -0.7030    0.8880   -1.8930 h1        1 JSZ      0.095500
     39 H13A       -1.6110   -0.4020   -2.1360 h1        1 JSZ      0.095500
     40 H14         1.2380   -0.4040   -2.2360 h1        1 JSZ      0.092000
     41 H15         0.2800    0.6250   -4.1030 h1        1 JSZ      0.096500
     42 H15A       -0.5240   -0.6790   -4.4060 h1        1 JSZ      0.096500
     43 H16         0.5420    0.0280   -6.3170 h1        1 JSZ      0.091000
     44 H17         3.3450   -0.1230   -6.4190 hc        1 JSZ      0.078000
     45 H17A        2.4810    0.5830   -7.5390 hc        1 JSZ      0.078000
     46 H17B        2.5480    1.2190   -6.0320 hc        1 JSZ      0.078000
     47 H18         0.4170   -2.2250   -6.9700 hc        1 JSZ      0.078000
     48 H18A        1.4720   -1.5320   -8.0340 hc        1 JSZ      0.078000
     49 H18B        2.0380   -2.4090   -6.7600 hc        1 JSZ      0.078000
@<TRIPOS>BOND
     1    1    3 1   
     2    1    8 1   
     3    2   21 1   
     4    2   22 1   
     5    2   25 1   
     6    4    5 1   
     7    4    6 1   
     8    4   26 1   
     9    4   27 1   
    10    6   28 1   
    11    6   29 1   
    12    6   30 1   
    13    7    8 1   
    14    7   14 1   
    15    8   10 1   
    16    9   18 1   
    17    9   19 1   
    18   10   13 1   
    19   11   20 1   
    20   11   31 1   
    21   12   32 1   
    22   12   33 1   
    23   12   34 1   
    24   13   18 1   
    25   14   15 1   
    26   15   35 1   
    27   16   17 1   
    28   16   36 1   
    29   17   37 1   
    30   19   20 1   
    31   19   38 1   
    32   19   39 1   
    33   20   21 1   
    34   20   40 1   
    35   21   41 1   
    36   21   42 1   
    37   22   23 1   
    38   22   24 1   
    39   22   43 1   
    40   23   44 1   
    41   23   45 1   
    42   23   46 1   
    43   24   47 1   
    44   24   48 1   
    45   24   49 1   
@<TRIPOS>SUBSTRUCTURE
     1 JSZ         1 TEMP              0 ****  ****    0 ROOT
