@<TRIPOS>MOLECULE
JSZ
   50    51     1     0     0
SMALL
bcc


@<TRIPOS>ATOM
      1 C1          0.1420    0.1720   -0.0540 c2        1 JSZ      0.376000
      2 N1          2.5390    0.4390   -9.9210 n4        1 JSZ      0.153000
      3 O1          1.2220    0.6300    0.3230 o         1 JSZ     -0.315000
      4 C2         -0.4570   -0.0280    2.2410 c3        1 JSZ     -0.010000
      5 O2         -0.8050   -0.2030    0.8450 os        1 JSZ     -0.257000
      6 C3         -1.6510   -0.5110    3.0250 c3        1 JSZ     -0.223000
      7 O3         -1.5620   -0.5430   -1.6640 os        1 JSZ     -0.009000
      8 C4         -0.2580   -0.0220   -1.4440 c2        1 JSZ     -0.081000
      9 C5          0.3910    0.2140   -2.6460 c2        1 JSZ      0.048000
     10 O5          2.9130   -0.3950   -7.2260 oh        1 JSZ     -0.368000
     11 C6          1.7450    0.7290   -2.8480 c3        1 JSZ     -0.195000
     12 C7         -0.5530   -0.1700   -3.6820 c2        1 JSZ     -0.249000
     13 C8         -1.7160   -0.6230   -3.0140 c2        1 JSZ      0.115000
     14 C9         -2.9360   -1.1150   -3.6620 c3        1 JSZ     -0.148000
     15 C10        -2.8020   -1.0760   -5.1380 c2        1 JSZ      0.005000
     16 C11        -1.7010   -0.6430   -5.7960 c2        1 JSZ     -0.262000
     17 C12        -0.5220   -0.1670   -5.0990 c2        1 JSZ      0.356000
     18 C13         0.6590    0.2780   -7.1520 c3        1 JSZ     -0.055000
     19 C14         2.0960    0.7550   -7.4650 c3        1 JSZ      0.178000
     20 C15         2.1840    1.2580   -8.8270 c2        1 JSZ     -0.800000
     21 C16         1.4980    0.3500  -11.0180 c3        1 JSZ     -0.104000
     22 C17         2.1150   -0.1220  -12.3280 c3        1 JSZ     -0.233000
     23 C18         0.3430   -0.5590  -10.6300 c3        1 JSZ     -0.233000
     24 HN1         3.3860    0.8190  -10.3610 hn        1 JSZ      0.204000
     25 H2          0.4640   -0.6310    2.4530 h1        1 JSZ      0.103000
     26 H2A        -0.2410    1.0580    2.4170 h1        1 JSZ      0.103000
     27 H3         -1.4340   -0.3970    4.1140 hc        1 JSZ      0.096667
     28 H3A        -1.8610   -1.5850    2.8040 hc        1 JSZ      0.096667
     29 H3B        -2.5590    0.0860    2.7690 hc        1 JSZ      0.096667
     30 HO5         3.8240   -0.0800   -7.2010 ho        1 JSZ      0.219000
     31 H6          1.7640    1.4560   -3.6990 hc        1 JSZ      0.125333
     32 H6A         2.4390   -0.1160   -3.0970 hc        1 JSZ      0.125333
     33 H6B         2.1210    1.2300   -1.9180 hc        1 JSZ      0.125333
     34 H9         -3.8260   -0.4950   -3.3390 hc        1 JSZ      0.190000
     35 H10        -3.1550   -2.1740   -3.3230 hc        1 JSZ      0.190000
     36 H11        -3.6860   -1.4310   -5.7010 ha        1 JSZ      0.179000
     37 H13        -1.6780   -0.6400   -6.9000 ha        1 JSZ      0.180000
     38 H13A        0.4800   -0.7610   -7.5220 h1        1 JSZ      0.115000
     39 H14        -0.0890    1.0100   -7.5450 h1        1 JSZ      0.115000
     40 H15         2.3580    1.5740   -6.7350 h1        1 JSZ      0.093000
     41 H15A        2.0000    2.3080   -9.0430 hx        1 JSZ      0.165000
     42 H16         1.1030    1.4020  -11.1500 hx        1 JSZ      0.137000
     43 H17         2.9330    0.5620  -12.6620 hc        1 JSZ      0.095333
     44 H17A        1.3230   -0.1270  -13.1160 hc        1 JSZ      0.095333
     45 H17B        2.5240   -1.1570  -12.2340 hc        1 JSZ      0.095333
     46 H18        -0.4370   -0.5110  -11.4280 hc        1 JSZ      0.095333
     47 H18A       -0.1120   -0.2260   -9.6660 hc        1 JSZ      0.095333
     48 H18B        0.6800   -1.6190  -10.5270 hc        1 JSZ      0.095333
     49 O4          0.5710    0.2750   -5.6920 os        1 JSZ     -0.119000
     50 H12         2.7460   -0.5060   -9.5860 hn        1 JSZ      0.204000
@<TRIPOS>BOND
     1    1    3 1   
     2    1    5 1   
     3    1    8 1   
     4    2   20 1   
     5    2   21 1   
     6    2   24 1   
     7    2   50 1   
     8    4    5 1   
     9    4    6 1   
    10    4   25 1   
    11    4   26 1   
    12    6   27 1   
    13    6   28 1   
    14    6   29 1   
    15    7    8 1   
    16    7   13 1   
    17    8    9 1   
    18    9   11 1   
    19    9   12 1   
    20   10   19 1   
    21   10   30 1   
    22   11   31 1   
    23   11   32 1   
    24   11   33 1   
    25   12   13 1   
    26   12   17 1   
    27   13   14 1   
    28   14   15 1   
    29   14   34 1   
    30   14   35 1   
    31   15   16 1   
    32   15   36 1   
    33   16   17 1   
    34   16   37 1   
    35   17   49 1   
    36   18   19 1   
    37   18   38 1   
    38   18   39 1   
    39   18   49 1   
    40   19   20 1   
    41   19   40 1   
    42   20   41 1   
    43   21   22 1   
    44   21   23 1   
    45   21   42 1   
    46   22   43 1   
    47   22   44 1   
    48   22   45 1   
    49   23   46 1   
    50   23   47 1   
    51   23   48 1   
@<TRIPOS>SUBSTRUCTURE
     1 JSZ         1 TEMP              0 ****  ****    0 ROOT
