@<TRIPOS>MOLECULE
JSZ
   50    50     1     0     0
SMALL
bcc


@<TRIPOS>ATOM
      1 C1          0.0520    0.5580   -0.2860 c2        1 JSZ      0.368000
      2 N1          1.0470    0.8420  -10.4940 n8        1 JSZ     -0.383000
      3 O1          0.7290    1.5160    0.0930 o         1 JSZ     -0.308000
      4 C2         -0.6900    0.3020    1.9600 c3        1 JSZ     -0.010000
      5 O2         -0.7190   -0.1430    0.5790 os        1 JSZ     -0.248000
      6 C3         -1.6090   -0.6310    2.7060 c3        1 JSZ     -0.224000
      7 O3         -0.9250   -1.0120   -1.8950 os        1 JSZ     -0.048000
      8 C4         -0.0110    0.0650   -1.6660 c2        1 JSZ     -0.024000
      9 C5          0.6310    0.4600   -2.8030 c2        1 JSZ     -0.038000
     10 O5          2.9380    0.6950   -7.4660 oh        1 JSZ     -0.327000
     11 C6          1.6210    1.5220   -2.9710 c3        1 JSZ     -0.196000
     12 C7          0.2160   -0.4950   -3.9000 c3        1 JSZ     -0.136000
     13 C8         -0.9100   -1.2540   -3.2400 c2        1 JSZ      0.168000
     14 C9         -1.8370   -1.9890   -3.9380 c2        1 JSZ     -0.236000
     15 C10        -1.8850   -1.7920   -5.3320 c2        1 JSZ      0.125000
     16 C11        -1.0900   -0.8480   -5.9840 c2        1 JSZ     -0.328000
     17 C12        -0.1210   -0.1070   -5.2990 c2        1 JSZ      0.267000
     18 C13         0.6180    1.1330   -7.2260 c3        1 JSZ     -0.048000
     19 C14         1.9900    1.7510   -7.5210 c3        1 JSZ     -0.046000
     20 C15         2.0520    2.5250   -8.7610 c1        1 JSZ     -0.019000
     21 C16         1.0390   -0.6000  -10.7240 c3        1 JSZ     -0.040000
     22 C17         2.1680   -1.3020   -9.9700 c3        1 JSZ     -0.213500
     23 C18        -0.2970   -1.2340  -10.3380 c3        1 JSZ     -0.213500
     24 HN1         0.3100    1.2720  -11.0170 hn        1 JSZ      0.162000
     25 H2         -1.0420    1.3660    1.9930 h1        1 JSZ      0.104500
     26 H2A         0.3670    0.2440    2.3260 h1        1 JSZ      0.104500
     27 H3         -2.6460   -0.5760    2.2970 hc        1 JSZ      0.098667
     28 H3A        -1.2530   -1.6860    2.6260 hc        1 JSZ      0.098667
     29 H3B        -1.6240   -0.3320    3.7830 hc        1 JSZ      0.098667
     30 HO5         3.4000    0.6680   -8.3190 ho        1 JSZ      0.242000
     31 H6          1.3840    2.1360   -3.8770 hc        1 JSZ      0.128000
     32 H6A         1.6410    2.1880   -2.0670 hc        1 JSZ      0.128000
     33 H6B         2.6440    1.0810   -3.1060 hc        1 JSZ      0.128000
     34 H9          1.0980   -1.2220   -4.0300 hc        1 JSZ      0.235000
     35 H10        -2.5660   -2.6400   -3.4280 ha        1 JSZ      0.207000
     36 H11        -2.6370   -2.3560   -5.9190 ha        1 JSZ      0.186000
     37 H13        -1.2680   -0.6570   -7.0570 ha        1 JSZ      0.187000
     38 H13A        0.4930    0.1790   -7.8010 h1        1 JSZ      0.131500
     39 H14        -0.2200    1.8510   -7.4150 h1        1 JSZ      0.131500
     40 H15         2.2730    2.4710   -6.6820 h1        1 JSZ      0.155000
     41 H15A        1.2000    3.1860   -8.9750 ha        1 JSZ      0.068000
     42 H16         1.1960   -0.8190  -11.8280 h1        1 JSZ      0.076000
     43 H17         3.1640   -0.8990  -10.2790 hc        1 JSZ      0.078833
     44 H17A        2.0600   -1.1660   -8.8660 hc        1 JSZ      0.078833
     45 H17B        2.1400   -2.3930  -10.2020 hc        1 JSZ      0.078833
     46 H18        -0.2640   -2.3240  -10.5750 hc        1 JSZ      0.078833
     47 H18A       -1.1390   -0.7720  -10.9080 hc        1 JSZ      0.078833
     48 H18B       -0.4990   -1.1150   -9.2460 hc        1 JSZ      0.078833
     49 O4          0.6330    0.8700   -5.7940 os        1 JSZ     -0.146000
     50 H12         1.9260    1.2260  -10.7900 hn        1 JSZ      0.162000
@<TRIPOS>BOND
     1    1    3 1   
     2    1    5 1   
     3    1    8 1   
     4    2   21 1   
     5    2   24 1   
     6    2   50 1   
     7    4    5 1   
     8    4    6 1   
     9    4   25 1   
    10    4   26 1   
    11    6   27 1   
    12    6   28 1   
    13    6   29 1   
    14    7    8 1   
    15    7   13 1   
    16    8    9 1   
    17    9   11 1   
    18    9   12 1   
    19   10   19 1   
    20   10   30 1   
    21   11   31 1   
    22   11   32 1   
    23   11   33 1   
    24   12   13 1   
    25   12   17 1   
    26   12   34 1   
    27   13   14 1   
    28   14   15 1   
    29   14   35 1   
    30   15   16 1   
    31   15   36 1   
    32   16   17 1   
    33   16   37 1   
    34   17   49 1   
    35   18   19 1   
    36   18   38 1   
    37   18   39 1   
    38   18   49 1   
    39   19   20 1   
    40   19   40 1   
    41   20   41 1   
    42   21   22 1   
    43   21   23 1   
    44   21   42 1   
    45   22   43 1   
    46   22   44 1   
    47   22   45 1   
    48   23   46 1   
    49   23   47 1   
    50   23   48 1   
@<TRIPOS>SUBSTRUCTURE
     1 JSZ         1 TEMP              0 ****  ****    0 ROOT
