@<TRIPOS>MOLECULE
JT1
   71    76     1     0     0
SMALL
bcc


@<TRIPOS>ATOM
      1 N1          0.2230   -0.3340   -0.5420 nh        1 JT1     -0.661600
      2 N2          1.3940   -1.5670    1.8090 n3        1 JT1     -0.812500
      3 S3          2.0420   -2.4120    3.0770 sy        1 JT1      1.532200
      4 C4          2.2780   -3.9410    2.4750 ca        1 JT1     -0.401500
      5 O5          3.2880   -1.7530    3.3110 o         1 JT1     -0.665300
      6 O6          1.1480   -2.4370    4.1510 o         1 JT1     -0.665300
      7 C7          3.3080   -4.2230    1.5650 ca        1 JT1     -0.012500
      8 C8          3.5260   -5.5190    1.1060 ca        1 JT1     -0.103000
      9 C9          2.7050   -6.5550    1.5600 ca        1 JT1     -0.080300
     10 C10         1.6750   -6.2990    2.4670 ca        1 JT1     -0.103000
     11 C11         1.4660   -4.9980    2.9170 ca        1 JT1     -0.012500
     12 C12         1.9670   -0.3770    1.2320 c3        1 JT1      0.205500
     13 C13         1.6450   -0.1720   -0.2840 c3        1 JT1      0.170800
     14 C14        -0.2630   -1.6350   -0.0910 c3        1 JT1      0.159800
     15 C15         0.0320   -1.8430    1.4060 c3        1 JT1      0.214800
     16 C16         3.5110   -0.3800    1.2900 c         1 JT1      0.543100
     17 O17         4.2500   -1.0950    0.6320 o         1 JT1     -0.418100
     18 N18         4.1510    0.6060    2.2280 n4        1 JT1     -0.670800
     19 C19         5.4760    1.1130    1.7390 c3        1 JT1      0.177100
     20 C20         6.0950    2.0290    2.7380 ca        1 JT1     -0.184300
     21 C21         6.8550    1.5040    3.7870 ca        1 JT1     -0.076000
     22 C22         7.4690    2.3540    4.7050 ca        1 JT1     -0.158000
     23 C23         7.3240    3.7370    4.5730 ca        1 JT1      0.145100
     24 C24         6.5560    4.2830    3.5050 ca        1 JT1      0.139900
     25 C25         5.9440    3.4120    2.5930 ca        1 JT1     -0.124000
     26 C26        -0.1990    0.0320   -1.8420 cc        1 JT1      0.516100
     27 S27        -1.9170    0.1190   -2.1730 ss        1 JT1      0.069900
     28 N28         0.6090    0.4150   -2.8390 nd        1 JT1     -0.636700
     29 C29        -0.1790    0.8170   -3.9380 ca        1 JT1      0.597300
     30 C30        -1.6040    0.6890   -3.7080 ca        1 JT1     -0.383700
     31 C31        -2.4460    1.0580   -4.7820 ca        1 JT1      0.504200
     32 N32        -1.9650    1.5030   -5.9380 nb        1 JT1     -0.688000
     33 C33        -0.5860    1.6010   -6.0730 ca        1 JT1      0.711300
     34 N34         0.3310    1.2780   -5.1210 nb        1 JT1     -0.648000
     35 O35         7.8590    4.6850    5.4180 os        1 JT1     -0.351900
     36 C36         8.7370    4.3110    6.4610 c3        1 JT1      0.831700
     37 C40         2.9520   -7.9870    1.0710 c3        1 JT1      0.682200
     38 C44        -0.0510    2.1030   -7.3740 cx        1 JT1     -0.197000
     39 C45        -0.7520    1.7600   -8.6670 cx        1 JT1     -0.102900
     40 C46        -0.8030    3.1620   -8.1470 cx        1 JT1     -0.102900
     41 F37         8.1050    3.5350    7.3740 f         1 JT1     -0.196300
     42 F38         9.8240    3.6570    5.9860 f         1 JT1     -0.196300
     43 F39         9.1010    5.4860    7.0170 f         1 JT1     -0.196300
     44 F41         3.8410   -8.6830    1.8490 f         1 JT1     -0.219633
     45 F42         1.8240   -8.7660    1.0390 f         1 JT1     -0.219633
     46 F43         3.4650   -8.0590   -0.1990 f         1 JT1     -0.219633
     47 F47         6.4180    5.6170    3.3730 f         1 JT1     -0.091900
     48 H1          3.9640   -3.4080    1.2110 ha        1 JT1      0.165000
     49 H2          4.3370   -5.7310    0.3890 ha        1 JT1      0.178000
     50 H3          1.0320   -7.1230    2.8220 ha        1 JT1      0.178000
     51 H4          0.6580   -4.7980    3.6470 ha        1 JT1      0.165000
     52 H5          1.5660    0.5230    1.7970 h1        1 JT1      0.076700
     53 H6          1.9420    0.8790   -0.5550 h1        1 JT1      0.082700
     54 H7          2.2690   -0.8930   -0.8890 h1        1 JT1      0.082700
     55 H8         -1.3820   -1.6680   -0.2310 h1        1 JT1      0.074200
     56 H9          0.1940   -2.4780   -0.6850 h1        1 JT1      0.074200
     57 H10        -0.6680   -1.1920    2.0080 h1        1 JT1      0.073200
     58 H11        -0.1920   -2.9240    1.6480 h1        1 JT1      0.073200
     59 H12         3.5210    1.3950    2.3960 hn        1 JT1      0.477300
     60 H13         6.1360    0.2140    1.5530 hx        1 JT1      0.116700
     61 H14         5.3020    1.6390    0.7560 hx        1 JT1      0.116700
     62 H15         6.9880    0.4150    3.8910 ha        1 JT1      0.155000
     63 H16         8.0730    1.9340    5.5270 ha        1 JT1      0.178000
     64 H17         5.3670    3.8390    1.7580 ha        1 JT1      0.162000
     65 H18        -3.5470    0.9890   -4.6960 h4        1 JT1      0.042100
     66 H19         1.0590    2.1490   -7.3890 hc        1 JT1      0.110700
     67 H20        -0.1220    1.5290   -9.5460 hc        1 JT1      0.084450
     68 H21        -1.6690    1.1450   -8.6440 hc        1 JT1      0.084450
     69 H22        -1.7560    3.5540   -7.7500 hc        1 JT1      0.084450
     70 H23        -0.2090    3.9480   -8.6480 hc        1 JT1      0.084450
     71 H182        4.2930    0.1070    3.1290 hn        1 JT1      0.477300
@<TRIPOS>BOND
     1    1   13 1   
     2    1   14 1   
     3    1   26 1   
     4    2    3 1   
     5    2   12 1   
     6    2   15 1   
     7    3    4 1   
     8    3    5 2   
     9    3    6 2   
    10    4    7 ar  
    11    4   11 ar  
    12    7    8 ar  
    13    7   48 1   
    14    8    9 ar  
    15    8   49 1   
    16    9   10 ar  
    17    9   37 1   
    18   10   11 ar  
    19   10   50 1   
    20   11   51 1   
    21   12   13 1   
    22   12   16 1   
    23   12   52 1   
    24   13   53 1   
    25   13   54 1   
    26   14   15 1   
    27   14   55 1   
    28   14   56 1   
    29   15   57 1   
    30   15   58 1   
    31   16   17 2   
    32   16   18 1   
    33   18   19 1   
    34   18   59 1   
    35   18   71 1   
    36   19   20 1   
    37   19   60 1   
    38   19   61 1   
    39   20   21 ar  
    40   20   25 ar  
    41   21   22 ar  
    42   21   62 1   
    43   22   23 ar  
    44   22   63 1   
    45   23   24 ar  
    46   23   35 1   
    47   24   25 ar  
    48   24   47 1   
    49   25   64 1   
    50   26   27 1   
    51   26   28 2   
    52   27   30 1   
    53   28   29 1   
    54   29   30 ar  
    55   29   34 ar  
    56   30   31 ar  
    57   31   32 ar  
    58   31   65 1   
    59   32   33 ar  
    60   33   34 ar  
    61   33   38 1   
    62   35   36 1   
    63   36   41 1   
    64   36   42 1   
    65   36   43 1   
    66   37   44 1   
    67   37   45 1   
    68   37   46 1   
    69   38   39 1   
    70   38   40 1   
    71   38   66 1   
    72   39   40 1   
    73   39   67 1   
    74   39   68 1   
    75   40   69 1   
    76   40   70 1   
@<TRIPOS>SUBSTRUCTURE
     1 JT1         1 TEMP              0 ****  ****    0 ROOT
