@<TRIPOS>MOLECULE
JT1
   71    76     1     0     0
SMALL
bcc


@<TRIPOS>ATOM
      1 N1          0.2290   -0.3590   -0.5540 nh        1 JT1     -0.661600
      2 N2          1.4000   -1.5780    1.8030 n3        1 JT1     -0.812500
      3 S3          2.0440   -2.4060    3.0850 sy        1 JT1      1.532200
      4 C4          2.2930   -3.9400    2.5010 ca        1 JT1     -0.401500
      5 O5          3.2860   -1.7370    3.3200 o         1 JT1     -0.665300
      6 O6          1.1440   -2.4240    4.1530 o         1 JT1     -0.665300
      7 C7          3.3270   -4.2250    1.5970 ca        1 JT1     -0.012500
      8 C8          3.5560   -5.5250    1.1540 ca        1 JT1     -0.103000
      9 C9          2.7420   -6.5610    1.6170 ca        1 JT1     -0.080300
     10 C10         1.7070   -6.3020    2.5180 ca        1 JT1     -0.103000
     11 C11         1.4880   -4.9970    2.9530 ca        1 JT1     -0.012500
     12 C12         1.9670   -0.3860    1.2260 c3        1 JT1      0.205500
     13 C13         1.6480   -0.1850   -0.2920 c3        1 JT1      0.170800
     14 C14        -0.2470   -1.6650   -0.1060 c3        1 JT1      0.159800
     15 C15         0.0430   -1.8700    1.3930 c3        1 JT1      0.214800
     16 C16         3.5110   -0.3820    1.2870 c         1 JT1      0.543100
     17 O17         4.2560   -1.0990    0.6360 o         1 JT1     -0.418100
     18 N18         4.1450    0.6150    2.2160 n4        1 JT1     -0.670800
     19 C19         5.4730    1.1180    1.7310 c3        1 JT1      0.177100
     20 C20         6.0820    2.0480    2.7220 ca        1 JT1     -0.184300
     21 C21         6.8350    1.5400    3.7850 ca        1 JT1     -0.076000
     22 C22         7.4410    2.4030    4.6950 ca        1 JT1     -0.158000
     23 C23         7.2950    3.7840    4.5430 ca        1 JT1      0.145100
     24 C24         6.5350    4.3140    3.4600 ca        1 JT1      0.139900
     25 C25         5.9310    3.4290    2.5560 ca        1 JT1     -0.124000
     26 C26        -0.1930    0.0040   -1.8550 cc        1 JT1      0.516100
     27 S27        -1.9110    0.0720   -2.1920 ss        1 JT1      0.069900
     28 N28         0.6140    0.4000   -2.8480 nd        1 JT1     -0.636700
     29 C29        -0.1740    0.7960   -3.9480 ca        1 JT1      0.597300
     30 C30        -1.5990    0.6500   -3.7250 ca        1 JT1     -0.383700
     31 C31        -2.4410    1.0120   -4.8010 ca        1 JT1      0.504200
     32 N32        -1.9620    1.4670   -5.9540 nb        1 JT1     -0.688000
     33 C33        -0.5830    1.5810   -6.0830 ca        1 JT1      0.711300
     34 N34         0.3340    1.2660   -5.1280 nb        1 JT1     -0.648000
     35 O35         7.8210    4.7450    5.3780 os        1 JT1     -0.351900
     36 C36         8.6920    4.3870    6.4320 c3        1 JT1      0.831700
     37 C40         3.0000   -7.9960    1.1450 c3        1 JT1      0.682200
     38 C44        -0.0490    2.0940   -7.3800 cx        1 JT1     -0.197000
     39 C45        -0.7420    1.7480   -8.6770 cx        1 JT1     -0.102900
     40 C46        -0.8100    3.1470   -8.1520 cx        1 JT1     -0.102900
     41 F37         8.0540    3.6230    7.3520 f         1 JT1     -0.196300
     42 F38         9.7830    3.7280    5.9760 f         1 JT1     -0.196300
     43 F39         9.0490    5.5700    6.9750 f         1 JT1     -0.196300
     44 F41         3.8920   -8.6780    1.9350 f         1 JT1     -0.219633
     45 F42         1.8780   -8.7840    1.1190 f         1 JT1     -0.219633
     46 F43         3.5180   -8.0800   -0.1220 f         1 JT1     -0.219633
     47 F47         6.3960    5.6450    3.3080 f         1 JT1     -0.091900
     48 H1          3.9790   -3.4090    1.2350 ha        1 JT1      0.165000
     49 H2          4.3710   -5.7380    0.4410 ha        1 JT1      0.178000
     50 H3          1.0690   -7.1270    2.8810 ha        1 JT1      0.178000
     51 H4          0.6770   -4.7950    3.6780 ha        1 JT1      0.165000
     52 H5          1.5610    0.5120    1.7880 h1        1 JT1      0.076700
     53 H6          2.2810   -0.9010   -0.8950 h1        1 JT1      0.082700
     54 H7          1.9380    0.8690   -0.5620 h1        1 JT1      0.082700
     55 H8          0.2220   -2.5030   -0.6970 h1        1 JT1      0.074200
     56 H9         -1.3640   -1.7090   -0.2510 h1        1 JT1      0.074200
     57 H10        -0.6670   -1.2260    1.9920 h1        1 JT1      0.073200
     58 H11        -0.1690   -2.9530    1.6330 h1        1 JT1      0.073200
     59 H12         3.5130    1.4060    2.3710 hn        1 JT1      0.477300
     60 H13         6.1350    0.2170    1.5620 hx        1 JT1      0.116700
     61 H14         5.3060    1.6290    0.7400 hx        1 JT1      0.116700
     62 H15         6.9680    0.4520    3.9060 ha        1 JT1      0.155000
     63 H16         8.0380    1.9960    5.5280 ha        1 JT1      0.178000
     64 H17         5.3600    3.8430    1.7100 ha        1 JT1      0.162000
     65 H18        -3.5420    0.9300   -4.7190 h4        1 JT1      0.042100
     66 H19         1.0600    2.1520   -7.3910 hc        1 JT1      0.110700
     67 H20        -1.6530    1.1220   -8.6600 hc        1 JT1      0.084450
     68 H21        -0.1070    1.5280   -9.5540 hc        1 JT1      0.084450
     69 H22        -1.7690    3.5280   -7.7570 hc        1 JT1      0.084450
     70 H23        -0.2240    3.9420   -8.6480 hc        1 JT1      0.084450
     71 H182        4.2810    0.1270    3.1250 hn        1 JT1      0.477300
@<TRIPOS>BOND
     1    1   13 1   
     2    1   14 1   
     3    1   26 1   
     4    2    3 1   
     5    2   12 1   
     6    2   15 1   
     7    3    4 1   
     8    3    5 2   
     9    3    6 2   
    10    4    7 ar  
    11    4   11 ar  
    12    7    8 ar  
    13    7   48 1   
    14    8    9 ar  
    15    8   49 1   
    16    9   10 ar  
    17    9   37 1   
    18   10   11 ar  
    19   10   50 1   
    20   11   51 1   
    21   12   13 1   
    22   12   16 1   
    23   12   52 1   
    24   13   53 1   
    25   13   54 1   
    26   14   15 1   
    27   14   55 1   
    28   14   56 1   
    29   15   57 1   
    30   15   58 1   
    31   16   17 2   
    32   16   18 1   
    33   18   19 1   
    34   18   59 1   
    35   18   71 1   
    36   19   20 1   
    37   19   60 1   
    38   19   61 1   
    39   20   21 ar  
    40   20   25 ar  
    41   21   22 ar  
    42   21   62 1   
    43   22   23 ar  
    44   22   63 1   
    45   23   24 ar  
    46   23   35 1   
    47   24   25 ar  
    48   24   47 1   
    49   25   64 1   
    50   26   27 1   
    51   26   28 2   
    52   27   30 1   
    53   28   29 1   
    54   29   30 ar  
    55   29   34 ar  
    56   30   31 ar  
    57   31   32 ar  
    58   31   65 1   
    59   32   33 ar  
    60   33   34 ar  
    61   33   38 1   
    62   35   36 1   
    63   36   41 1   
    64   36   42 1   
    65   36   43 1   
    66   37   44 1   
    67   37   45 1   
    68   37   46 1   
    69   38   39 1   
    70   38   40 1   
    71   38   66 1   
    72   39   40 1   
    73   39   67 1   
    74   39   68 1   
    75   40   69 1   
    76   40   70 1   
@<TRIPOS>SUBSTRUCTURE
     1 JT1         1 TEMP              0 ****  ****    0 ROOT
