@<TRIPOS>MOLECULE
JT1
   71    76     1     0     0
SMALL
bcc


@<TRIPOS>ATOM
      1 N1          0.2240   -0.3630   -0.5470 nh        1 JT1     -0.661600
      2 N2          1.4050   -1.5850    1.8040 n3        1 JT1     -0.812500
      3 S3          2.0560   -2.4150    3.0800 sy        1 JT1      1.532200
      4 C4          2.3080   -3.9460    2.4890 ca        1 JT1     -0.401500
      5 O5          3.2960   -1.7440    3.3140 o         1 JT1     -0.665300
      6 O6          1.1590   -2.4410    4.1510 o         1 JT1     -0.665300
      7 C7          3.3400   -4.2250    1.5820 ca        1 JT1     -0.012500
      8 C8          3.5720   -5.5220    1.1330 ca        1 JT1     -0.103000
      9 C9          2.7620   -6.5620    1.5940 ca        1 JT1     -0.080300
     10 C10         1.7290   -6.3110    2.4990 ca        1 JT1     -0.103000
     11 C11         1.5070   -5.0080    2.9390 ca        1 JT1     -0.012500
     12 C12         1.9670   -0.3890    1.2280 c3        1 JT1      0.205500
     13 C13         1.6440   -0.1860   -0.2880 c3        1 JT1      0.170800
     14 C14        -0.2470   -1.6710   -0.1010 c3        1 JT1      0.159800
     15 C15         0.0480   -1.8790    1.3970 c3        1 JT1      0.214800
     16 C16         3.5110   -0.3800    1.2860 c         1 JT1      0.543100
     17 O17         4.2570   -1.0930    0.6310 o         1 JT1     -0.418100
     18 N18         4.1440    0.6150    2.2180 ny        1 JT1     -0.670800
     19 C19         5.4690    1.1250    1.7300 c3        1 JT1      0.177100
     20 C20         6.0770    2.0530    2.7240 ca        1 JT1     -0.184300
     21 C21         6.8350    1.5440    3.7820 ca        1 JT1     -0.076000
     22 C22         7.4400    2.4050    4.6940 ca        1 JT1     -0.158000
     23 C23         7.2880    3.7860    4.5480 ca        1 JT1      0.145100
     24 C24         6.5220    4.3180    3.4700 ca        1 JT1      0.139900
     25 C25         5.9190    3.4340    2.5640 ca        1 JT1     -0.124000
     26 C26        -0.2010    0.0020   -1.8460 cc        1 JT1      0.516100
     27 S27        -1.9200    0.0670   -2.1790 ss        1 JT1      0.069900
     28 N28         0.6020    0.4000   -2.8410 nd        1 JT1     -0.636700
     29 C29        -0.1890    0.7960   -3.9390 ca        1 JT1      0.597300
     30 C30        -1.6130    0.6480   -3.7120 ca        1 JT1     -0.383700
     31 C31        -2.4590    1.0100   -4.7850 ca        1 JT1      0.504200
     32 N32        -1.9830    1.4670   -5.9380 nb        1 JT1     -0.688000
     33 C33        -0.6050    1.5840   -6.0710 ca        1 JT1      0.711300
     34 N34         0.3150    1.2690   -5.1190 nb        1 JT1     -0.648000
     35 O35         7.8130    4.7460    5.3860 os        1 JT1     -0.351900
     36 C36         8.6880    4.3860    6.4370 c3        1 JT1      0.831700
     37 C40         3.0230   -7.9950    1.1160 c3        1 JT1      0.682200
     38 C44        -0.0760    2.1000   -7.3690 cx        1 JT1     -0.197000
     39 C45        -0.7720    1.7540   -8.6650 cx        1 JT1     -0.102900
     40 C46        -0.8400    3.1520   -8.1370 cx        1 JT1     -0.102900
     41 F37         8.0560    3.6160    7.3550 f         1 JT1     -0.196300
     42 F38         9.7810    3.7340    5.9740 f         1 JT1     -0.196300
     43 F39         9.0420    5.5690    6.9840 f         1 JT1     -0.196300
     44 F41         3.9180   -8.6770    1.9000 f         1 JT1     -0.219633
     45 F42         1.9030   -8.7860    1.0890 f         1 JT1     -0.219633
     46 F43         3.5380   -8.0720   -0.1540 f         1 JT1     -0.219633
     47 F47         6.3770    5.6490    3.3250 f         1 JT1     -0.091900
     48 H1          3.9890   -3.4050    1.2220 ha        1 JT1      0.165000
     49 H2          4.3850   -5.7300    0.4170 ha        1 JT1      0.178000
     50 H3          1.0940   -7.1380    2.8600 ha        1 JT1      0.178000
     51 H4          0.6970   -4.8110    3.6680 ha        1 JT1      0.165000
     52 H5          1.5590    0.5060    1.7930 h1        1 JT1      0.076700
     53 H6          2.2770   -0.8990   -0.8940 h1        1 JT1      0.082700
     54 H7          1.9300    0.8690   -0.5570 h1        1 JT1      0.082700
     55 H8         -1.3650   -1.7170   -0.2430 h1        1 JT1      0.074200
     56 H9          0.2220   -2.5070   -0.6950 h1        1 JT1      0.074200
     57 H10        -0.6620   -1.2380    1.9990 h1        1 JT1      0.073200
     58 H11        -0.1610   -2.9630    1.6350 h1        1 JT1      0.073200
     59 H12         3.5090    1.4030    2.3780 hn        1 JT1      0.477300
     60 H13         6.1340    0.2280    1.5560 hx        1 JT1      0.116700
     61 H14         5.2970    1.6400    0.7420 hx        1 JT1      0.116700
     62 H15         6.9730    0.4560    3.8970 ha        1 JT1      0.155000
     63 H16         8.0420    1.9970    5.5240 ha        1 JT1      0.178000
     64 H17         5.3440    3.8500    1.7220 ha        1 JT1      0.162000
     65 H18        -3.5590    0.9260   -4.7000 h4        1 JT1      0.042100
     66 H19         1.0340    2.1590   -7.3830 hc        1 JT1      0.110700
     67 H20        -1.6810    1.1270   -8.6460 hc        1 JT1      0.084450
     68 H21        -0.1380    1.5360   -9.5440 hc        1 JT1      0.084450
     69 H22        -0.2560    3.9490   -8.6340 hc        1 JT1      0.084450
     70 H23        -1.7980    3.5310   -7.7390 hc        1 JT1      0.084450
     71 H182        4.2840    0.1240    3.1240 hn        1 JT1      0.477300
@<TRIPOS>BOND
     1    1   13 1   
     2    1   14 1   
     3    1   26 1   
     4    2    3 1   
     5    2   12 1   
     6    2   15 1   
     7    3    4 1   
     8    3    5 2   
     9    3    6 2   
    10    4    7 ar  
    11    4   11 ar  
    12    7    8 ar  
    13    7   48 1   
    14    8    9 ar  
    15    8   49 1   
    16    9   10 ar  
    17    9   37 1   
    18   10   11 ar  
    19   10   50 1   
    20   11   51 1   
    21   12   13 1   
    22   12   16 1   
    23   12   52 1   
    24   13   53 1   
    25   13   54 1   
    26   14   15 1   
    27   14   55 1   
    28   14   56 1   
    29   15   57 1   
    30   15   58 1   
    31   16   17 2   
    32   16   18 1   
    33   18   19 1   
    34   18   59 1   
    35   18   71 1   
    36   19   20 1   
    37   19   60 1   
    38   19   61 1   
    39   20   21 ar  
    40   20   25 ar  
    41   21   22 ar  
    42   21   62 1   
    43   22   23 ar  
    44   22   63 1   
    45   23   24 ar  
    46   23   35 1   
    47   24   25 ar  
    48   24   47 1   
    49   25   64 1   
    50   26   27 1   
    51   26   28 2   
    52   27   30 1   
    53   28   29 1   
    54   29   30 ar  
    55   29   34 ar  
    56   30   31 ar  
    57   31   32 ar  
    58   31   65 1   
    59   32   33 ar  
    60   33   34 ar  
    61   33   38 1   
    62   35   36 1   
    63   36   41 1   
    64   36   42 1   
    65   36   43 1   
    66   37   44 1   
    67   37   45 1   
    68   37   46 1   
    69   38   39 1   
    70   38   40 1   
    71   38   66 1   
    72   39   40 1   
    73   39   67 1   
    74   39   68 1   
    75   40   69 1   
    76   40   70 1   
@<TRIPOS>SUBSTRUCTURE
     1 JT1         1 TEMP              0 ****  ****    0 ROOT
