@<TRIPOS>MOLECULE
JT1
   70    75     1     0     0
SMALL
bcc


@<TRIPOS>ATOM
      1 N1         -2.2800   -0.8730   -1.2550 nh        1 JT1     -0.680600
      2 N2         -0.3030    1.2000   -1.7060 n3        1 JT1     -0.810500
      3 S3          0.3950    2.6820   -1.6650 sy        1 JT1      1.508200
      4 C4         -0.7080    3.6360   -0.8130 ca        1 JT1     -0.364500
      5 O5          1.6090    2.5960   -0.9530 o         1 JT1     -0.647300
      6 O6          0.4700    3.1840   -2.9820 o         1 JT1     -0.647300
      7 C7         -0.7680    3.6110    0.5840 ca        1 JT1     -0.020500
      8 C8         -1.6540    4.4370    1.2780 ca        1 JT1     -0.111500
      9 C9         -2.4880    5.2980    0.5660 ca        1 JT1     -0.102300
     10 C10        -2.4410    5.3410   -0.8300 ca        1 JT1     -0.111500
     11 C11        -1.5540    4.5110   -1.5090 ca        1 JT1     -0.020500
     12 C12         0.0160    0.0400   -0.8990 c3        1 JT1      0.174500
     13 C13        -1.2390   -0.6310   -0.2670 c3        1 JT1      0.179800
     14 C14        -2.6010    0.2780   -2.0850 c3        1 JT1      0.169800
     15 C15        -1.3320    0.9230   -2.6810 c3        1 JT1      0.218800
     16 C16         0.9690    0.3490    0.2840 c         1 JT1      0.643100
     17 O17         0.5180    0.8190    1.3470 o         1 JT1     -0.604100
     18 N18         2.2900   -0.0190    0.1370 n         1 JT1     -0.514900
     19 C19         3.2620    0.4440    1.1050 c3        1 JT1      0.116300
     20 C20         4.5700   -0.2870    1.0070 ca        1 JT1     -0.071300
     21 C21         5.7420    0.4270    0.7330 ca        1 JT1     -0.123000
     22 C22         6.9690   -0.2280    0.6810 ca        1 JT1     -0.108000
     23 C23         7.0220   -1.6090    0.8930 ca        1 JT1      0.048100
     24 C24         5.8450   -2.3460    1.1610 ca        1 JT1      0.144900
     25 C25         4.6150   -1.6650    1.2220 ca        1 JT1     -0.146000
     26 C26        -3.3620   -1.6660   -0.8720 cc        1 JT1      0.591100
     27 S27        -4.7070   -1.8780   -2.0060 ss        1 JT1     -0.023100
     28 N28        -3.4460   -2.3850    0.2570 nd        1 JT1     -0.648700
     29 C29        -4.6180   -3.1670    0.2230 ca        1 JT1      0.614300
     30 C30        -5.4200   -2.9800   -0.9720 ca        1 JT1     -0.376700
     31 C31        -6.6110   -3.7250   -1.0540 ca        1 JT1      0.496200
     32 N32        -6.9930   -4.5650   -0.0920 nb        1 JT1     -0.707000
     33 C33        -6.1690   -4.6880    1.0150 ca        1 JT1      0.697300
     34 N34        -4.9960   -4.0260    1.2170 nb        1 JT1     -0.650000
     35 O35         8.2420   -2.2720    0.9860 os        1 JT1     -0.356900
     36 C36         8.9600   -2.4880   -0.2040 c3        1 JT1      0.819700
     37 C40        -3.4510    6.2190    1.3150 c3        1 JT1      0.681200
     38 C44        -6.5930   -5.6310    2.0950 cx        1 JT1     -0.183000
     39 C45        -8.0570   -5.8020    2.4220 cx        1 JT1     -0.109400
     40 C46        -7.3130   -6.9110    1.7460 cx        1 JT1     -0.109400
     41 F37         8.2270   -3.1290   -1.1470 f         1 JT1     -0.213633
     42 F38         9.4230   -1.3220   -0.7230 f         1 JT1     -0.213633
     43 F39        10.0090   -3.2630    0.1600 f         1 JT1     -0.213633
     44 F41        -2.9330    7.4620    1.5870 f         1 JT1     -0.230633
     45 F42        -4.6210    6.4780    0.6440 f         1 JT1     -0.230633
     46 F43        -3.8570    5.7450    2.5370 f         1 JT1     -0.230633
     47 F47         5.8960   -3.6790    1.3660 f         1 JT1     -0.115900
     48 H1         -0.1030    2.9320    1.1540 ha        1 JT1      0.175500
     49 H2         -1.6960    4.4050    2.3790 ha        1 JT1      0.164000
     50 H3         -3.1030    6.0260   -1.3830 ha        1 JT1      0.164000
     51 H4         -1.5010    4.5540   -2.6120 ha        1 JT1      0.175500
     52 H5          0.4980   -0.7250   -1.5850 h1        1 JT1      0.072700
     53 H6         -1.6180    0.0130    0.5790 h1        1 JT1      0.087200
     54 H7         -0.9090   -1.6190    0.1620 h1        1 JT1      0.087200
     55 H8         -3.2450   -0.0640   -2.9460 h1        1 JT1      0.059700
     56 H9         -3.1740    1.0530   -1.4980 h1        1 JT1      0.059700
     57 H10        -1.6380    1.8880   -3.1800 h1        1 JT1      0.069200
     58 H11        -0.9140    0.2360   -3.4740 h1        1 JT1      0.069200
     59 H12         2.6310   -0.1390   -0.7910 hn        1 JT1      0.311500
     60 H13         3.4310    1.5540    0.9680 h1        1 JT1      0.078200
     61 H14         2.8280    0.2880    2.1370 h1        1 JT1      0.078200
     62 H15         5.6980    1.5140    0.5620 ha        1 JT1      0.153000
     63 H16         7.8990    0.3230    0.4690 ha        1 JT1      0.162000
     64 H17         3.6960   -2.2300    1.4420 ha        1 JT1      0.165000
     65 H18        -7.2810   -3.6410   -1.9290 h4        1 JT1      0.031100
     66 H19        -5.8720   -5.6620    2.9390 hc        1 JT1      0.108700
     67 H20        -8.3360   -5.9070    3.4860 hc        1 JT1      0.079200
     68 H21        -8.8130   -5.2360    1.8510 hc        1 JT1      0.079200
     69 H22        -7.5350   -7.1410    0.6890 hc        1 JT1      0.079200
     70 H23        -7.0540   -7.8190    2.3210 hc        1 JT1      0.079200
@<TRIPOS>BOND
     1    1   13 1   
     2    1   14 1   
     3    1   26 1   
     4    2    3 1   
     5    2   12 1   
     6    2   15 1   
     7    3    4 1   
     8    3    5 2   
     9    3    6 2   
    10    4    7 ar  
    11    4   11 ar  
    12    7    8 ar  
    13    7   48 1   
    14    8    9 ar  
    15    8   49 1   
    16    9   10 ar  
    17    9   37 1   
    18   10   11 ar  
    19   10   50 1   
    20   11   51 1   
    21   12   13 1   
    22   12   16 1   
    23   12   52 1   
    24   13   53 1   
    25   13   54 1   
    26   14   15 1   
    27   14   55 1   
    28   14   56 1   
    29   15   57 1   
    30   15   58 1   
    31   16   17 2   
    32   16   18 1   
    33   18   19 1   
    34   18   59 1   
    35   19   20 1   
    36   19   60 1   
    37   19   61 1   
    38   20   21 ar  
    39   20   25 ar  
    40   21   22 ar  
    41   21   62 1   
    42   22   23 ar  
    43   22   63 1   
    44   23   24 ar  
    45   23   35 1   
    46   24   25 ar  
    47   24   47 1   
    48   25   64 1   
    49   26   27 1   
    50   26   28 2   
    51   27   30 1   
    52   28   29 1   
    53   29   30 ar  
    54   29   34 ar  
    55   30   31 ar  
    56   31   32 ar  
    57   31   65 1   
    58   32   33 ar  
    59   33   34 ar  
    60   33   38 1   
    61   35   36 1   
    62   36   41 1   
    63   36   42 1   
    64   36   43 1   
    65   37   44 1   
    66   37   45 1   
    67   37   46 1   
    68   38   39 1   
    69   38   40 1   
    70   38   66 1   
    71   39   40 1   
    72   39   67 1   
    73   39   68 1   
    74   40   69 1   
    75   40   70 1   
@<TRIPOS>SUBSTRUCTURE
     1 JT1         1 TEMP              0 ****  ****    0 ROOT
