@<TRIPOS>MOLECULE
JT5
   42    43     1     0     0
SMALL
bcc


@<TRIPOS>ATOM
      1 C3         -2.6540    2.1040    0.1290 c         1 JT5      0.574100
      2 C4         -3.1820    0.8420   -0.5650 c3        1 JT5      0.141800
      3 C8         -3.0300   -0.7370    1.3140 c3        1 JT5      0.210800
      4 N2         -1.2570    2.3650    0.0460 n         1 JT5     -0.358400
      5 O1         -0.8000    3.2770    0.9090 oh        1 JT5     -0.437100
      6 O5         -3.4330    2.9440    0.6060 o         1 JT5     -0.562100
      7 N6         -2.6670   -0.3840   -0.0350 n3        1 JT5     -0.800500
      8 S7         -1.8490   -1.4500   -0.9840 sy        1 JT5      1.508200
      9 C9         -4.3820   -0.2220    1.8250 c3        1 JT5      0.114400
     10 O10        -5.4010   -0.7660    1.0040 oh        1 JT5     -0.597800
     11 O11        -2.1260   -1.1710   -2.3380 o         1 JT5     -0.643800
     12 C12        -0.2410   -1.0420   -0.6740 ca        1 JT5     -0.395500
     13 O13        -2.0660   -2.7670   -0.5340 o         1 JT5     -0.643800
     14 C14         0.4910   -1.7220    0.3080 ca        1 JT5     -0.020500
     15 C15         1.8300   -1.4270    0.5390 ca        1 JT5     -0.149000
     16 C16         2.4750   -0.4360   -0.2160 cp        1 JT5      0.039000
     17 C17         1.7510    0.2440   -1.2070 ca        1 JT5     -0.149000
     18 C18         0.4130   -0.0620   -1.4300 ca        1 JT5     -0.020500
     19 C19         3.8820   -0.1180    0.0240 cp        1 JT5     -0.065000
     20 C20         4.8050   -1.1410    0.2830 ca        1 JT5     -0.108000
     21 C21         6.1460   -0.8360    0.5080 ca        1 JT5     -0.131000
     22 C22         6.5760    0.4910    0.4840 ca        1 JT5     -0.116000
     23 C23         5.6620    1.5130    0.2300 ca        1 JT5     -0.131000
     24 C24         4.3220    1.2130   -0.0020 ca        1 JT5     -0.108000
     25 H25        -0.6830    1.5330    0.1460 hn        1 JT5      0.307500
     26 H26        -4.3090    0.8660   -0.4700 h1        1 JT5      0.100700
     27 H27        -2.9300    0.9160   -1.6660 h1        1 JT5      0.100700
     28 H28        -3.0420   -1.8650    1.3920 h1        1 JT5      0.062200
     29 H29        -2.2480   -0.3320    2.0220 h1        1 JT5      0.062200
     30 H30        -4.5100   -0.5770    2.8840 h1        1 JT5      0.041200
     31 H31        -4.4220    0.9010    1.8040 h1        1 JT5      0.041200
     32 H32        -6.2380   -0.4250    1.3410 ho        1 JT5      0.407000
     33 H33        -0.0040   -2.5170    0.8950 ha        1 JT5      0.155500
     34 H34         2.3860   -1.9710    1.3180 ha        1 JT5      0.148000
     35 H35         2.2490    1.0130   -1.8180 ha        1 JT5      0.148000
     36 H36        -0.1410    0.4610   -2.2310 ha        1 JT5      0.155500
     37 H37         4.4710   -2.1900    0.2970 ha        1 JT5      0.138000
     38 H38         6.8650   -1.6440    0.7050 ha        1 JT5      0.137000
     39 H39         7.6350    0.7300    0.6640 ha        1 JT5      0.136000
     40 H40         5.9990    2.5610    0.2120 ha        1 JT5      0.137000
     41 H41         3.6030    2.0230   -0.1980 ha        1 JT5      0.138000
     42 H42        -1.1450    4.1370    0.5970 ho        1 JT5      0.434000
@<TRIPOS>BOND
     1    1    2 1   
     2    1    4 1   
     3    1    6 2   
     4    2    7 1   
     5    2   26 1   
     6    2   27 1   
     7    3    7 1   
     8    3    9 1   
     9    3   28 1   
    10    3   29 1   
    11    4    5 1   
    12    4   25 1   
    13    5   42 1   
    14    7    8 1   
    15    8   11 2   
    16    8   12 1   
    17    8   13 2   
    18    9   10 1   
    19    9   30 1   
    20    9   31 1   
    21   10   32 1   
    22   12   14 ar  
    23   12   18 ar  
    24   14   15 ar  
    25   14   33 1   
    26   15   16 ar  
    27   15   34 1   
    28   16   17 ar  
    29   16   19 1   
    30   17   18 ar  
    31   17   35 1   
    32   18   36 1   
    33   19   20 ar  
    34   19   24 ar  
    35   20   21 ar  
    36   20   37 1   
    37   21   22 ar  
    38   21   38 1   
    39   22   23 ar  
    40   22   39 1   
    41   23   24 ar  
    42   23   40 1   
    43   24   41 1   
@<TRIPOS>SUBSTRUCTURE
     1 JT5         1 TEMP              0 ****  ****    0 ROOT
