@<TRIPOS>MOLECULE
JT5
   44    44     1     0     0
SMALL
bcc


@<TRIPOS>ATOM
      1 C3          0.6720    2.8300    1.9250 c         1 JT5      0.465100
      2 C4          0.2730    1.3370    1.9150 c3        1 JT5      0.170800
      3 C8          1.9110    0.3210    0.3870 c3        1 JT5      0.140800
      4 N2          0.2990    3.6170    3.1940 ny        1 JT5     -0.465300
      5 O1          0.1680    4.9480    2.9910 oh        1 JT5     -0.345300
      6 O5          1.2370    3.4820    1.0670 o         1 JT5     -0.402100
      7 N6          0.5440    0.6520    0.7130 n7        1 JT5     -0.844200
      8 S7          2.2180   -1.5300   -3.6920 s4        1 JT5      1.706300
      9 C9          2.0270   -0.8230   -0.6220 c3        1 JT5      0.134400
     10 O10         1.6620   -0.4160   -1.9530 oh        1 JT5     -0.738800
     11 O11         3.0410   -2.2280   -2.8650 o         1 JT5     -0.455900
     12 C12         1.0140   -2.2510   -4.3120 ca        1 JT5     -0.671500
     13 O13         2.5240   -0.2770   -4.1300 o         1 JT5     -0.455900
     14 C14         0.1770   -1.6250   -5.2850 ca        1 JT5      0.041000
     15 C15        -0.8580   -2.2930   -5.8940 ca        1 JT5     -0.171000
     16 C16        -1.1400   -3.6470   -5.5800 cp        1 JT5      0.189000
     17 C17        -0.3300   -4.2800   -4.6040 ca        1 JT5     -0.171000
     18 C18         0.7020   -3.6080   -3.9940 ca        1 JT5      0.041000
     19 C19        -2.2110   -4.3590   -6.2380 cp        1 JT5     -0.140000
     20 C20        -3.3400   -3.6700   -6.7230 ca        1 JT5     -0.071500
     21 C21        -4.3670   -4.3600   -7.3580 ca        1 JT5     -0.132000
     22 C22        -4.2810   -5.7430   -7.5330 ca        1 JT5     -0.053000
     23 C23        -3.1640   -6.4370   -7.0620 ca        1 JT5     -0.132000
     24 C24        -2.1390   -5.7550   -6.4140 ca        1 JT5     -0.071500
     25 H25        -0.6290    3.3050    3.5450 hn        1 JT5      0.485300
     26 H26        -0.8410    1.2970    2.1120 h1        1 JT5      0.118700
     27 H27         0.8260    0.8520    2.7740 h1        1 JT5      0.118700
     28 H28         2.4660    1.2230   -0.0130 h1        1 JT5      0.073200
     29 H29         2.4380   -0.0220    1.3260 h1        1 JT5      0.073200
     30 H30         3.0940   -1.1820   -0.6530 h1        1 JT5      0.107200
     31 H31         1.3340   -1.6760   -0.3890 h1        1 JT5      0.107200
     32 H32         1.9090    0.5160   -2.0910 ho        1 JT5      0.483000
     33 H33         0.3900   -0.5750   -5.5640 ha        1 JT5      0.167000
     34 H34        -1.4630   -1.7780   -6.6600 ha        1 JT5      0.181000
     35 H35        -0.5400   -5.3280   -4.3240 ha        1 JT5      0.181000
     36 H36         1.3240   -4.1280   -3.2400 ha        1 JT5      0.167000
     37 H37        -3.4280   -2.5810   -6.5820 ha        1 JT5      0.140000
     38 H38        -5.2500   -3.8130   -7.7270 ha        1 JT5      0.162000
     39 H39        -5.0940   -6.2870   -8.0440 ha        1 JT5      0.165000
     40 H40        -3.0920   -7.5270   -7.2060 ha        1 JT5      0.162000
     41 H41        -1.2560   -6.3140   -6.0650 ha        1 JT5      0.140000
     42 H42         0.8920    5.2600    2.3930 ho        1 JT5      0.487000
     43 H22         1.0050    3.4490    3.9360 hn        1 JT5      0.485300
     44 H61        -0.0100    0.9250   -0.0720 hn        1 JT5      0.425800
@<TRIPOS>BOND
     1    1    2 1   
     2    1    4 1   
     3    1    6 2   
     4    2    7 1   
     5    2   26 1   
     6    2   27 1   
     7    3    7 1   
     8    3    9 1   
     9    3   28 1   
    10    3   29 1   
    11    4    5 1   
    12    4   25 1   
    13    4   43 1   
    14    5   42 1   
    15    7   44 1   
    16    8   11 1   
    17    8   12 1   
    18    8   13 1   
    19    9   10 1   
    20    9   30 1   
    21    9   31 1   
    22   10   32 1   
    23   12   14 ar  
    24   12   18 ar  
    25   14   15 ar  
    26   14   33 1   
    27   15   16 ar  
    28   15   34 1   
    29   16   17 ar  
    30   16   19 1   
    31   17   18 ar  
    32   17   35 1   
    33   18   36 1   
    34   19   20 ar  
    35   19   24 ar  
    36   20   21 ar  
    37   20   37 1   
    38   21   22 ar  
    39   21   38 1   
    40   22   23 ar  
    41   22   39 1   
    42   23   24 ar  
    43   23   40 1   
    44   24   41 1   
@<TRIPOS>SUBSTRUCTURE
     1 JT5         1 TEMP              0 ****  ****    0 ROOT
