@<TRIPOS>MOLECULE
JT5
   42    32     1     0     0
SMALL
bcc


@<TRIPOS>ATOM
      1 C3          0.5720    0.8110   -3.6740 c1        1 JT5      0.218000
      2 C4         -0.7660    0.3700   -3.0730 c3        1 JT5     -0.034000
      3 C8         -1.4520    2.4020   -1.7970 c3        1 JT5     -0.070000
      4 N2          0.9370    0.3910   -4.9920 n2        1 JT5     -0.203000
      5 O1          2.1500    0.7640   -5.5210 oh        1 JT5     -0.232000
      6 O5          1.3430    1.4880   -3.0160 o         1 JT5     -0.327000
      7 N6         -0.9720    1.0430   -1.8140 n3        1 JT5     -0.819000
      8 S7         -0.4910    0.3150   -0.3960 s4        1 JT5      2.067800
      9 C9         -2.9520    2.4190   -2.1140 c3        1 JT5     -0.040000
     10 O10        -3.4100    3.7590   -2.1590 oh        1 JT5     -0.316000
     11 O11         0.1100   -0.9690   -0.6460 o         1 JT5     -0.540900
     12 C12        -1.8760    0.1760    0.7290 c1        1 JT5     -0.844000
     13 O13         0.6060    1.0250    0.2100 o         1 JT5     -0.540900
     14 C14        -1.4720   -1.1330    0.4930 c1        1 JT5     -0.083500
     15 C15        -0.5020   -1.7190    1.3010 c1        1 JT5     -0.083500
     16 C16         0.0640   -0.9950    2.3470 c1        1 JT5      0.044000
     17 C17        -0.3410    0.3160    2.5820 c1        1 JT5     -0.150000
     18 C18        -1.3110    0.9010    1.7740 c2        1 JT5     -0.011000
     19 C19         1.1440   -1.5310    3.0620 c1        1 JT5     -0.066000
     20 C20         0.9520   -2.6340    3.8870 c1        1 JT5     -0.109000
     21 C21         2.0340   -3.2030    4.5520 c1        1 JT5     -0.131000
     22 C22         3.3090   -2.6680    4.3900 c1        1 JT5     -0.115000
     23 C23         3.5010   -1.5650    3.5650 c1        1 JT5     -0.130000
     24 C24         2.4190   -0.9960    2.9010 c2        1 JT5     -0.107000
     25 H25         0.3750   -0.1500   -5.4710 hn        1 JT5      0.256000
     26 H26        -1.4950    0.6010   -3.6900 h1        1 JT5      0.117000
     27 H27        -0.7550   -0.6010   -2.9270 h1        1 JT5      0.117000
     28 H28        -1.3010    2.7910   -0.9080 h1        1 JT5      0.117500
     29 H29        -0.9690    2.9280   -2.4710 h1        1 JT5      0.117500
     30 H30        -3.1080    1.9900   -2.9830 h1        1 JT5      0.088000
     31 H31        -3.4400    1.9290   -1.4150 h1        1 JT5      0.088000
     32 H32        -4.2900    3.7670   -2.2970 ho        1 JT5      0.203000
     33 H33        -1.8700   -1.6440   -0.2440 ha        1 JT5      0.151500
     34 H34        -0.2170   -2.6440    1.1340 ha        1 JT5      0.151500
     35 H35         0.0570    0.8270    3.3190 DU        1 JT5      0.139400
     36 H36        -1.5960    1.8260    1.9410 ha        1 JT5      0.154000
     37 H37         0.0540   -3.0120    4.0010 DU        1 JT5      0.139400
     38 H38         1.8990   -3.9800    5.1330 DU        1 JT5      0.139400
     39 H39         4.0720   -3.0690    4.8590 DU        1 JT5      0.139400
     40 H40         4.4010   -1.1870    3.4520 DU        1 JT5      0.139400
     41 H41         2.5550   -0.2190    2.3200 ha        1 JT5      0.138000
     42 H42         2.0300    1.0800   -6.3440 ho        1 JT5      0.227000
@<TRIPOS>BOND
     1    1    2 1   
     2    1    6 1   
     3    2    7 1   
     4    2   26 1   
     5    2   27 1   
     6    3    7 1   
     7    3    9 1   
     8    3   28 1   
     9    3   29 1   
    10    4    5 1   
    11    4   25 1   
    12    5   42 1   
    13    7    8 1   
    14    8   11 1   
    15    8   13 1   
    16    9   10 1   
    17    9   30 1   
    18    9   31 1   
    19   10   32 1   
    20   12   18 1   
    21   14   15 1   
    22   14   33 1   
    23   15   34 1   
    24   16   17 1   
    25   17   18 1   
    26   18   36 1   
    27   19   24 1   
    28   20   21 1   
    29   21   22 1   
    30   22   23 1   
    31   23   24 1   
    32   24   41 1   
@<TRIPOS>SUBSTRUCTURE
     1 JT5         1 TEMP              0 ****  ****    0 ROOT
