@<TRIPOS>MOLECULE
JT5
   42    43     1     0     0
SMALL
bcc


@<TRIPOS>ATOM
      1 C3          0.0880    0.2380   -0.1080 c         1 JT5      0.565100
      2 C4          1.5710   -0.1400   -0.2260 c3        1 JT5      0.157800
      3 C8          2.2830    1.1900   -2.1550 c3        1 JT5      0.208800
      4 N2         -0.7520   -0.6740    0.6020 n         1 JT5     -0.351400
      5 O1         -1.9070   -0.1560    1.0280 oh        1 JT5     -0.437100
      6 O5         -0.4010    1.2340   -0.6630 o         1 JT5     -0.558100
      7 N6          2.0870   -0.1050   -1.5580 n3        1 JT5     -0.781500
      8 S7          2.5110   -1.4870   -2.3460 sy        1 JT5      1.511200
      9 C9          3.3090    2.1040   -1.4680 c3        1 JT5      0.114400
     10 O10         4.5620    1.4470   -1.4650 oh        1 JT5     -0.593800
     11 O11         2.9470   -2.4390   -1.3980 o         1 JT5     -0.645300
     12 C12         1.0430   -2.0200   -2.9850 ca        1 JT5     -0.387500
     13 O13         3.3720   -1.1930   -3.4200 o         1 JT5     -0.645300
     14 C14         0.5420   -1.4720   -4.1730 ca        1 JT5     -0.011000
     15 C15        -0.6460   -1.9300   -4.7310 ca        1 JT5     -0.150000
     16 C16        -1.3690   -2.9580   -4.1070 cp        1 JT5      0.035000
     17 C17        -0.8710   -3.5170   -2.9200 ca        1 JT5     -0.150000
     18 C18         0.3190   -3.0510   -2.3730 ca        1 JT5     -0.011000
     19 C19        -2.6210   -3.4420   -4.6860 cp        1 JT5     -0.060000
     20 C20        -2.7470   -3.5960   -6.0750 ca        1 JT5     -0.109500
     21 C21        -3.9400   -4.0600   -6.6240 ca        1 JT5     -0.131500
     22 C22        -5.0190   -4.3700   -5.7970 ca        1 JT5     -0.118000
     23 C23        -4.9020   -4.2180   -4.4150 ca        1 JT5     -0.131500
     24 C24        -3.7090   -3.7590   -3.8600 ca        1 JT5     -0.109500
     25 H25        -0.2930   -1.0950    1.4020 hn        1 JT5      0.299500
     26 H26         1.7550   -1.1710    0.2020 h1        1 JT5      0.083700
     27 H27         2.1200    0.6020    0.4270 h1        1 JT5      0.083700
     28 H28         2.6240    1.0320   -3.2210 h1        1 JT5      0.077700
     29 H29         1.3010    1.7490   -2.1610 h1        1 JT5      0.077700
     30 H30         3.3670    3.0610   -2.0550 h1        1 JT5      0.028200
     31 H31         3.0030    2.3450   -0.4150 h1        1 JT5      0.028200
     32 H32         5.2150    2.0920   -1.1670 ho        1 JT5      0.403000
     33 H33         1.1110   -0.6730   -4.6790 ha        1 JT5      0.151000
     34 H34        -1.0250   -1.4820   -5.6620 ha        1 JT5      0.144000
     35 H35        -1.4200   -4.3330   -2.4270 ha        1 JT5      0.144000
     36 H36         0.7130   -3.5090   -1.4470 ha        1 JT5      0.151000
     37 H37        -1.8960   -3.3580   -6.7310 ha        1 JT5      0.137000
     38 H38        -4.0290   -4.1830   -7.7140 ha        1 JT5      0.135500
     39 H39        -5.9610   -4.7350   -6.2330 ha        1 JT5      0.135000
     40 H40        -5.7520   -4.4600   -3.7600 ha        1 JT5      0.135500
     41 H41        -3.6210   -3.6360   -2.7700 ha        1 JT5      0.137000
     42 H42        -2.4520   -0.0230    0.2270 ho        1 JT5      0.437000
@<TRIPOS>BOND
     1    1    2 1   
     2    1    4 1   
     3    1    6 2   
     4    2    7 1   
     5    2   26 1   
     6    2   27 1   
     7    3    7 1   
     8    3    9 1   
     9    3   28 1   
    10    3   29 1   
    11    4    5 1   
    12    4   25 1   
    13    5   42 1   
    14    7    8 1   
    15    8   11 2   
    16    8   12 1   
    17    8   13 2   
    18    9   10 1   
    19    9   30 1   
    20    9   31 1   
    21   10   32 1   
    22   12   14 ar  
    23   12   18 ar  
    24   14   15 ar  
    25   14   33 1   
    26   15   16 ar  
    27   15   34 1   
    28   16   17 ar  
    29   16   19 1   
    30   17   18 ar  
    31   17   35 1   
    32   18   36 1   
    33   19   20 ar  
    34   19   24 ar  
    35   20   21 ar  
    36   20   37 1   
    37   21   22 ar  
    38   21   38 1   
    39   22   23 ar  
    40   22   39 1   
    41   23   24 ar  
    42   23   40 1   
    43   24   41 1   
@<TRIPOS>SUBSTRUCTURE
     1 JT5         1 TEMP              0 ****  ****    0 ROOT
