@<TRIPOS>MOLECULE
JT6
   36    37     1     0     0
SMALL
bcc


@<TRIPOS>ATOM
      1 C17         0.0000    0.0000    0.0000 ca        1 JT6      0.043000
      2 C16         1.3980    0.0000    0.0000 ca        1 JT6     -0.065500
      3 C15         2.0860    0.0000    1.1920 ca        1 JT6     -0.106000
      4 C14         1.3880   -0.0000    2.4000 cp        1 JT6     -0.029000
      5 C13         4.2110   -0.0010    4.8800 ca        1 JT6     -0.163500
      6 C12         3.5240   -0.0010    3.6850 ca        1 JT6     -0.047500
      7 C10         1.4340   -0.0020    4.8920 ca        1 JT6     -0.047500
      8 C9          2.1270   -0.0070    6.0850 ca        1 JT6     -0.163500
      9 C18        -0.6980   -0.0000    1.2110 ca        1 JT6     -0.065500
     10 C8          3.5160   -0.0070    6.0820 ca        1 JT6      0.126100
     11 C19        -0.0070   -0.0000    2.4020 ca        1 JT6     -0.106000
     12 C1          3.5300   -0.0300   10.9350 c         1 JT6      0.344100
     13 C6          3.4180   -0.0180    8.4570 c3        1 JT6      0.118400
     14 C3          4.3500   -0.0230    9.6700 c3        1 JT6     -0.038400
     15 N2          4.1430   -0.0350   12.1350 ny        1 JT6      0.377700
     16 O4          2.3190   -0.0290   10.8710 o         1 JT6     -0.368100
     17 O5          3.3720   -0.0400   13.3230 oh        1 JT6     -0.440300
     18 O7          4.1960   -0.0120    7.2580 os        1 JT6     -0.311900
     19 C11         2.1290   -0.0020    3.6840 cp        1 JT6     -0.060000
     20 C20        -0.7160    0.0060   -1.2400 cg        1 JT6      0.214800
     21 N21        -1.2940   -0.0050   -2.2180 n1        1 JT6     -0.355800
     22 H31         3.1650    0.0510    1.1160 ha        1 JT6      0.117000
     23 H32         1.6880   -0.1610   -1.0310 ha        1 JT6      0.124500
     24 H22         4.5100   -0.9660   12.1090 hn        1 JT6      0.243800
     25 H23         5.0150   -0.8190    9.9830 hc        1 JT6      0.048200
     26 H24         5.1110    0.7100    9.4300 hc        1 JT6      0.048200
     27 H25         3.4070    1.0150    8.1320 h1        1 JT6      0.068200
     28 H26         2.3720   -0.2970    8.4250 h1        1 JT6      0.068200
     29 H27         1.7220    0.3960    7.0050 ha        1 JT6      0.116000
     30 H28         0.3670    0.1800    4.8600 ha        1 JT6      0.122000
     31 H29         4.0000   -0.3310    2.7690 ha        1 JT6      0.122000
     32 H30         5.2790   -0.1430    4.7680 ha        1 JT6      0.116000
     33 H33        -1.7370   -0.0520    1.5110 ha        1 JT6      0.124500
     34 H34        -0.3990   -0.2860    3.3700 ha        1 JT6      0.117000
     35 H35         3.9440   -0.3580   14.0020 ho        1 JT6      0.464000
     36 H221        4.8980    0.4980   12.5190 hn        1 JT6      0.243800
@<TRIPOS>BOND
     1    1    2 ar  
     2    1    9 ar  
     3    1   20 1   
     4    2    3 ar  
     5    2   23 1   
     6    3    4 ar  
     7    3   22 1   
     8    4   11 ar  
     9    4   19 1   
    10    5    6 ar  
    11    5   10 ar  
    12    5   32 1   
    13    6   19 ar  
    14    6   31 1   
    15    7    8 ar  
    16    7   19 ar  
    17    7   30 1   
    18    8   10 ar  
    19    8   29 1   
    20    9   11 ar  
    21    9   33 1   
    22   10   18 1   
    23   11   34 1   
    24   12   14 1   
    25   12   15 1   
    26   12   16 2   
    27   13   14 1   
    28   13   18 1   
    29   13   27 1   
    30   13   28 1   
    31   14   25 1   
    32   14   26 1   
    33   15   17 1   
    34   15   24 1   
    35   15   36 1   
    36   17   35 1   
    37   20   21 3   
@<TRIPOS>SUBSTRUCTURE
     1 JT6         1 TEMP              0 ****  ****    0 ROOT
