@<TRIPOS>MOLECULE
JT6
   36    37     1     0     0
SMALL
bcc


@<TRIPOS>ATOM
      1 C17         0.7980    0.2330    0.0500 ca        1 JT6      0.010000
      2 C16         2.1410   -0.0210    0.3630 ca        1 JT6     -0.089000
      3 C15         2.5340   -0.1350    1.6940 ca        1 JT6     -0.117000
      4 C14         1.5960    0.0090    2.7270 cp        1 JT6     -0.048000
      5 C13         3.3330   -1.2170    5.8350 ca        1 JT6     -0.132500
      6 C12         2.9340   -1.0950    4.5060 ca        1 JT6     -0.100000
      7 C10         1.4930    0.7650    5.0920 ca        1 JT6     -0.100000
      8 C9          1.8860    0.6620    6.4230 ca        1 JT6     -0.132500
      9 C18        -0.1450    0.3740    1.0780 ca        1 JT6     -0.089000
     10 C8          2.8100   -0.3270    6.7790 ca        1 JT6      0.049100
     11 C19         0.2550    0.2640    2.4070 ca        1 JT6     -0.117000
     12 C1          3.7270    0.2210   10.8460 c         1 JT6      0.552100
     13 C6          2.3570   -0.8700    9.0420 c3        1 JT6      0.123400
     14 C3          3.1080   -1.0500   10.3530 c3        1 JT6     -0.161400
     15 N2          4.8780    0.7620    9.9830 n4        1 JT6     -0.464300
     16 O4          3.4570    0.8990   11.8200 o         1 JT6     -0.395100
     17 O5          5.5980    1.7550   10.5460 oh        1 JT6     -0.357300
     18 O7          3.3080   -0.3880    8.0840 os        1 JT6     -0.424900
     19 C11         2.0130   -0.1080    4.1230 cp        1 JT6     -0.006000
     20 C20         0.3930    0.3470   -1.3070 cg        1 JT6      0.215800
     21 N21         0.0610    0.4410   -2.4180 n1        1 JT6     -0.327800
     22 H31         3.5910   -0.3280    1.9330 ha        1 JT6      0.141500
     23 H32         2.8830   -0.1310   -0.4430 ha        1 JT6      0.157000
     24 H22         5.5520   -0.0050    9.7860 hn        1 JT6      0.496300
     25 H23         2.3800   -1.3960   11.1430 hc        1 JT6      0.131200
     26 H24         3.9020   -1.8380   10.2380 hc        1 JT6      0.131200
     27 H25         1.5210   -0.1280    9.1410 h1        1 JT6      0.085200
     28 H26         1.9450   -1.8610    8.7110 h1        1 JT6      0.085200
     29 H27         1.4770    1.3460    7.1790 ha        1 JT6      0.144000
     30 H28         0.7720    1.5440    4.7940 ha        1 JT6      0.158500
     31 H29         3.3380   -1.7880    3.7510 ha        1 JT6      0.158500
     32 H30         4.0520   -1.9920    6.1380 ha        1 JT6      0.144000
     33 H33        -1.2020    0.5700    0.8340 ha        1 JT6      0.157000
     34 H34        -0.4910    0.3690    3.2100 ha        1 JT6      0.141500
     35 H35         5.0220    2.2660   11.1670 ho        1 JT6      0.484000
     36 H221        4.4890    1.0830    9.0660 hn        1 JT6      0.496300
@<TRIPOS>BOND
     1    1    2 ar  
     2    1    9 ar  
     3    1   20 1   
     4    2    3 ar  
     5    2   23 1   
     6    3    4 ar  
     7    3   22 1   
     8    4   11 ar  
     9    4   19 1   
    10    5    6 ar  
    11    5   10 ar  
    12    5   32 1   
    13    6   19 ar  
    14    6   31 1   
    15    7    8 ar  
    16    7   19 ar  
    17    7   30 1   
    18    8   10 ar  
    19    8   29 1   
    20    9   11 ar  
    21    9   33 1   
    22   10   18 1   
    23   11   34 1   
    24   12   14 1   
    25   12   15 1   
    26   12   16 2   
    27   13   14 1   
    28   13   18 1   
    29   13   27 1   
    30   13   28 1   
    31   14   25 1   
    32   14   26 1   
    33   15   17 1   
    34   15   24 1   
    35   15   36 1   
    36   17   35 1   
    37   20   21 3   
@<TRIPOS>SUBSTRUCTURE
     1 JT6         1 TEMP              0 ****  ****    0 ROOT
