@<TRIPOS>MOLECULE
JT6
   35    28     1     0     0
SMALL
bcc


@<TRIPOS>ATOM
      1 C17        -3.0870   -2.3460   -4.5980 c1        1 JT6     -0.017000
      2 C16        -3.3210   -1.0320   -4.1990 c2        1 JT6     -0.089000
      3 C15        -2.4870   -0.4290   -3.2730 c1        1 JT6     -0.130000
      4 C14        -1.4150   -1.1350   -2.7400 c1        1 JT6     -0.003000
      5 C13        -0.5650   -0.4840    0.7780 c1        1 JT6     -0.204000
      6 C12        -1.1790   -1.0240   -0.3490 c1        1 JT6     -0.077000
      7 C10         0.2690    0.2860   -1.7700 c1        1 JT6     -0.084000
      8 C9          0.8860    0.8290   -0.6410 c2        1 JT6     -0.155000
      9 C18        -2.0230   -3.0470   -4.0690 c1        1 JT6     -0.089000
     10 C8          0.4700    0.4450    0.6330 c2        1 JT6      0.081000
     11 C19        -1.1820   -2.4400   -3.1350 c2        1 JT6     -0.129000
     12 C1          3.0470    1.6910    4.6440 c1        1 JT6      0.235000
     13 C6          1.7340    0.9140    2.6280 c3        1 JT6     -0.015000
     14 C3          1.6660    1.7050    3.9660 c3        1 JT6     -0.225000
     15 N2          3.6430    2.9220    5.0810 n2        1 JT6     -0.195000
     16 O4          3.5930    0.6300    4.8920 o         1 JT6     -0.313000
     17 O5          3.4890    3.3380    6.3990 oh        1 JT6     -0.239000
     18 O7          0.5410    1.1720    1.8600 os        1 JT6     -0.209000
     19 C11        -0.7620   -0.6390   -1.6230 c1        1 JT6     -0.082000
     20 C20        -3.9900   -3.0030   -5.6880 c1        1 JT6     -0.096000
     21 N21        -4.6620   -3.4910   -6.4990 n1        1 JT6     -0.038000
     22 H31        -2.6550    0.5090   -2.9890 ha        1 JT6      0.142000
     23 H32        -4.0640   -0.5420   -4.5690 ha        1 JT6      0.146000
     24 H22         4.0540    3.4790    4.4670 hn        1 JT6      0.213000
     25 H23         1.3990    2.6380    3.7830 hc        1 JT6      0.125000
     26 H24         0.9940    1.2800    4.5700 hc        1 JT6      0.125000
     27 H25         1.7990   -0.0510    2.8200 h1        1 JT6      0.109500
     28 H26         2.5340    1.2050    2.1090 h1        1 JT6      0.109500
     29 H27         1.6160    1.4840   -0.7440 ha        1 JT6      0.152000
     30 H28         0.5630    0.5570   -2.6720 DU        1 JT6      0.144000
     31 H29        -1.9040   -1.6750   -0.2470 ha        1 JT6      0.140000
     32 H30        -0.8590   -0.7550    1.6750 DU        1 JT6      0.144000
     33 H33        -1.8580   -3.9730   -4.3500 DU        1 JT6      0.144000
     34 H34        -0.4340   -2.9320   -2.7630 ha        1 JT6      0.143000
     35 H35         4.1490    3.9140    6.6120 ho        1 JT6      0.235000
@<TRIPOS>BOND
     1    1    2 1   
     2    1    9 1   
     3    2    3 1   
     4    2   23 1   
     5    3   22 1   
     6    4   11 1   
     7    5    6 1   
     8    5   10 1   
     9    6   31 1   
    10    7    8 1   
    11    7   19 1   
    12    8   10 1   
    13    8   29 1   
    14    9   11 1   
    15   10   18 1   
    16   11   34 1   
    17   12   14 1   
    18   12   16 1   
    19   13   14 1   
    20   13   18 1   
    21   13   27 1   
    22   13   28 1   
    23   14   25 1   
    24   14   26 1   
    25   15   17 1   
    26   15   24 1   
    27   17   35 1   
    28   20   21 1   
@<TRIPOS>SUBSTRUCTURE
     1 JT6         1 TEMP              0 ****  ****    0 ROOT
