@<TRIPOS>MOLECULE
JT6
   35    36     1     0     0
SMALL
bcc


@<TRIPOS>ATOM
      1 C17        -5.7890   -0.3840   -0.0870 ca        1 JT6     -0.022000
      2 C16        -5.2650    0.8230   -0.5710 ca        1 JT6     -0.089000
      3 C15        -3.8940    1.0550   -0.5170 ca        1 JT6     -0.130000
      4 C14        -3.0260    0.0900    0.0170 cp        1 JT6     -0.002000
      5 C13         0.2670    1.8530    0.4710 ca        1 JT6     -0.180500
      6 C12        -1.0980    1.6080    0.4150 ca        1 JT6     -0.080000
      7 C10        -0.6790   -0.6870   -0.2200 ca        1 JT6     -0.080000
      8 C9          0.6950   -0.4600   -0.1740 ca        1 JT6     -0.180500
      9 C18        -4.9290   -1.3530    0.4490 ca        1 JT6     -0.089000
     10 C8          1.1660    0.8110    0.1730 ca        1 JT6      0.135100
     11 C19        -3.5590   -1.1150    0.4980 ca        1 JT6     -0.130000
     12 C1          5.8900   -0.2650   -0.1230 c         1 JT6      0.593100
     13 C6          3.4370    0.1190   -0.0420 c3        1 JT6      0.136400
     14 C3          4.8070    0.7570    0.1220 c3        1 JT6     -0.165400
     15 N2          7.2310    0.2320   -0.1770 n         1 JT6     -0.351400
     16 O4          5.6550   -1.4540   -0.3910 o         1 JT6     -0.560100
     17 O5          8.1760   -0.6950   -0.0060 oh        1 JT6     -0.435100
     18 O7          2.4990    1.1610    0.2560 os        1 JT6     -0.335900
     19 C11        -1.5880    0.3380    0.0710 cp        1 JT6     -0.084000
     20 C20        -7.1890   -0.6240   -0.1390 cg        1 JT6      0.233800
     21 N21        -8.3350   -0.8210   -0.1820 n1        1 JT6     -0.364800
     22 H31        -3.4860    2.0010   -0.9050 ha        1 JT6      0.143000
     23 H32        -5.9370    1.5840   -0.9950 ha        1 JT6      0.146000
     24 H22         7.4020    0.9710    0.4970 hn        1 JT6      0.298500
     25 H23         4.9080    1.1710    1.1600 hc        1 JT6      0.086700
     26 H24         4.9120    1.6130   -0.5970 hc        1 JT6      0.086700
     27 H25         3.2870   -0.2430   -1.0920 h1        1 JT6      0.059200
     28 H26         3.3030   -0.7330    0.6750 h1        1 JT6      0.059200
     29 H27         1.3870   -1.2800   -0.4100 ha        1 JT6      0.148500
     30 H28        -1.0510   -1.6860   -0.4980 ha        1 JT6      0.139000
     31 H29        -1.8050    2.4190    0.6520 ha        1 JT6      0.139000
     32 H30         0.6570    2.8440    0.7440 ha        1 JT6      0.148500
     33 H33        -5.3380   -2.3000    0.8320 ha        1 JT6      0.146000
     34 H34        -2.8880   -1.8750    0.9260 ha        1 JT6      0.143000
     35 H35         8.1890   -1.2190   -0.8320 ho        1 JT6      0.437000
@<TRIPOS>BOND
     1    1    2 ar  
     2    1    9 ar  
     3    1   20 1   
     4    2    3 ar  
     5    2   23 1   
     6    3    4 ar  
     7    3   22 1   
     8    4   11 ar  
     9    4   19 1   
    10    5    6 ar  
    11    5   10 ar  
    12    5   32 1   
    13    6   19 ar  
    14    6   31 1   
    15    7    8 ar  
    16    7   19 ar  
    17    7   30 1   
    18    8   10 ar  
    19    8   29 1   
    20    9   11 ar  
    21    9   33 1   
    22   10   18 1   
    23   11   34 1   
    24   12   14 1   
    25   12   15 1   
    26   12   16 2   
    27   13   14 1   
    28   13   18 1   
    29   13   27 1   
    30   13   28 1   
    31   14   25 1   
    32   14   26 1   
    33   15   17 1   
    34   15   24 1   
    35   17   35 1   
    36   20   21 3   
@<TRIPOS>SUBSTRUCTURE
     1 JT6         1 TEMP              0 ****  ****    0 ROOT
