@<TRIPOS>MOLECULE
JT6
   36    37     1     0     0
SMALL
bcc


@<TRIPOS>ATOM
      1 C17         0.7460    0.3990    0.0810 ca        1 JT6      0.009000
      2 C16         1.7070   -0.5610    0.4300 ca        1 JT6     -0.089000
      3 C15         2.1280   -0.6720    1.7520 ca        1 JT6     -0.117000
      4 C14         1.5950    0.1660    2.7410 cp        1 JT6     -0.047000
      5 C13         3.8240   -0.2900    5.7420 ca        1 JT6     -0.133500
      6 C12         3.3930   -0.1690    4.4230 ca        1 JT6     -0.101000
      7 C10         1.1100    0.1380    5.1790 ca        1 JT6     -0.101000
      8 C9          1.5240    0.0220    6.5030 ca        1 JT6     -0.133500
      9 C18         0.2090    1.2410    1.0650 ca        1 JT6     -0.089000
     10 C8          2.8820   -0.1840    6.7710 ca        1 JT6      0.051100
     11 C19         0.6310    1.1210    2.3860 ca        1 JT6     -0.117000
     12 C1          3.2480   -0.0590   10.9070 c         1 JT6      0.599100
     13 C6          3.0060   -1.3920    8.8060 c3        1 JT6      0.128400
     14 C3          3.6720   -1.2870   10.1710 c3        1 JT6     -0.154400
     15 N2          3.9080    1.2660   10.4090 n4        1 JT6     -0.478300
     16 O4          2.4660    0.1110   11.8180 o         1 JT6     -0.379100
     17 O5          5.2370    1.1610   10.6310 oh        1 JT6     -0.357300
     18 O7          3.3440   -0.1960    8.0900 os        1 JT6     -0.424900
     19 C11         2.0380    0.0450    4.1290 cp        1 JT6     -0.008000
     20 C20         0.3150    0.5170   -1.2680 cg        1 JT6      0.215800
     21 N21        -0.0370    0.6140   -2.3730 n1        1 JT6     -0.327800
     22 H31         2.8790   -1.4320    2.0210 ha        1 JT6      0.141000
     23 H32         2.1270   -1.2260   -0.3410 ha        1 JT6      0.156500
     24 H22         3.5170    2.0670   10.9380 hn        1 JT6      0.475300
     25 H23         3.3700   -2.1780   10.7930 hc        1 JT6      0.132200
     26 H24         4.7920   -1.2920   10.0590 hc        1 JT6      0.132200
     27 H25         3.4070   -2.2880    8.2620 h1        1 JT6      0.083200
     28 H26         1.8900   -1.4700    8.8940 h1        1 JT6      0.083200
     29 H27         0.7940    0.0860    7.3220 ha        1 JT6      0.144500
     30 H28         0.0430    0.2940    4.9520 ha        1 JT6      0.157500
     31 H29         4.1260   -0.2390    3.6030 ha        1 JT6      0.157500
     32 H30         4.8850   -0.4590    5.9740 ha        1 JT6      0.144500
     33 H33        -0.5450    1.9960    0.7930 ha        1 JT6      0.156500
     34 H34         0.2110    1.7890    3.1540 ha        1 JT6      0.141000
     35 H35         5.7000    1.8840   10.1490 ho        1 JT6      0.473000
     36 H221        3.6980    1.3660    9.3930 hn        1 JT6      0.475300
@<TRIPOS>BOND
     1    1    2 ar  
     2    1    9 ar  
     3    1   20 1   
     4    2    3 ar  
     5    2   23 1   
     6    3    4 ar  
     7    3   22 1   
     8    4   11 ar  
     9    4   19 1   
    10    5    6 ar  
    11    5   10 ar  
    12    5   32 1   
    13    6   19 ar  
    14    6   31 1   
    15    7    8 ar  
    16    7   19 ar  
    17    7   30 1   
    18    8   10 ar  
    19    8   29 1   
    20    9   11 ar  
    21    9   33 1   
    22   10   18 1   
    23   11   34 1   
    24   12   14 1   
    25   12   15 1   
    26   12   16 2   
    27   13   14 1   
    28   13   18 1   
    29   13   27 1   
    30   13   28 1   
    31   14   25 1   
    32   14   26 1   
    33   15   17 1   
    34   15   24 1   
    35   15   36 1   
    36   17   35 1   
    37   20   21 3   
@<TRIPOS>SUBSTRUCTURE
     1 JT6         1 TEMP              0 ****  ****    0 ROOT
