@<TRIPOS>MOLECULE
JTF
   38    39     1     0     0
SMALL
bcc


@<TRIPOS>ATOM
      1 C01        -0.0940   -1.0450   -0.6020 c3        1 JTF      0.082100
      2 N01         1.3710   -1.1300   -0.3650 n4        1 JTF     -0.677400
      3 C02         1.6790   -2.2060    0.6150 c3        1 JTF      0.082100
      4 C03         2.1240   -1.3590   -1.6420 c3        1 JTF      0.086800
      5 C04         2.2170   -0.0890   -2.5240 c3        1 JTF      0.165800
      6 N02         3.1230   -0.3240   -3.6280 nh        1 JTF     -0.715600
      7 C05         2.5360   -0.9530   -4.7710 ca        1 JTF     -0.014400
      8 C06         1.8230   -0.2180   -5.7280 ca        1 JTF     -0.103000
      9 C07         1.2860   -0.8330   -6.8600 ca        1 JTF     -0.152000
     10 C08         1.4450   -2.1960   -7.0550 ca        1 JTF     -0.057000
     11 C09         2.1540   -2.9710   -6.1270 ca        1 JTF     -0.117800
     12 C10         2.3300   -4.3910   -6.3210 cc        1 JTF     -0.052200
     13 C11         3.0020   -5.1510   -5.4250 cd        1 JTF     -0.150400
     14 C12         3.2240   -6.6030   -5.5800 c3        1 JTF     -0.055900
     15 C13         3.5880   -4.5270   -4.2220 c         1 JTF      0.688700
     16 O1          4.1990   -5.1330   -3.3230 o         1 JTF     -0.619500
     17 N1          3.4170   -3.1410   -4.0580 n         1 JTF     -0.457100
     18 C1          2.7250   -2.3590   -4.9750 ca        1 JTF      0.103600
     19 H011       -0.4650   -2.0210   -1.0160 hx        1 JTF      0.106867
     20 H012       -0.3060   -0.2230   -1.3370 hx        1 JTF      0.106867
     21 H013       -0.6160   -0.8280    0.3680 hx        1 JTF      0.106867
     22 H021        2.7760   -2.1890    0.8580 hx        1 JTF      0.106867
     23 H022        1.4100   -3.2030    0.1730 hx        1 JTF      0.106867
     24 H023        1.0830   -2.0360    1.5520 hx        1 JTF      0.106867
     25 H031        1.6050   -2.1840   -2.2070 hx        1 JTF      0.116700
     26 H032        3.1630   -1.7070   -1.3680 hx        1 JTF      0.116700
     27 H041        1.1790    0.1910   -2.8650 h1        1 JTF      0.051700
     28 H042        2.6260    0.7610   -1.9050 h1        1 JTF      0.051700
     29 H02         3.5900    0.5240   -3.8920 hn        1 JTF      0.410800
     30 H06         1.6870    0.8680   -5.5980 ha        1 JTF      0.139000
     31 H07         0.7390   -0.2280   -7.6000 ha        1 JTF      0.155000
     32 H08         1.0190   -2.6830   -7.9480 ha        1 JTF      0.155000
     33 H10         1.8960   -4.8360   -7.2330 ha        1 JTF      0.156000
     34 H121        4.3110   -6.8040   -5.7600 hc        1 JTF      0.063033
     35 H122        2.6350   -7.0140   -6.4360 hc        1 JTF      0.063033
     36 H123        2.9300   -7.1400   -4.6420 hc        1 JTF      0.063033
     37 H1          3.9760   -2.6900   -3.3660 hn        1 JTF      0.331500
     38 H014        1.6830   -0.2330    0.0330 hn        1 JTF      0.447800
@<TRIPOS>BOND
     1    1    2 1   
     2    1   19 1   
     3    1   20 1   
     4    1   21 1   
     5    2    3 1   
     6    2    4 1   
     7    2   38 1   
     8    3   22 1   
     9    3   23 1   
    10    3   24 1   
    11    4    5 1   
    12    4   25 1   
    13    4   26 1   
    14    5    6 1   
    15    5   27 1   
    16    5   28 1   
    17    6    7 1   
    18    6   29 1   
    19    7    8 ar  
    20    7   18 ar  
    21    8    9 ar  
    22    8   30 1   
    23    9   10 ar  
    24    9   31 1   
    25   10   11 ar  
    26   10   32 1   
    27   11   12 1   
    28   11   18 ar  
    29   12   13 2   
    30   12   33 1   
    31   13   14 1   
    32   13   15 1   
    33   14   34 1   
    34   14   35 1   
    35   14   36 1   
    36   15   16 2   
    37   15   17 1   
    38   17   18 1   
    39   17   37 1   
@<TRIPOS>SUBSTRUCTURE
     1 JTF         1 TEMP              0 ****  ****    0 ROOT
