@<TRIPOS>MOLECULE
JTF
   38    39     1     0     0
SMALL
bcc


@<TRIPOS>ATOM
      1 C01        -0.0770   -1.0260   -0.5980 c3        1 JTF      0.082100
      2 N01         1.3880   -1.1130   -0.3670 nx        1 JTF     -0.677400
      3 C02         1.6990   -2.1850    0.6170 c3        1 JTF      0.082100
      4 C03         2.1350   -1.3500   -1.6460 c3        1 JTF      0.086800
      5 C04         2.2270   -0.0850   -2.5350 c3        1 JTF      0.165800
      6 N02         3.1260   -0.3270   -3.6430 nu        1 JTF     -0.715600
      7 C05         2.5320   -0.9600   -4.7790 ca        1 JTF     -0.014400
      8 C06         1.8160   -0.2290   -5.7370 ca        1 JTF     -0.103000
      9 C07         1.2730   -0.8470   -6.8630 ca        1 JTF     -0.152000
     10 C08         1.4280   -2.2120   -7.0530 ca        1 JTF     -0.057000
     11 C09         2.1400   -2.9840   -6.1240 ca        1 JTF     -0.117800
     12 C10         2.3120   -4.4050   -6.3120 cc        1 JTF     -0.052200
     13 C11         2.9860   -5.1620   -5.4150 cd        1 JTF     -0.150400
     14 C12         3.2050   -6.6160   -5.5640 c3        1 JTF     -0.055900
     15 C13         3.5800   -4.5340   -4.2180 c         1 JTF      0.688700
     16 O1          4.1940   -5.1370   -3.3190 o         1 JTF     -0.619500
     17 N1          3.4120   -3.1470   -4.0600 ns        1 JTF     -0.457100
     18 C1          2.7180   -2.3680   -4.9780 ca        1 JTF      0.103600
     19 H011       -0.2910   -0.2080   -1.3360 hx        1 JTF      0.106867
     20 H012       -0.4520   -2.0040   -1.0050 hx        1 JTF      0.106867
     21 H013       -0.5950   -0.8030    0.3740 hx        1 JTF      0.106867
     22 H021        1.4270   -3.1830    0.1810 hx        1 JTF      0.106867
     23 H022        2.7970   -2.1680    0.8550 hx        1 JTF      0.106867
     24 H023        1.1070   -2.0090    1.5560 hx        1 JTF      0.106867
     25 H031        3.1740   -1.6980   -1.3750 hx        1 JTF      0.116700
     26 H032        1.6110   -2.1770   -2.2050 hx        1 JTF      0.116700
     27 H041        1.1870    0.1950   -2.8730 h1        1 JTF      0.051700
     28 H042        2.6400    0.7670   -1.9230 h1        1 JTF      0.051700
     29 H02         3.5940    0.5190   -3.9130 hn        1 JTF      0.410800
     30 H06         1.6840    0.8590   -5.6120 ha        1 JTF      0.139000
     31 H07         0.7230   -0.2450   -7.6030 ha        1 JTF      0.155000
     32 H08         0.9970   -2.7030   -7.9410 ha        1 JTF      0.155000
     33 H10         1.8730   -4.8540   -7.2190 ha        1 JTF      0.156000
     34 H121        4.2910   -6.8200   -5.7470 hc        1 JTF      0.063033
     35 H122        2.9130   -7.1470   -4.6220 hc        1 JTF      0.063033
     36 H123        2.6120   -7.0290   -6.4150 hc        1 JTF      0.063033
     37 H1          3.9750   -2.6930   -3.3730 hn        1 JTF      0.331500
     38 H014        1.7040   -0.2140    0.0250 hn        1 JTF      0.447800
@<TRIPOS>BOND
     1    1    2 1   
     2    1   19 1   
     3    1   20 1   
     4    1   21 1   
     5    2    3 1   
     6    2    4 1   
     7    2   38 1   
     8    3   22 1   
     9    3   23 1   
    10    3   24 1   
    11    4    5 1   
    12    4   25 1   
    13    4   26 1   
    14    5    6 1   
    15    5   27 1   
    16    5   28 1   
    17    6    7 1   
    18    6   29 1   
    19    7    8 ar  
    20    7   18 ar  
    21    8    9 ar  
    22    8   30 1   
    23    9   10 ar  
    24    9   31 1   
    25   10   11 ar  
    26   10   32 1   
    27   11   12 1   
    28   11   18 ar  
    29   12   13 2   
    30   12   33 1   
    31   13   14 1   
    32   13   15 1   
    33   14   34 1   
    34   14   35 1   
    35   14   36 1   
    36   15   16 2   
    37   15   17 1   
    38   17   18 1   
    39   17   37 1   
@<TRIPOS>SUBSTRUCTURE
     1 JTF         1 TEMP              0 ****  ****    0 ROOT
