@<TRIPOS>MOLECULE
JTH
   25    25     1     0     0
SMALL
bcc


@<TRIPOS>ATOM
      1 C1         -0.0370   -0.1980   -0.0200 c         1 JTH      0.514500
      2 O1         -0.5900   -0.2620   -1.1450 o         1 JTH     -0.605100
      3 C2          1.4230   -0.1720    0.0420 cc        1 JTH      0.031900
      4 O2          2.0660   -0.2220   -1.1840 oh        1 JTH     -0.508100
      5 C3          2.2720   -0.1050    1.1060 cd        1 JTH     -0.108000
      6 C4          1.9870   -0.0410    2.4980 cd        1 JTH     -0.041200
      7 C5          0.7540   -0.0320    3.0800 cc        1 JTH     -0.116000
      8 C6         -0.5290   -0.0820    2.4890 cc        1 JTH     -0.108000
      9 C7         -0.8770   -0.1520    1.1730 cd        1 JTH      0.028900
     10 O7         -2.2410   -0.1850    0.9440 oh        1 JTH     -0.505100
     11 C41         4.0480   -1.2200    3.2730 c3        1 JTH     -0.092100
     12 C42         3.1910    0.0230    3.4090 c3        1 JTH     -0.034500
     13 C43         4.0080    1.2730    3.1500 c3        1 JTH     -0.092100
     14 H3          3.3530   -0.1010    0.8430 ha        1 JTH      0.156000
     15 H5          0.7200    0.0220    4.1890 ha        1 JTH      0.134000
     16 H6         -1.3760   -0.0600    3.2080 ha        1 JTH      0.153000
     17 H41         3.4390   -2.1360    3.4630 hc        1 JTH      0.040367
     18 H41A        4.8830   -1.1860    4.0130 hc        1 JTH      0.040367
     19 H41B        4.4890   -1.2950    2.2500 hc        1 JTH      0.040367
     20 H42         2.8300    0.0700    4.4790 hc        1 JTH      0.053700
     21 H43         4.8430    1.3380    3.8890 hc        1 JTH      0.040367
     22 H43A        3.3700    2.1840    3.2500 hc        1 JTH      0.040367
     23 H43B        4.4480    1.2610    2.1240 hc        1 JTH      0.040367
     24 H11         1.3970   -0.2670   -1.8890 ho        1 JTH      0.448000
     25 H12        -2.3970   -0.2350   -0.0150 ho        1 JTH      0.447000
@<TRIPOS>BOND
     1    1    2 2   
     2    1    3 1   
     3    1    9 1   
     4    3    4 1   
     5    3    5 2   
     6    4   24 1   
     7    5    6 1   
     8    5   14 1   
     9    6    7 2   
    10    6   12 1   
    11    7    8 1   
    12    7   15 1   
    13    8    9 2   
    14    8   16 1   
    15    9   10 1   
    16   10   25 1   
    17   11   12 1   
    18   11   17 1   
    19   11   18 1   
    20   11   19 1   
    21   12   13 1   
    22   12   20 1   
    23   13   21 1   
    24   13   22 1   
    25   13   23 1   
@<TRIPOS>SUBSTRUCTURE
     1 JTH         1 TEMP              0 ****  ****    0 ROOT
