@<TRIPOS>MOLECULE
JTH
   25    25     1     0     0
SMALL
bcc


@<TRIPOS>ATOM
      1 C1          1.8270   -0.4670   -0.0000 c         1 JTH      0.514500
      2 O1          2.9260   -1.0740   -0.0010 o         1 JTH     -0.605100
      3 C2          0.5940   -1.2500   -0.0000 cc        1 JTH      0.031900
      4 O2          0.7690   -2.6240   -0.0000 oh        1 JTH     -0.508100
      5 C3         -0.7120   -0.8620    0.0000 cd        1 JTH     -0.108000
      6 C4         -1.2760    0.4440    0.0000 cd        1 JTH     -0.041200
      7 C5         -0.5980    1.6270    0.0000 cc        1 JTH     -0.116000
      8 C6          0.7940    1.8750   -0.0000 cc        1 JTH     -0.108000
      9 C7          1.8330    0.9930   -0.0000 cd        1 JTH      0.028900
     10 O7          3.0840    1.5850   -0.0010 oh        1 JTH     -0.505100
     11 C41        -3.3590   -0.1380   -1.2480 c3        1 JTH     -0.092100
     12 C42        -2.7850    0.5030    0.0010 c3        1 JTH     -0.034500
     13 C43        -3.3590   -0.1380    1.2490 c3        1 JTH     -0.092100
     14 H3         -1.4480   -1.6960    0.0000 ha        1 JTH      0.156000
     15 H5         -1.2050    2.5560    0.0000 ha        1 JTH      0.134000
     16 H6          1.0780    2.9490   -0.0000 ha        1 JTH      0.153000
     17 H41        -4.4680   -0.0070   -1.2630 hc        1 JTH      0.040367
     18 H41A       -2.9310    0.3390   -2.1630 hc        1 JTH      0.040367
     19 H41B       -3.1340   -1.2300   -1.2800 hc        1 JTH      0.040367
     20 H42        -3.1020    1.5880    0.0010 hc        1 JTH      0.053700
     21 H43        -2.9300    0.3380    2.1640 hc        1 JTH      0.040367
     22 H43A       -4.4680   -0.0070    1.2650 hc        1 JTH      0.040367
     23 H43B       -3.1340   -1.2310    1.2800 hc        1 JTH      0.040367
     24 H11         1.7220   -2.8210   -0.0010 ho        1 JTH      0.448000
     25 H12         3.7620    0.8860   -0.0010 ho        1 JTH      0.447000
@<TRIPOS>BOND
     1    1    2 2   
     2    1    3 1   
     3    1    9 1   
     4    3    4 1   
     5    3    5 2   
     6    4   24 1   
     7    5    6 1   
     8    5   14 1   
     9    6    7 2   
    10    6   12 1   
    11    7    8 1   
    12    7   15 1   
    13    8    9 2   
    14    8   16 1   
    15    9   10 1   
    16   10   25 1   
    17   11   12 1   
    18   11   17 1   
    19   11   18 1   
    20   11   19 1   
    21   12   13 1   
    22   12   20 1   
    23   13   21 1   
    24   13   22 1   
    25   13   23 1   
@<TRIPOS>SUBSTRUCTURE
     1 JTH         1 TEMP              0 ****  ****    0 ROOT
