@<TRIPOS>MOLECULE
JTH
   25    25     1     0     0
SMALL
bcc


@<TRIPOS>ATOM
      1 C1         -0.0330   -0.2150   -0.0220 c         1 JTH      0.514500
      2 O1         -0.5840   -0.2910   -1.1470 o         1 JTH     -0.605100
      3 C2          1.4270   -0.1910    0.0430 cc        1 JTH      0.031900
      4 O2          2.0720   -0.2560   -1.1810 oh        1 JTH     -0.508100
      5 C3          2.2740   -0.1150    1.1070 cd        1 JTH     -0.108000
      6 C4          1.9860   -0.0360    2.4980 cd        1 JTH     -0.041200
      7 C5          0.7520   -0.0180    3.0780 cc        1 JTH     -0.116000
      8 C6         -0.5300   -0.0710    2.4850 cc        1 JTH     -0.108000
      9 C7         -0.8750   -0.1550    1.1690 cd        1 JTH      0.028900
     10 O7         -2.2390   -0.1880    0.9370 oh        1 JTH     -0.505100
     11 C41         4.0430   -1.2110    3.2890 c3        1 JTH     -0.092100
     12 C42         3.1880    0.0350    3.4110 c3        1 JTH     -0.034500
     13 C43         4.0080    1.2820    3.1400 c3        1 JTH     -0.092100
     14 H3          3.3550   -0.1160    0.8470 ha        1 JTH      0.156000
     15 H5          0.7160    0.0480    4.1850 ha        1 JTH      0.134000
     16 H6         -1.3790   -0.0400    3.2010 ha        1 JTH      0.153000
     17 H41         3.4320   -2.1240    3.4880 hc        1 JTH      0.040367
     18 H41A        4.8760   -1.1700    4.0320 hc        1 JTH      0.040367
     19 H41B        4.4860   -1.2970    2.2680 hc        1 JTH      0.040367
     20 H42         2.8250    0.0940    4.4790 hc        1 JTH      0.053700
     21 H43         4.8410    1.3530    3.8800 hc        1 JTH      0.040367
     22 H43A        3.3710    2.1940    3.2310 hc        1 JTH      0.040367
     23 H43B        4.4500    1.2580    2.1150 hc        1 JTH      0.040367
     24 H11         1.4040   -0.3070   -1.8880 ho        1 JTH      0.448000
     25 H12        -2.3930   -0.2480   -0.0220 ho        1 JTH      0.447000
@<TRIPOS>BOND
     1    1    2 2   
     2    1    3 1   
     3    1    9 1   
     4    3    4 1   
     5    3    5 2   
     6    4   24 1   
     7    5    6 1   
     8    5   14 1   
     9    6    7 2   
    10    6   12 1   
    11    7    8 1   
    12    7   15 1   
    13    8    9 2   
    14    8   16 1   
    15    9   10 1   
    16   10   25 1   
    17   11   12 1   
    18   11   17 1   
    19   11   18 1   
    20   11   19 1   
    21   12   13 1   
    22   12   20 1   
    23   13   21 1   
    24   13   22 1   
    25   13   23 1   
@<TRIPOS>SUBSTRUCTURE
     1 JTH         1 TEMP              0 ****  ****    0 ROOT
