@<TRIPOS>MOLECULE
JTP
   62    66     1     0     0
SMALL
bcc


@<TRIPOS>ATOM
      1 C1          0.0180    0.0470   -0.3700 c3        1 JTP     -0.086100
      2 C2          1.5190   -0.0090   -0.0720 c3        1 JTP     -0.027600
      3 N3          1.7840    0.0170    1.3610 n         1 JTP     -0.515900
      4 C4          1.6480   -1.0280    2.2260 c         1 JTP      0.655700
      5 C5          2.2210   -0.8380    3.6060 ca        1 JTP     -0.103600
      6 C6          1.5370   -1.4330    4.6890 ca        1 JTP     -0.114000
      7 C7          2.0010   -1.3170    5.9880 ca        1 JTP     -0.107000
      8 C8          3.1710   -0.5930    6.2370 ca        1 JTP     -0.083800
      9 C9          3.8720    0.0000    5.1200 ca        1 JTP     -0.038200
     10 N10         5.0230    0.6260    5.6110 na        1 JTP     -0.068400
     11 C11         5.0390    0.4820    7.0160 cc        1 JTP     -0.009300
     12 C12         6.1120    1.0840    7.7930 ca        1 JTP     -0.046800
     13 C13         6.5340    2.4040    7.5280 ca        1 JTP      0.112100
     14 C14         7.5850    2.9800    8.2560 ca        1 JTP     -0.144000
     15 C15         8.2140    2.2410    9.2550 ca        1 JTP     -0.121000
     16 C16         7.8060    0.9340    9.5230 ca        1 JTP     -0.148000
     17 C17         6.7680    0.3570    8.7950 ca        1 JTP     -0.102000
     18 O18         5.8350    3.2340    6.6660 os        1 JTP     -0.337900
     19 C19         5.9180    2.9400    5.2700 c3        1 JTP      0.113400
     20 C20         5.9380    1.4550    4.8930 c3        1 JTP      0.013300
     21 C21         3.9290   -0.2680    7.4290 cd        1 JTP     -0.106400
     22 C22         3.5900   -0.6220    8.8230 c3        1 JTP      0.008500
     23 C23         2.2230   -0.0690    9.2170 c3        1 JTP     -0.072900
     24 C24         1.8750   -0.4420   10.6430 c3        1 JTP     -0.075900
     25 C25         1.9290   -1.9410   10.8520 c3        1 JTP     -0.076400
     26 C26         3.2820   -2.4990   10.4600 c3        1 JTP     -0.075900
     27 C27         3.6390   -2.1320    9.0350 c3        1 JTP     -0.072900
     28 C28         3.3980   -0.1290    3.8040 ca        1 JTP     -0.120000
     29 O29         1.0420   -2.0940    1.9590 o         1 JTP     -0.655100
     30 C30         2.2000    1.2530   -0.7640 c         1 JTP      0.919600
     31 O31         1.9350    1.4330   -1.9800 o         1 JTP     -0.829800
     32 O32         2.9670    1.9810   -0.0720 o         1 JTP     -0.829800
     33 C33         2.1030   -1.2450   -0.7640 c3        1 JTP     -0.086100
     34 H11        -0.1120    0.1350   -1.4760 hc        1 JTP      0.033367
     35 H12        -0.4920   -0.8750   -0.0040 hc        1 JTP      0.033367
     36 H13        -0.4490    0.9380    0.1120 hc        1 JTP      0.033367
     37 H331        1.9300   -1.1390   -1.8630 hc        1 JTP      0.033367
     38 H332        1.6120   -2.1780   -0.3960 hc        1 JTP      0.033367
     39 H333        3.2010   -1.3170   -0.5840 hc        1 JTP      0.033367
     40 HN3         2.3120    0.8200    1.6450 hn        1 JTP      0.333500
     41 H6          0.6240   -2.0090    4.4680 ha        1 JTP      0.152000
     42 H7          1.4600   -1.7940    6.8180 ha        1 JTP      0.127000
     43 H28         3.9540    0.3170    2.9650 ha        1 JTP      0.156000
     44 H201        5.7160    1.3760    3.7900 h1        1 JTP      0.072700
     45 H202        6.9800    1.0580    5.0760 h1        1 JTP      0.072700
     46 H191        5.0080    3.4540    4.8550 h1        1 JTP      0.064700
     47 H192        6.8490    3.4200    4.8640 h1        1 JTP      0.064700
     48 H14         7.8870    4.0140    8.0400 ha        1 JTP      0.144000
     49 H15         9.0350    2.6910    9.8310 ha        1 JTP      0.128000
     50 H16         8.3090    0.3530   10.3090 ha        1 JTP      0.129000
     51 H17         6.4560   -0.6790    8.9990 ha        1 JTP      0.144000
     52 H22         4.3550   -0.1510    9.5090 hc        1 JTP      0.047700
     53 H271        4.6690   -2.5050    8.7960 hc        1 JTP      0.047450
     54 H272        2.9270   -2.6280    8.3240 hc        1 JTP      0.047450
     55 H261        4.0650   -2.0990   11.1570 hc        1 JTP      0.033700
     56 H262        3.2740   -3.6150   10.5670 hc        1 JTP      0.033700
     57 H251        1.1310   -2.4330   10.2360 hc        1 JTP      0.035200
     58 H252        1.7200   -2.1810   11.9270 hc        1 JTP      0.035200
     59 H241        2.5900    0.0590   11.3470 hc        1 JTP      0.033700
     60 H242        0.8470   -0.0660   10.8860 hc        1 JTP      0.033700
     61 H231        1.4420   -0.4690    8.5190 hc        1 JTP      0.047450
     62 H232        2.2310    1.0460    9.1100 hc        1 JTP      0.047450
@<TRIPOS>BOND
     1    1    2 1   
     2    1   34 1   
     3    1   35 1   
     4    1   36 1   
     5    2    3 1   
     6    2   30 1   
     7    2   33 1   
     8    3    4 1   
     9    3   40 1   
    10    4    5 1   
    11    4   29 2   
    12    5    6 ar  
    13    5   28 ar  
    14    6    7 ar  
    15    6   41 1   
    16    7    8 ar  
    17    7   42 1   
    18    8    9 ar  
    19    8   21 1   
    20    9   10 1   
    21    9   28 ar  
    22   10   11 1   
    23   10   20 1   
    24   11   12 1   
    25   11   21 2   
    26   12   13 ar  
    27   12   17 ar  
    28   13   14 ar  
    29   13   18 1   
    30   14   15 ar  
    31   14   48 1   
    32   15   16 ar  
    33   15   49 1   
    34   16   17 ar  
    35   16   50 1   
    36   17   51 1   
    37   18   19 1   
    38   19   20 1   
    39   19   46 1   
    40   19   47 1   
    41   20   44 1   
    42   20   45 1   
    43   21   22 1   
    44   22   23 1   
    45   22   27 1   
    46   22   52 1   
    47   23   24 1   
    48   23   61 1   
    49   23   62 1   
    50   24   25 1   
    51   24   59 1   
    52   24   60 1   
    53   25   26 1   
    54   25   57 1   
    55   25   58 1   
    56   26   27 1   
    57   26   55 1   
    58   26   56 1   
    59   27   53 1   
    60   27   54 1   
    61   28   43 1   
    62   30   31 1   
    63   30   32 1   
    64   33   37 1   
    65   33   38 1   
    66   33   39 1   
@<TRIPOS>SUBSTRUCTURE
     1 JTP         1 TEMP              0 ****  ****    0 ROOT
