@<TRIPOS>MOLECULE
JTP
   62    66     1     0     0
SMALL
bcc


@<TRIPOS>ATOM
      1 C1         11.1180    2.1800   -5.2850 c3        1 JTP     -0.086100
      2 C2         10.2870    1.3570   -6.2750 c3        1 JTP     -0.027600
      3 N3          9.0400    0.8960   -5.6750 n         1 JTP     -0.515900
      4 C4          7.9200    1.6420   -5.4670 c         1 JTP      0.655700
      5 C5          6.6740    0.8930   -5.0730 ca        1 JTP     -0.103600
      6 C6          5.7880    1.5200   -4.1710 ca        1 JTP     -0.114000
      7 C7          4.6150    0.9060   -3.7640 ca        1 JTP     -0.107000
      8 C8          4.3020   -0.3660   -4.2540 ca        1 JTP     -0.083800
      9 C9          5.2090   -0.9940   -5.1870 ca        1 JTP     -0.038200
     10 N10         4.6620   -2.2260   -5.5640 na        1 JTP     -0.068400
     11 C11         3.4560   -2.4100   -4.8530 cc        1 JTP     -0.009300
     12 C12         2.6960   -3.6390   -5.0210 ca        1 JTP     -0.046800
     13 C13         3.3490   -4.8900   -5.0160 ca        1 JTP      0.112100
     14 C14         2.6260   -6.0760   -5.2050 ca        1 JTP     -0.144000
     15 C15         1.2480   -6.0170   -5.3920 ca        1 JTP     -0.121000
     16 C16         0.5930   -4.7860   -5.4010 ca        1 JTP     -0.148000
     17 C17         1.3110   -3.6060   -5.2220 ca        1 JTP     -0.102000
     18 O18         4.6860   -5.0140   -4.6690 os        1 JTP     -0.337900
     19 C19         5.6490   -4.5280   -5.6060 c3        1 JTP      0.113400
     20 C20         5.2730   -3.2450   -6.3560 c3        1 JTP      0.013300
     21 C21         3.2000   -1.2870   -4.0530 cd        1 JTP     -0.106400
     22 C22         2.0420   -1.1060   -3.1550 c3        1 JTP      0.008500
     23 C23         2.4880   -0.9070   -1.7090 c3        1 JTP     -0.072900
     24 C24         1.2980   -0.7120   -0.7920 c3        1 JTP     -0.075900
     25 C25         0.4300    0.4420   -1.2500 c3        1 JTP     -0.076400
     26 C26        -0.0150    0.2530   -2.6860 c3        1 JTP     -0.075900
     27 C27         1.1680    0.0590   -3.6110 c3        1 JTP     -0.072900
     28 C28         6.3920   -0.3610   -5.6000 ca        1 JTP     -0.120000
     29 O29         7.8810    2.8950   -5.5350 o         1 JTP     -0.655100
     30 C30        11.1620    0.1050   -6.7210 c         1 JTP      0.919600
     31 O31        12.3260    0.3520   -7.1270 o         1 JTP     -0.829800
     32 O32        10.6430   -1.0460   -6.6610 o         1 JTP     -0.829800
     33 C33        10.0660    2.1990   -7.5360 c3        1 JTP     -0.086100
     34 H11        12.1000    2.4080   -5.7650 hc        1 JTP      0.033367
     35 H12        10.5950    3.1310   -5.0260 hc        1 JTP      0.033367
     36 H13        11.3070    1.6020   -4.3500 hc        1 JTP      0.033367
     37 H331       11.0670    2.4340   -7.9730 hc        1 JTP      0.033367
     38 H332        9.5310    3.1480   -7.2940 hc        1 JTP      0.033367
     39 H333        9.4740    1.6310   -8.2920 hc        1 JTP      0.033367
     40 HN3         8.9760   -0.1030   -5.6330 hn        1 JTP      0.333500
     41 H6          6.0500    2.5270   -3.8070 ha        1 JTP      0.152000
     42 H7          3.9330    1.4130   -3.0670 ha        1 JTP      0.127000
     43 H28         7.0630   -0.8480   -6.3240 ha        1 JTP      0.156000
     44 H201        6.2130   -2.8310   -6.8240 h1        1 JTP      0.072700
     45 H202        4.5530   -3.5170   -7.1830 h1        1 JTP      0.072700
     46 H191        5.8430   -5.3340   -6.3620 h1        1 JTP      0.064700
     47 H192        6.5600   -4.3720   -4.9650 h1        1 JTP      0.064700
     48 H14         3.1560   -7.0400   -5.1850 ha        1 JTP      0.144000
     49 H15         0.6770   -6.9460   -5.5350 ha        1 JTP      0.128000
     50 H16        -0.4960   -4.7440   -5.5530 ha        1 JTP      0.129000
     51 H17         0.7940   -2.6330   -5.2420 ha        1 JTP      0.144000
     52 H22         1.4120   -2.0450   -3.1870 hc        1 JTP      0.047700
     53 H271        0.8030   -0.1390   -4.6530 hc        1 JTP      0.047450
     54 H272        1.7850    0.9950   -3.6420 hc        1 JTP      0.047450
     55 H261       -0.6930   -0.6390   -2.7520 hc        1 JTP      0.033700
     56 H262       -0.6040    1.1480   -3.0170 hc        1 JTP      0.033700
     57 H251        1.0060    1.4000   -1.1620 hc        1 JTP      0.035200
     58 H252       -0.4690    0.5250   -0.5850 hc        1 JTP      0.035200
     59 H241        1.6600   -0.5180    0.2510 hc        1 JTP      0.033700
     60 H242        0.6860   -1.6520   -0.7670 hc        1 JTP      0.033700
     61 H231        3.1650   -0.0150   -1.6460 hc        1 JTP      0.047450
     62 H232        3.0770   -1.8010   -1.3780 hc        1 JTP      0.047450
@<TRIPOS>BOND
     1    1    2 1   
     2    1   34 1   
     3    1   35 1   
     4    1   36 1   
     5    2    3 1   
     6    2   30 1   
     7    2   33 1   
     8    3    4 1   
     9    3   40 1   
    10    4    5 1   
    11    4   29 2   
    12    5    6 ar  
    13    5   28 ar  
    14    6    7 ar  
    15    6   41 1   
    16    7    8 ar  
    17    7   42 1   
    18    8    9 ar  
    19    8   21 1   
    20    9   10 1   
    21    9   28 ar  
    22   10   11 1   
    23   10   20 1   
    24   11   12 1   
    25   11   21 2   
    26   12   13 ar  
    27   12   17 ar  
    28   13   14 ar  
    29   13   18 1   
    30   14   15 ar  
    31   14   48 1   
    32   15   16 ar  
    33   15   49 1   
    34   16   17 ar  
    35   16   50 1   
    36   17   51 1   
    37   18   19 1   
    38   19   20 1   
    39   19   46 1   
    40   19   47 1   
    41   20   44 1   
    42   20   45 1   
    43   21   22 1   
    44   22   23 1   
    45   22   27 1   
    46   22   52 1   
    47   23   24 1   
    48   23   61 1   
    49   23   62 1   
    50   24   25 1   
    51   24   59 1   
    52   24   60 1   
    53   25   26 1   
    54   25   57 1   
    55   25   58 1   
    56   26   27 1   
    57   26   55 1   
    58   26   56 1   
    59   27   53 1   
    60   27   54 1   
    61   28   43 1   
    62   30   31 1   
    63   30   32 1   
    64   33   37 1   
    65   33   38 1   
    66   33   39 1   
@<TRIPOS>SUBSTRUCTURE
     1 JTP         1 TEMP              0 ****  ****    0 ROOT
