@<TRIPOS>MOLECULE
JTP
   63    67     1     0     0
SMALL
bcc


@<TRIPOS>ATOM
      1 C1          1.3150    0.0070   -0.9870 c3        1 JTP     -0.108600
      2 C2          1.9390   -0.0430    0.4020 c3        1 JTP     -0.021800
      3 N3          0.9320    0.4160    1.4490 ny        1 JTP     -0.666800
      4 C4          0.6550   -0.5740    2.5350 c         1 JTP      0.581700
      5 C5          1.4550   -0.5060    3.7610 ca        1 JTP     -0.193600
      6 C6          0.9520   -1.2060    4.8880 ca        1 JTP     -0.097000
      7 C7          1.6200   -1.1950    6.0980 ca        1 JTP     -0.104000
      8 C8          2.8160   -0.4780    6.2210 ca        1 JTP     -0.030800
      9 C9          3.3290    0.2190    5.0560 ca        1 JTP     -0.061200
     10 N10         4.5380    0.8250    5.4080 na        1 JTP     -0.048400
     11 C11         4.7880    0.5510    6.7640 cc        1 JTP      0.048700
     12 C12         5.9810    1.0830    7.4070 ca        1 JTP     -0.076800
     13 C13         6.3800    2.4160    7.1750 ca        1 JTP      0.115100
     14 C14         7.5330    2.9350    7.7780 ca        1 JTP     -0.139000
     15 C15         8.2930    2.1210    8.6150 ca        1 JTP     -0.104000
     16 C16         7.9130    0.7980    8.8440 ca        1 JTP     -0.142000
     17 C17         6.7680    0.2800    8.2420 ca        1 JTP     -0.092000
     18 O18         5.5710    3.2970    6.4710 os        1 JTP     -0.336900
     19 C19         5.5080    3.1080    5.0570 c3        1 JTP      0.117400
     20 C20         5.3670    1.6560    4.5850 c3        1 JTP     -0.003700
     21 C21         3.7530   -0.2450    7.2930 cd        1 JTP     -0.127400
     22 C22         3.6430   -0.7100    8.6910 c3        1 JTP      0.003500
     23 C23         2.3550   -0.2130    9.3420 c3        1 JTP     -0.070900
     24 C24         2.2500   -0.6950   10.7740 c3        1 JTP     -0.077900
     25 C25         2.3480   -2.2040   10.8600 c3        1 JTP     -0.077400
     26 C26         3.6200   -2.7070   10.2090 c3        1 JTP     -0.077900
     27 C27         3.7340   -2.2320    8.7750 c3        1 JTP     -0.070900
     28 C28         2.6550    0.2020    3.8320 ca        1 JTP     -0.077000
     29 O29        -0.2890   -1.3370    2.3230 o         1 JTP     -0.497100
     30 C30         3.1920    0.9660    0.4070 c         1 JTP      0.930600
     31 O31         4.0870    0.7130   -0.4170 o         1 JTP     -0.770800
     32 O32         3.1440    1.9030    1.2540 o         1 JTP     -0.770800
     33 C33         2.4620   -1.4420    0.6830 c3        1 JTP     -0.108600
     34 H11         2.1310   -0.2080   -1.7240 hc        1 JTP      0.061700
     35 H12         0.5070   -0.7550   -1.1020 hc        1 JTP      0.061700
     36 H13         0.9050    1.0200   -1.2160 hc        1 JTP      0.061700
     37 H331        3.2570   -1.6590   -0.0750 hc        1 JTP      0.061700
     38 H332        1.6530   -2.2070    0.5980 hc        1 JTP      0.061700
     39 H333        2.9260   -1.5040    1.6980 hc        1 JTP      0.061700
     40 HN3         0.0520    0.6380    0.9780 hn        1 JTP      0.460300
     41 H6          0.0110   -1.7700    4.7800 ha        1 JTP      0.151000
     42 H7          1.2180   -1.7490    6.9600 ha        1 JTP      0.150000
     43 H28         3.0920    0.7310    2.9630 ha        1 JTP      0.197000
     44 H201        6.3940    1.1880    4.5510 h1        1 JTP      0.089200
     45 H202        4.9500    1.6730    3.5340 h1        1 JTP      0.089200
     46 H191        6.4330    3.5400    4.5900 h1        1 JTP      0.070700
     47 H192        4.6090    3.7190    4.7690 h1        1 JTP      0.070700
     48 H14         7.8160    3.9820    7.5940 ha        1 JTP      0.152000
     49 H15         9.1980    2.5240    9.0940 ha        1 JTP      0.139000
     50 H16         8.5210    0.1580    9.5000 ha        1 JTP      0.139000
     51 H17         6.4780   -0.7690    8.4150 ha        1 JTP      0.146000
     52 H22         4.5050   -0.2780    9.2800 hc        1 JTP      0.058700
     53 H271        2.9170   -2.6880    8.1580 hc        1 JTP      0.043200
     54 H272        4.7120   -2.5690    8.3430 hc        1 JTP      0.043200
     55 H261        4.5060   -2.3470   10.7940 hc        1 JTP      0.040200
     56 H262        3.6360   -3.8280   10.2300 hc        1 JTP      0.040200
     57 H251        1.4610   -2.6660   10.3520 hc        1 JTP      0.039700
     58 H252        2.3250   -2.5230   11.9340 hc        1 JTP      0.039700
     59 H241        1.2730   -0.3570   11.2090 hc        1 JTP      0.040200
     60 H242        3.0680   -0.2330   11.3860 hc        1 JTP      0.040200
     61 H231        1.4720   -0.5780    8.7560 hc        1 JTP      0.043200
     62 H232        2.3370    0.9070    9.3190 hc        1 JTP      0.043200
     63 H32         1.3330    1.2890    1.8570 hn        1 JTP      0.460300
@<TRIPOS>BOND
     1    1    2 1   
     2    1   34 1   
     3    1   35 1   
     4    1   36 1   
     5    2    3 1   
     6    2   30 1   
     7    2   33 1   
     8    3    4 1   
     9    3   40 1   
    10    3   63 1   
    11    4    5 1   
    12    4   29 2   
    13    5    6 ar  
    14    5   28 ar  
    15    6    7 ar  
    16    6   41 1   
    17    7    8 ar  
    18    7   42 1   
    19    8    9 ar  
    20    8   21 1   
    21    9   10 1   
    22    9   28 ar  
    23   10   11 1   
    24   10   20 1   
    25   11   12 1   
    26   11   21 2   
    27   12   13 ar  
    28   12   17 ar  
    29   13   14 ar  
    30   13   18 1   
    31   14   15 ar  
    32   14   48 1   
    33   15   16 ar  
    34   15   49 1   
    35   16   17 ar  
    36   16   50 1   
    37   17   51 1   
    38   18   19 1   
    39   19   20 1   
    40   19   46 1   
    41   19   47 1   
    42   20   44 1   
    43   20   45 1   
    44   21   22 1   
    45   22   23 1   
    46   22   27 1   
    47   22   52 1   
    48   23   24 1   
    49   23   61 1   
    50   23   62 1   
    51   24   25 1   
    52   24   59 1   
    53   24   60 1   
    54   25   26 1   
    55   25   57 1   
    56   25   58 1   
    57   26   27 1   
    58   26   55 1   
    59   26   56 1   
    60   27   53 1   
    61   27   54 1   
    62   28   43 1   
    63   30   31 1   
    64   30   32 1   
    65   33   37 1   
    66   33   38 1   
    67   33   39 1   
@<TRIPOS>SUBSTRUCTURE
     1 JTP         1 TEMP              0 ****  ****    0 ROOT
