@<TRIPOS>MOLECULE
JTP
   63    67     1     0     0
SMALL
bcc


@<TRIPOS>ATOM
      1 C1          0.3380    0.1830    1.4410 c3        1 JTP     -0.108600
      2 C2          1.5100   -0.2020    0.5540 c3        1 JTP     -0.021800
      3 N3          2.7330    0.6700    0.8070 n4        1 JTP     -0.666800
      4 C4          2.5550    1.7170    1.8610 c         1 JTP      0.581700
      5 C5          2.9210    1.3870    3.2410 ca        1 JTP     -0.193600
      6 C6          3.0740    2.4770    4.1360 ca        1 JTP     -0.097000
      7 C7          3.4330    2.2780    5.4560 ca        1 JTP     -0.104000
      8 C8          3.6520    0.9770    5.9250 ca        1 JTP     -0.030800
      9 C9          3.4750   -0.1310    5.0030 ca        1 JTP     -0.061200
     10 N10         3.7110   -1.3190    5.7000 na        1 JTP     -0.048400
     11 C11         4.0550   -0.9910    7.0230 cc        1 JTP      0.048700
     12 C12         4.3770   -2.0460    7.9740 ca        1 JTP     -0.076800
     13 C13         5.1990   -3.1250    7.5890 ca        1 JTP      0.115100
     14 C14         5.5050   -4.1520    8.4920 ca        1 JTP     -0.139000
     15 C15         4.9870   -4.1020    9.7840 ca        1 JTP     -0.104000
     16 C16         4.1650   -3.0440   10.1730 ca        1 JTP     -0.142000
     17 C17         3.8580   -2.0240    9.2750 ca        1 JTP     -0.092000
     18 O18         5.8510   -3.1310    6.3640 os        1 JTP     -0.336900
     19 C19         5.0420   -3.3850    5.2160 c3        1 JTP      0.117400
     20 C20         3.6950   -2.6530    5.1750 c3        1 JTP     -0.003700
     21 C21         4.0290    0.4060    7.1950 cd        1 JTP     -0.127400
     22 C22         4.3640    1.1360    8.4360 c3        1 JTP      0.003500
     23 C23         5.5260    2.1020    8.2160 c3        1 JTP     -0.070900
     24 C24         5.8620    2.8450    9.4920 c3        1 JTP     -0.077900
     25 C25         4.6540    3.5720   10.0450 c3        1 JTP     -0.077400
     26 C26         3.4940    2.6230   10.2590 c3        1 JTP     -0.077900
     27 C27         3.1490    1.8750    8.9880 c3        1 JTP     -0.070900
     28 C28         3.1070    0.0730    3.6700 ca        1 JTP     -0.077000
     29 O29         2.1670    2.8130    1.4520 o         1 JTP     -0.497100
     30 C30         1.8880   -1.7340    0.8680 c         1 JTP      0.930600
     31 O31         3.0660   -1.9400    1.2770 o         1 JTP     -0.770800
     32 O32         0.9770   -2.5580    0.6870 o         1 JTP     -0.770800
     33 C33         1.1000   -0.1210   -0.9100 c3        1 JTP     -0.108600
     34 H11         0.6140    0.1310    2.5230 hc        1 JTP      0.061700
     35 H12        -0.0380    1.2080    1.2040 hc        1 JTP      0.061700
     36 H13        -0.4790   -0.5610    1.2560 hc        1 JTP      0.061700
     37 H331        0.7110    0.8920   -1.1730 hc        1 JTP      0.061700
     38 H332        0.2880   -0.8770   -1.0690 hc        1 JTP      0.061700
     39 H333        1.9480   -0.3820   -1.5890 hc        1 JTP      0.061700
     40 HN3         2.9920    1.1300   -0.0680 hn        1 JTP      0.460300
     41 H6          2.8960    3.4970    3.7590 ha        1 JTP      0.151000
     42 H7          3.5410    3.1350    6.1380 ha        1 JTP      0.150000
     43 H28         2.9630   -0.8020    3.0070 ha        1 JTP      0.197000
     44 H201        3.3490   -2.6250    4.0990 h1        1 JTP      0.089200
     45 H202        2.9440   -3.2470    5.7740 h1        1 JTP      0.089200
     46 H191        5.7080   -3.0600    4.3700 h1        1 JTP      0.070700
     47 H192        4.8430   -4.4880    5.1470 h1        1 JTP      0.070700
     48 H14         6.1600   -4.9750    8.1740 ha        1 JTP      0.152000
     49 H15         5.2270   -4.9040   10.4990 ha        1 JTP      0.139000
     50 H16         3.7530   -3.0140   11.1930 ha        1 JTP      0.139000
     51 H17         3.1980   -1.1970    9.5820 ha        1 JTP      0.146000
     52 H22         4.6960    0.3840    9.2130 hc        1 JTP      0.058700
     53 H271        2.3290    1.1390    9.1950 hc        1 JTP      0.043200
     54 H272        2.7690    2.5950    8.2160 hc        1 JTP      0.043200
     55 H261        3.7570    1.8880   11.0650 hc        1 JTP      0.040200
     56 H262        2.5970    3.1970   10.6070 hc        1 JTP      0.040200
     57 H251        4.9230    4.0630   11.0170 hc        1 JTP      0.039700
     58 H252        4.3480    4.3830    9.3320 hc        1 JTP      0.039700
     59 H241        6.2440    2.1190   10.2580 hc        1 JTP      0.040200
     60 H242        6.6830    3.5810    9.2880 hc        1 JTP      0.040200
     61 H231        6.4230    1.5290    7.8650 hc        1 JTP      0.043200
     62 H232        5.2570    2.8350    7.4120 hc        1 JTP      0.043200
     63 H32         3.4930    0.0100    1.0870 hn        1 JTP      0.460300
@<TRIPOS>BOND
     1    1    2 1   
     2    1   34 1   
     3    1   35 1   
     4    1   36 1   
     5    2    3 1   
     6    2   30 1   
     7    2   33 1   
     8    3    4 1   
     9    3   40 1   
    10    3   63 1   
    11    4    5 1   
    12    4   29 2   
    13    5    6 ar  
    14    5   28 ar  
    15    6    7 ar  
    16    6   41 1   
    17    7    8 ar  
    18    7   42 1   
    19    8    9 ar  
    20    8   21 1   
    21    9   10 1   
    22    9   28 ar  
    23   10   11 1   
    24   10   20 1   
    25   11   12 1   
    26   11   21 2   
    27   12   13 ar  
    28   12   17 ar  
    29   13   14 ar  
    30   13   18 1   
    31   14   15 ar  
    32   14   48 1   
    33   15   16 ar  
    34   15   49 1   
    35   16   17 ar  
    36   16   50 1   
    37   17   51 1   
    38   18   19 1   
    39   19   20 1   
    40   19   46 1   
    41   19   47 1   
    42   20   44 1   
    43   20   45 1   
    44   21   22 1   
    45   22   23 1   
    46   22   27 1   
    47   22   52 1   
    48   23   24 1   
    49   23   61 1   
    50   23   62 1   
    51   24   25 1   
    52   24   59 1   
    53   24   60 1   
    54   25   26 1   
    55   25   57 1   
    56   25   58 1   
    57   26   27 1   
    58   26   55 1   
    59   26   56 1   
    60   27   53 1   
    61   27   54 1   
    62   28   43 1   
    63   30   31 1   
    64   30   32 1   
    65   33   37 1   
    66   33   38 1   
    67   33   39 1   
@<TRIPOS>SUBSTRUCTURE
     1 JTP         1 TEMP              0 ****  ****    0 ROOT
