@<TRIPOS>MOLECULE
JTS
   32    34     1     0     0
SMALL
bcc


@<TRIPOS>ATOM
      1 C22         1.3140    2.1100    0.9680 cc        1 JTS      0.465300
      2 S21         2.6940    1.1270    0.9550 ss        1 JTS     -0.033300
      3 N23         0.3520    1.7490    1.8160 nd        1 JTS     -0.619000
      4 C24         0.7280    0.6090    2.5050 cd        1 JTS      0.523600
      5 C26        -0.1360   -0.0260    3.5200 c3        1 JTS     -0.168400
      6 C20         2.0160    0.1230    2.1360 cc        1 JTS     -0.386000
      7 C1          2.5770   -1.0460    2.7340 c         1 JTS      0.625700
      8 O8          2.1320   -1.7520    3.6340 o         1 JTS     -0.451100
      9 N9          3.9090   -1.5340    2.1680 n4        1 JTS     -0.542200
     10 C10         5.0560   -0.9170    2.8430 ca        1 JTS     -0.066400
     11 C15         5.2130   -1.0590    4.2130 ca        1 JTS     -0.052000
     12 C14         6.3370   -0.4810    4.8540 ca        1 JTS     -0.042000
     13 C16         6.5280   -0.6090    6.2580 ca        1 JTS     -0.110000
     14 C17         7.6260   -0.0430    6.8600 ca        1 JTS     -0.098000
     15 C18         8.5770    0.6730    6.0930 ca        1 JTS     -0.083000
     16 C19         8.4160    0.8110    4.7340 ca        1 JTS     -0.121000
     17 C13         7.2920    0.2370    4.0840 ca        1 JTS     -0.013000
     18 C12         7.0980    0.3600    2.6800 ca        1 JTS     -0.066000
     19 C11         6.0090   -0.1980    2.0620 ca        1 JTS     -0.145000
     20 H1          1.1980    2.9990    0.3300 h5        1 JTS      0.091100
     21 H2         -1.1290    0.4830    3.6080 hc        1 JTS      0.090367
     22 H3         -0.3000   -1.1030    3.2530 hc        1 JTS      0.090367
     23 H4          0.3790    0.0050    4.5160 hc        1 JTS      0.090367
     24 H5          3.9650   -2.5530    2.3100 hn        1 JTS      0.459800
     25 H6          4.4800   -1.6120    4.8270 ha        1 JTS      0.165000
     26 H7          5.7850   -1.1670    6.8490 ha        1 JTS      0.151000
     27 H8          7.7790   -0.1390    7.9470 ha        1 JTS      0.160000
     28 H9          9.4500    1.1160    6.6000 ha        1 JTS      0.160000
     29 H10         9.1530    1.3650    4.1310 ha        1 JTS      0.155000
     30 H11         7.8460    0.9160    2.0900 ha        1 JTS      0.165000
     31 H12         5.8810   -0.0970    0.9730 ha        1 JTS      0.146000
     32 H92         3.9580   -1.3330    1.1630 hn        1 JTS      0.459800
@<TRIPOS>BOND
     1    1    2 1   
     2    1    3 2   
     3    1   20 1   
     4    2    6 1   
     5    3    4 1   
     6    4    5 1   
     7    4    6 2   
     8    5   21 1   
     9    5   22 1   
    10    5   23 1   
    11    6    7 1   
    12    7    8 2   
    13    7    9 1   
    14    9   10 1   
    15    9   24 1   
    16    9   32 1   
    17   10   11 ar  
    18   10   19 ar  
    19   11   12 ar  
    20   11   25 1   
    21   12   13 ar  
    22   12   17 ar  
    23   13   14 ar  
    24   13   26 1   
    25   14   15 ar  
    26   14   27 1   
    27   15   16 ar  
    28   15   28 1   
    29   16   17 ar  
    30   16   29 1   
    31   17   18 ar  
    32   18   19 ar  
    33   18   30 1   
    34   19   31 1   
@<TRIPOS>SUBSTRUCTURE
     1 JTS         1 TEMP              0 ****  ****    0 ROOT
