@<TRIPOS>MOLECULE
JTS
   31    33     1     0     0
SMALL
bcc


@<TRIPOS>ATOM
      1 C22         0.1740    0.1310   -0.1530 cc        1 JTS      0.401300
      2 S21         1.8580    0.1040    0.0850 ss        1 JTS     -0.091300
      3 N23        -0.5620    0.0410    0.9480 nd        1 JTS     -0.635000
      4 C24         0.2700   -0.0570    2.0630 cd        1 JTS      0.437600
      5 C26        -0.2720   -0.1840    3.4340 c3        1 JTS     -0.139400
      6 C20         1.6390   -0.0300    1.7540 cc        1 JTS     -0.291000
      7 C1          2.7080   -0.1230    2.7620 c         1 JTS      0.721700
      8 O8          2.4690   -0.4570    3.9380 o         1 JTS     -0.582100
      9 N9          3.9900    0.1790    2.3120 ns        1 JTS     -0.470100
     10 C10         5.1730    0.1830    3.0700 ca        1 JTS      0.064600
     11 C15         5.2670   -0.3210    4.3600 ca        1 JTS     -0.149000
     12 C14         6.5030   -0.2970    5.0580 ca        1 JTS     -0.012000
     13 C16         6.6070   -0.8090    6.3820 ca        1 JTS     -0.119000
     14 C17         7.8080   -0.7820    7.0470 ca        1 JTS     -0.123000
     15 C18         8.9600   -0.2440    6.4250 ca        1 JTS     -0.133000
     16 C19         8.8880    0.2570    5.1490 ca        1 JTS     -0.111000
     17 C13         7.6580    0.2410    4.4380 ca        1 JTS     -0.060000
     18 C12         7.5460    0.7500    3.1170 ca        1 JTS     -0.092000
     19 C11         6.3520    0.7280    2.4490 ca        1 JTS     -0.167000
     20 H1         -0.2900    0.2130   -1.1420 h5        1 JTS      0.060100
     21 H2         -1.3800   -0.0500    3.4640 hc        1 JTS      0.069700
     22 H3          0.2130    0.5770    4.0980 hc        1 JTS      0.069700
     23 H4         -0.0100   -1.1960    3.8370 hc        1 JTS      0.069700
     24 H5          4.0840    0.5090    1.3760 hn        1 JTS      0.314500
     25 H6          4.3910   -0.7480    4.8770 ha        1 JTS      0.173000
     26 H7          5.7050   -1.2250    6.8570 ha        1 JTS      0.138000
     27 H8          7.8890   -1.1770    8.0700 ha        1 JTS      0.132000
     28 H9          9.9100   -0.2340    6.9790 ha        1 JTS      0.132000
     29 H10         9.7770    0.6780    4.6560 ha        1 JTS      0.131000
     30 H11         8.4440    1.1690    2.6360 ha        1 JTS      0.134000
     31 H12         6.2920    1.1310    1.4260 ha        1 JTS      0.128000
@<TRIPOS>BOND
     1    1    2 1   
     2    1    3 2   
     3    1   20 1   
     4    2    6 1   
     5    3    4 1   
     6    4    5 1   
     7    4    6 2   
     8    5   21 1   
     9    5   22 1   
    10    5   23 1   
    11    6    7 1   
    12    7    8 2   
    13    7    9 1   
    14    9   10 1   
    15    9   24 1   
    16   10   11 ar  
    17   10   19 ar  
    18   11   12 ar  
    19   11   25 1   
    20   12   13 ar  
    21   12   17 ar  
    22   13   14 ar  
    23   13   26 1   
    24   14   15 ar  
    25   14   27 1   
    26   15   16 ar  
    27   15   28 1   
    28   16   17 ar  
    29   16   29 1   
    30   17   18 ar  
    31   18   19 ar  
    32   18   30 1   
    33   19   31 1   
@<TRIPOS>SUBSTRUCTURE
     1 JTS         1 TEMP              0 ****  ****    0 ROOT
