@<TRIPOS>MOLECULE
JTS
   31    33     1     0     0
SMALL
bcc


@<TRIPOS>ATOM
      1 C22         0.1690    0.0950   -0.1480 cc        1 JTS      0.400300
      2 S21         1.8530    0.0640    0.0860 ss        1 JTS     -0.091300
      3 N23        -0.5660    0.0220    0.9550 nd        1 JTS     -0.634000
      4 C24         0.2680   -0.0650    2.0700 cd        1 JTS      0.437600
      5 C26        -0.2720   -0.1720    3.4430 c3        1 JTS     -0.139400
      6 C20         1.6370   -0.0480    1.7580 cc        1 JTS     -0.291000
      7 C1          2.7070   -0.1340    2.7640 c         1 JTS      0.721700
      8 O8          2.4710   -0.4620    3.9420 o         1 JTS     -0.582100
      9 N9          3.9880    0.1700    2.3110 n         1 JTS     -0.470100
     10 C10         5.1720    0.1810    3.0680 ca        1 JTS      0.064600
     11 C15         5.2710   -0.3260    4.3570 ca        1 JTS     -0.149000
     12 C14         6.5070   -0.2940    5.0530 ca        1 JTS     -0.012000
     13 C16         6.6150   -0.8100    6.3760 ca        1 JTS     -0.119000
     14 C17         7.8160   -0.7750    7.0400 ca        1 JTS     -0.123000
     15 C18         8.9640   -0.2270    6.4190 ca        1 JTS     -0.133000
     16 C19         8.8870    0.2780    5.1440 ca        1 JTS     -0.111000
     17 C13         7.6570    0.2540    4.4350 ca        1 JTS     -0.060000
     18 C12         7.5400    0.7670    3.1150 ca        1 JTS     -0.092000
     19 C11         6.3460    0.7370    2.4480 ca        1 JTS     -0.167000
     20 H1         -0.2970    0.1660   -1.1370 h5        1 JTS      0.060100
     21 H2          0.2240    0.5890    4.0980 hc        1 JTS      0.069700
     22 H3         -1.3780   -0.0260    3.4740 hc        1 JTS      0.069700
     23 H4         -0.0210   -1.1840    3.8550 hc        1 JTS      0.069700
     24 H5          4.0790    0.4990    1.3750 hn        1 JTS      0.314500
     25 H6          4.3980   -0.7610    4.8730 ha        1 JTS      0.173000
     26 H7          5.7170   -1.2330    6.8510 ha        1 JTS      0.138000
     27 H8          7.9020   -1.1730    8.0620 ha        1 JTS      0.132000
     28 H9          9.9150   -0.2110    6.9730 ha        1 JTS      0.132000
     29 H10         9.7730    0.7070    4.6520 ha        1 JTS      0.131000
     30 H11         8.4340    1.1940    2.6350 ha        1 JTS      0.134000
     31 H12         6.2820    1.1430    1.4260 ha        1 JTS      0.128000
@<TRIPOS>BOND
     1    1    2 1   
     2    1    3 2   
     3    1   20 1   
     4    2    6 1   
     5    3    4 1   
     6    4    5 1   
     7    4    6 2   
     8    5   21 1   
     9    5   22 1   
    10    5   23 1   
    11    6    7 1   
    12    7    8 2   
    13    7    9 1   
    14    9   10 1   
    15    9   24 1   
    16   10   11 ar  
    17   10   19 ar  
    18   11   12 ar  
    19   11   25 1   
    20   12   13 ar  
    21   12   17 ar  
    22   13   14 ar  
    23   13   26 1   
    24   14   15 ar  
    25   14   27 1   
    26   15   16 ar  
    27   15   28 1   
    28   16   17 ar  
    29   16   29 1   
    30   17   18 ar  
    31   18   19 ar  
    32   18   30 1   
    33   19   31 1   
@<TRIPOS>SUBSTRUCTURE
     1 JTS         1 TEMP              0 ****  ****    0 ROOT
