@<TRIPOS>MOLECULE
JTT
   35    37     1     0     0
SMALL
bcc


@<TRIPOS>ATOM
      1 O8         -0.3330   -2.0310    0.6980 o         1 JTT     -0.453100
      2 C1          0.7340   -1.5170    0.3790 c         1 JTT      0.627700
      3 C20         1.4880   -0.5000    1.0350 cc        1 JTT     -0.387000
      4 S21         2.9430    0.2070    0.5470 ss        1 JTT     -0.085300
      5 C24         1.0600    0.0730    2.2670 cd        1 JTT      0.534600
      6 C26        -0.1820   -0.3160    2.9670 c3        1 JTT     -0.169400
      7 N23         1.9140    1.0360    2.7630 nd        1 JTT     -0.638000
      8 C22         2.9640    1.2040    1.9430 cc        1 JTT      0.523700
      9 C25         4.0670    2.1570    2.1730 c3        1 JTT     -0.165400
     10 N9          1.3430   -2.1030   -0.8970 n4        1 JTT     -0.544200
     11 C10         0.9420   -1.3550   -2.0920 ca        1 JTT     -0.056400
     12 C11        -0.4490   -1.2590   -2.3970 ca        1 JTT     -0.135000
     13 C12        -0.8430   -0.5860   -3.5250 ca        1 JTT     -0.067000
     14 C13         0.1090    0.0170   -4.3930 ca        1 JTT     -0.013000
     15 C14         1.4920   -0.0840   -4.0810 ca        1 JTT     -0.041000
     16 C15         1.8970   -0.7800   -2.9140 ca        1 JTT     -0.069000
     17 C19        -0.2880    0.7140   -5.5650 ca        1 JTT     -0.118000
     18 C18         0.6550    1.2830   -6.3870 ca        1 JTT     -0.086000
     19 C17         2.0330    1.1820   -6.0770 ca        1 JTT     -0.097000
     20 C16         2.4460    0.5140   -4.9500 ca        1 JTT     -0.116000
     21 H1         -0.3170    0.2360    3.9300 hc        1 JTT      0.090033
     22 H2         -1.0620   -0.1110    2.3020 hc        1 JTT      0.090033
     23 H3         -0.1620   -1.4180    3.1770 hc        1 JTT      0.090033
     24 H4          3.6700    3.2050    2.2320 hc        1 JTT      0.090033
     25 H5          4.5800    1.9310    3.1450 hc        1 JTT      0.090033
     26 H6          4.8170    2.0990    1.3450 hc        1 JTT      0.090033
     27 H7          2.3650   -2.1160   -0.8220 hn        1 JTT      0.458300
     28 H8         -1.1950   -1.7200   -1.7280 ha        1 JTT      0.165000
     29 H9         -1.9150   -0.5030   -3.7740 ha        1 JTT      0.167000
     30 H10         2.9760   -0.8470   -2.6980 ha        1 JTT      0.148000
     31 H11        -1.3620    0.7880   -5.8000 ha        1 JTT      0.156000
     32 H12         0.3500    1.8240   -7.2980 ha        1 JTT      0.160000
     33 H13         2.7690    1.6450   -6.7540 ha        1 JTT      0.158000
     34 H14         3.5170    0.4300   -4.7050 ha        1 JTT      0.145000
     35 H92         0.9980   -3.0680   -1.0000 hn        1 JTT      0.458300
@<TRIPOS>BOND
     1    1    2 2   
     2    2    3 1   
     3    2   10 1   
     4    3    4 1   
     5    3    5 2   
     6    4    8 1   
     7    5    6 1   
     8    5    7 1   
     9    6   21 1   
    10    6   22 1   
    11    6   23 1   
    12    7    8 2   
    13    8    9 1   
    14    9   24 1   
    15    9   25 1   
    16    9   26 1   
    17   10   11 1   
    18   10   27 1   
    19   10   35 1   
    20   11   12 ar  
    21   11   16 ar  
    22   12   13 ar  
    23   12   28 1   
    24   13   14 ar  
    25   13   29 1   
    26   14   15 ar  
    27   14   17 ar  
    28   15   16 ar  
    29   15   20 ar  
    30   16   30 1   
    31   17   18 ar  
    32   17   31 1   
    33   18   19 ar  
    34   18   32 1   
    35   19   20 ar  
    36   19   33 1   
    37   20   34 1   
@<TRIPOS>SUBSTRUCTURE
     1 JTT         1 TEMP              0 ****  ****    0 ROOT
