@<TRIPOS>MOLECULE
JTT
   34    36     1     0     0
SMALL
bcc


@<TRIPOS>ATOM
      1 O8         -0.2480   -0.6150    0.3400 o         1 JTT     -0.583100
      2 C1          0.9510   -0.3050    0.2150 c         1 JTT      0.724700
      3 C20         1.8330   -0.1400    1.3810 cc        1 JTT     -0.298000
      4 S21         3.5150   -0.0550    1.3460 ss        1 JTT     -0.105300
      5 C24         1.3690   -0.0460    2.7030 cd        1 JTT      0.444600
      6 C26        -0.0590   -0.1040    3.0870 c3        1 JTT     -0.140400
      7 N23         2.3760    0.1020    3.6510 nd        1 JTT     -0.645000
      8 C22         3.5710    0.1130    3.0530 cc        1 JTT      0.436700
      9 C25         4.8650    0.2480    3.7540 c3        1 JTT     -0.140400
     10 N9          1.5510   -0.1030   -1.0270 n         1 JTT     -0.473100
     11 C10         0.9270   -0.1630   -2.2840 ca        1 JTT      0.079600
     12 C11        -0.3200   -0.8380   -2.4860 ca        1 JTT     -0.139000
     13 C12        -0.8790   -0.9010   -3.7360 ca        1 JTT     -0.098000
     14 C13        -0.2460   -0.3110   -4.8620 ca        1 JTT     -0.058000
     15 C14         0.9890    0.3570   -4.6740 ca        1 JTT     -0.008000
     16 C15         1.5610    0.4240   -3.3800 ca        1 JTT     -0.189000
     17 C19        -0.8150   -0.3720   -6.1630 ca        1 JTT     -0.107000
     18 C18        -0.1750    0.2100   -7.2290 ca        1 JTT     -0.137000
     19 C17         1.0590    0.8780   -7.0440 ca        1 JTT     -0.120000
     20 C16         1.6300    0.9510   -5.7980 ca        1 JTT     -0.127000
     21 H1         -0.4520   -1.1310    2.8720 hc        1 JTT      0.069033
     22 H2         -0.2160    0.1320    4.1680 hc        1 JTT      0.069033
     23 H3         -0.6420    0.6180    2.4600 hc        1 JTT      0.069033
     24 H4          5.7080    0.2250    3.0200 hc        1 JTT      0.065367
     25 H5          4.9040    1.2150    4.3180 hc        1 JTT      0.065367
     26 H6          5.0020   -0.5890    4.4860 hc        1 JTT      0.065367
     27 H7          2.4780    0.2630   -1.0310 hn        1 JTT      0.313500
     28 H8         -0.8340   -1.3040   -1.6290 ha        1 JTT      0.171000
     29 H9         -1.8390   -1.4200   -3.8830 ha        1 JTT      0.137000
     30 H10         2.5210    0.9530   -3.2700 ha        1 JTT      0.130000
     31 H11        -1.7750   -0.8930   -6.2950 ha        1 JTT      0.132000
     32 H12        -0.6120    0.1660   -8.2380 ha        1 JTT      0.132000
     33 H13         1.5530    1.3370   -7.9130 ha        1 JTT      0.131000
     34 H14         2.5890    1.4690   -5.6450 ha        1 JTT      0.130000
@<TRIPOS>BOND
     1    1    2 2   
     2    2    3 1   
     3    2   10 1   
     4    3    4 1   
     5    3    5 2   
     6    4    8 1   
     7    5    6 1   
     8    5    7 1   
     9    6   21 1   
    10    6   22 1   
    11    6   23 1   
    12    7    8 2   
    13    8    9 1   
    14    9   24 1   
    15    9   25 1   
    16    9   26 1   
    17   10   11 1   
    18   10   27 1   
    19   11   12 ar  
    20   11   16 ar  
    21   12   13 ar  
    22   12   28 1   
    23   13   14 ar  
    24   13   29 1   
    25   14   15 ar  
    26   14   17 ar  
    27   15   16 ar  
    28   15   20 ar  
    29   16   30 1   
    30   17   18 ar  
    31   17   31 1   
    32   18   19 ar  
    33   18   32 1   
    34   19   20 ar  
    35   19   33 1   
    36   20   34 1   
@<TRIPOS>SUBSTRUCTURE
     1 JTT         1 TEMP              0 ****  ****    0 ROOT
