@<TRIPOS>MOLECULE
JTT
   34    36     1     0     0
SMALL
bcc


@<TRIPOS>ATOM
      1 O8         -0.2480   -0.6210    0.3380 o         1 JTT     -0.583100
      2 C1          0.9510   -0.3070    0.2150 c         1 JTT      0.724700
      3 C20         1.8310   -0.1400    1.3810 cc        1 JTT     -0.298000
      4 S21         3.5130   -0.0450    1.3480 ss        1 JTT     -0.105300
      5 C24         1.3660   -0.0510    2.7030 cd        1 JTT      0.444600
      6 C26        -0.0630   -0.1170    3.0870 c3        1 JTT     -0.140400
      7 N23         2.3710    0.1010    3.6520 nd        1 JTT     -0.645000
      8 C22         3.5660    0.1190    3.0560 cc        1 JTT      0.436700
      9 C25         4.8590    0.2600    3.7580 c3        1 JTT     -0.140400
     10 N9          1.5510   -0.1010   -1.0260 ns        1 JTT     -0.473100
     11 C10         0.9290   -0.1620   -2.2850 ca        1 JTT      0.079600
     12 C11        -0.3170   -0.8410   -2.4880 ca        1 JTT     -0.139000
     13 C12        -0.8740   -0.9050   -3.7380 ca        1 JTT     -0.098000
     14 C13        -0.2420   -0.3130   -4.8630 ca        1 JTT     -0.058000
     15 C14         0.9920    0.3580   -4.6740 ca        1 JTT     -0.008000
     16 C15         1.5620    0.4270   -3.3800 ca        1 JTT     -0.189000
     17 C19        -0.8090   -0.3740   -6.1650 ca        1 JTT     -0.107000
     18 C18        -0.1710    0.2090   -7.2310 ca        1 JTT     -0.137000
     19 C17         1.0620    0.8810   -7.0440 ca        1 JTT     -0.120000
     20 C16         1.6320    0.9550   -5.7970 ca        1 JTT     -0.127000
     21 H1         -0.6490    0.6040    2.4620 hc        1 JTT      0.069033
     22 H2         -0.2210    0.1140    4.1680 hc        1 JTT      0.069033
     23 H3         -0.4510   -1.1450    2.8670 hc        1 JTT      0.069033
     24 H4          5.7030    0.2430    3.0240 hc        1 JTT      0.065367
     25 H5          5.0000   -0.5780    4.4880 hc        1 JTT      0.065367
     26 H6          4.8930    1.2250    4.3240 hc        1 JTT      0.065367
     27 H7          2.4770    0.2680   -1.0300 hn        1 JTT      0.313500
     28 H8         -0.8310   -1.3080   -1.6310 ha        1 JTT      0.172000
     29 H9         -1.8330   -1.4270   -3.8860 ha        1 JTT      0.137000
     30 H10         2.5200    0.9570   -3.2690 ha        1 JTT      0.130000
     31 H11        -1.7680   -0.8980   -6.2980 ha        1 JTT      0.132000
     32 H12        -0.6060    0.1650   -8.2400 ha        1 JTT      0.132000
     33 H13         1.5550    1.3410   -7.9130 ha        1 JTT      0.131000
     34 H14         2.5890    1.4740   -5.6440 ha        1 JTT      0.130000
@<TRIPOS>BOND
     1    1    2 2   
     2    2    3 1   
     3    2   10 1   
     4    3    4 1   
     5    3    5 2   
     6    4    8 1   
     7    5    6 1   
     8    5    7 1   
     9    6   21 1   
    10    6   22 1   
    11    6   23 1   
    12    7    8 2   
    13    8    9 1   
    14    9   24 1   
    15    9   25 1   
    16    9   26 1   
    17   10   11 1   
    18   10   27 1   
    19   11   12 ar  
    20   11   16 ar  
    21   12   13 ar  
    22   12   28 1   
    23   13   14 ar  
    24   13   29 1   
    25   14   15 ar  
    26   14   17 ar  
    27   15   16 ar  
    28   15   20 ar  
    29   16   30 1   
    30   17   18 ar  
    31   17   31 1   
    32   18   19 ar  
    33   18   32 1   
    34   19   20 ar  
    35   19   33 1   
    36   20   34 1   
@<TRIPOS>SUBSTRUCTURE
     1 JTT         1 TEMP              0 ****  ****    0 ROOT
