@<TRIPOS>MOLECULE
JTU
   44    46     1     0     0
SMALL
bcc


@<TRIPOS>ATOM
      1 C1         -0.0460    0.4300    0.1790 c3        1 JTU     -0.091100
      2 C2          1.4340    0.1510    0.1160 c3        1 JTU     -0.077400
      3 C3          2.0220   -0.1820    1.4830 c3        1 JTU     -0.017400
      4 C4          1.6400   -1.5830    1.9210 c3        1 JTU     -0.085100
      5 C5          3.5110   -0.0260    1.4650 ca        1 JTU     -0.087300
      6 C8          4.1350    0.8660    2.3450 ca        1 JTU     -0.137500
      7 C9          5.5190    1.0190    2.3350 ca        1 JTU     -0.104500
      8 C6          4.3000   -0.7670    0.5770 ca        1 JTU     -0.137500
      9 C7          5.6850   -0.6210    0.5680 ca        1 JTU     -0.104500
     10 C10         6.3040    0.2790    1.4430 cp        1 JTU     -0.118500
     11 C11         7.7780    0.4300    1.4410 cp        1 JTU      0.464800
     12 N1          8.5000   -0.6770    1.6400 nb        1 JTU     -0.694000
     13 C12         9.8690   -0.5580    1.6680 ca        1 JTU      0.393600
     14 C13        10.6740   -1.7270    1.8840 ca        1 JTU     -0.187300
     15 C14        12.0390   -1.6320    1.9370 ca        1 JTU     -0.115000
     16 C15        12.6820   -0.3760    1.7870 ca        1 JTU     -0.060900
     17 Br1        14.5560   -0.3100    1.8890 br        1 JTU     -0.131100
     18 C16        11.9460    0.7650    1.5740 ca        1 JTU     -0.030000
     19 C17        10.5270    0.6970    1.4940 ca        1 JTU     -0.133300
     20 C18         9.7340    1.8550    1.2470 ca        1 JTU     -0.051600
     21 C19        10.4250    3.1990    1.0040 c         1 JTU      0.907200
     22 O1         10.2620    3.7460   -0.1200 o         1 JTU     -0.811300
     23 O2         11.1280    3.6690    1.9400 o         1 JTU     -0.811300
     24 C20         8.3530    1.7290    1.2220 ca        1 JTU     -0.182600
     25 C21         7.4890    2.9020    0.9600 c3        1 JTU     -0.057800
     26 H1         -0.2580    1.2850    0.8660 hc        1 JTU      0.028700
     27 H2         -0.6060   -0.4620    0.5490 hc        1 JTU      0.028700
     28 H3         -0.4320    0.6910   -0.8360 hc        1 JTU      0.028700
     29 H4          1.9620    1.0520   -0.2970 hc        1 JTU      0.044700
     30 H5          1.6290   -0.6990   -0.5890 hc        1 JTU      0.044700
     31 H6          1.5940    0.5460    2.2310 hc        1 JTU      0.046700
     32 H7          2.0620   -1.7990    2.9320 hc        1 JTU      0.032700
     33 H8          0.5290   -1.6850    1.9680 hc        1 JTU      0.032700
     34 H9          2.0380   -2.3410    1.2040 hc        1 JTU      0.032700
     35 H10         3.5300    1.4540    3.0500 ha        1 JTU      0.122000
     36 H11         6.0030    1.7270    3.0260 ha        1 JTU      0.143500
     37 H12         3.8200   -1.4720   -0.1170 ha        1 JTU      0.122000
     38 H13         6.2980   -1.2150   -0.1270 ha        1 JTU      0.143500
     39 H14        10.1770   -2.7000    2.0090 ha        1 JTU      0.134000
     40 H15        12.6470   -2.5340    2.1020 ha        1 JTU      0.126000
     41 H16        12.4120    1.7660    1.4780 ha        1 JTU      0.196000
     42 H18         8.0320    3.6410    0.3130 hc        1 JTU      0.051033
     43 H19         7.2270    3.4070    1.9240 hc        1 JTU      0.051033
     44 H20         6.5410    2.6030    0.4510 hc        1 JTU      0.051033
@<TRIPOS>BOND
     1    1    2 1   
     2    1   26 1   
     3    1   27 1   
     4    1   28 1   
     5    2    3 1   
     6    2   29 1   
     7    2   30 1   
     8    3    4 1   
     9    3    5 1   
    10    3   31 1   
    11    4   32 1   
    12    4   33 1   
    13    4   34 1   
    14    5    6 ar  
    15    5    8 ar  
    16    6    7 ar  
    17    6   35 1   
    18    7   10 ar  
    19    7   36 1   
    20    8    9 ar  
    21    8   37 1   
    22    9   10 ar  
    23    9   38 1   
    24   10   11 1   
    25   11   12 ar  
    26   11   24 ar  
    27   12   13 ar  
    28   13   14 ar  
    29   13   19 ar  
    30   14   15 ar  
    31   14   39 1   
    32   15   16 ar  
    33   15   40 1   
    34   16   17 1   
    35   16   18 ar  
    36   18   19 ar  
    37   18   41 1   
    38   19   20 ar  
    39   20   21 1   
    40   20   24 ar  
    41   21   22 1   
    42   21   23 1   
    43   24   25 1   
    44   25   42 1   
    45   25   43 1   
    46   25   44 1   
@<TRIPOS>SUBSTRUCTURE
     1 JTU         1 TEMP              0 ****  ****    0 ROOT
