@<TRIPOS>MOLECULE
JTZ
   42    42     1     0     0
SMALL
bcc


@<TRIPOS>ATOM
      1 C1         -0.1360    0.7180   -0.1840 c3        1 JTZ     -0.134100
      2 N1          2.2690    1.1790   -0.7250 ny        1 JTZ     -0.762000
      3 O1          2.8160    3.0890   -2.6360 oh        1 JTZ     -0.637800
      4 C2          1.3090    0.2960    0.0400 c3        1 JTZ      0.133500
      5 O2          3.9470    2.5180   -5.0560 os        1 JTZ     -0.345900
      6 C3          1.6370    0.3150    1.5280 c3        1 JTZ     -0.134100
      7 C4          2.3830    0.8060   -2.1620 c3        1 JTZ      0.098800
      8 C5          3.2850    1.7860   -2.9350 c3        1 JTZ      0.120100
      9 C6          3.1990    1.4720   -4.4340 c3        1 JTZ      0.099400
     10 C7          3.6420    2.7320   -6.4000 ca        1 JTZ      0.085100
     11 C8          3.3190    1.6810   -7.2640 ca        1 JTZ     -0.176000
     12 C9          3.0980    1.9550   -8.6130 ca        1 JTZ     -0.100000
     13 C10         3.2010    3.2630   -9.0870 ca        1 JTZ     -0.129000
     14 C11         3.5250    4.3030   -8.2170 ca        1 JTZ     -0.097000
     15 C12         3.7470    4.0600   -6.8570 ca        1 JTZ     -0.078300
     16 C13         4.0890    5.1760   -5.9320 c3        1 JTZ      0.007100
     17 C14         5.5340    5.1890   -5.5840 c2        1 JTZ     -0.180200
     18 C15         6.2910    6.2830   -5.6080 c2        1 JTZ     -0.203000
     19 H1         -0.7980    0.0020    0.3650 hc        1 JTZ      0.079200
     20 H1A        -0.4130    0.6870   -1.2660 hc        1 JTZ      0.079200
     21 H1B        -0.3280    1.7450    0.2120 hc        1 JTZ      0.079200
     22 HN1         3.1960    1.1280   -0.2880 hn        1 JTZ      0.459800
     23 HO1         3.1630    3.6920   -3.3150 ho        1 JTZ      0.470000
     24 H2          1.4600   -0.7540   -0.3580 hx        1 JTZ      0.103700
     25 H3          1.4920    1.3320    1.9660 hc        1 JTZ      0.079200
     26 H3A         2.6830   -0.0250    1.7260 hc        1 JTZ      0.079200
     27 H3B         0.9410   -0.3910    2.0480 hc        1 JTZ      0.079200
     28 H4          1.3460    0.8170   -2.6040 hx        1 JTZ      0.110200
     29 H4A         2.8110   -0.2330   -2.2390 hx        1 JTZ      0.110200
     30 H5          4.3560    1.6970   -2.5930 h1        1 JTZ      0.075700
     31 H6          3.6830    0.4860   -4.6550 h1        1 JTZ      0.063700
     32 H6A         2.1360    1.4740   -4.7910 h1        1 JTZ      0.063700
     33 H8          3.2500    0.6500   -6.8920 ha        1 JTZ      0.133000
     34 H9          2.8470    1.1350   -9.3030 ha        1 JTZ      0.146000
     35 H10         3.0290    3.4760  -10.1530 ha        1 JTZ      0.149000
     36 H11         3.6090    5.3320   -8.6010 ha        1 JTZ      0.149000
     37 H13         3.7830    6.1560   -6.3910 hc        1 JTZ      0.049700
     38 H13A        3.4960    5.0540   -4.9820 hc        1 JTZ      0.049700
     39 H14         5.9440    4.2060   -5.2950 ha        1 JTZ      0.126000
     40 H15         5.9070    7.2690   -5.9050 ha        1 JTZ      0.119000
     41 H15A        7.3540    6.2630   -5.3340 ha        1 JTZ      0.119000
     42 H12         1.9500    2.1590   -0.6730 hn        1 JTZ      0.459800
@<TRIPOS>BOND
     1    1    4 1   
     2    1   19 1   
     3    1   20 1   
     4    1   21 1   
     5    2    4 1   
     6    2    7 1   
     7    2   22 1   
     8    2   42 1   
     9    3    8 1   
    10    3   23 1   
    11    4    6 1   
    12    4   24 1   
    13    5    9 1   
    14    5   10 1   
    15    6   25 1   
    16    6   26 1   
    17    6   27 1   
    18    7    8 1   
    19    7   28 1   
    20    7   29 1   
    21    8    9 1   
    22    8   30 1   
    23    9   31 1   
    24    9   32 1   
    25   10   11 ar  
    26   10   15 ar  
    27   11   12 ar  
    28   11   33 1   
    29   12   13 ar  
    30   12   34 1   
    31   13   14 ar  
    32   13   35 1   
    33   14   15 ar  
    34   14   36 1   
    35   15   16 1   
    36   16   17 1   
    37   16   37 1   
    38   16   38 1   
    39   17   18 2   
    40   17   39 1   
    41   18   40 1   
    42   18   41 1   
@<TRIPOS>SUBSTRUCTURE
     1 JTZ         1 TEMP              0 ****  ****    0 ROOT
