@<TRIPOS>MOLECULE
JTZ
   41    41     1     0     0
SMALL
bcc


@<TRIPOS>ATOM
      1 C1          5.6940   -0.9120    0.5980 c3        1 JTZ     -0.109600
      2 N1          3.8920    0.6160   -0.2960 n3        1 JTZ     -0.819200
      3 O1          1.6520    0.4920    1.5820 oh        1 JTZ     -0.583800
      4 C2          5.2050    0.0200   -0.5140 c3        1 JTZ      0.173500
      5 O2         -0.8540   -0.0070    0.0060 os        1 JTZ     -0.320900
      6 C3          6.2630    1.1050   -0.7320 c3        1 JTZ     -0.109600
      7 C4          2.7890   -0.3110   -0.4170 c3        1 JTZ      0.137800
      8 C5          1.4880    0.2390    0.2000 c3        1 JTZ      0.126100
      9 C6          0.3580   -0.7620   -0.0660 c3        1 JTZ      0.096400
     10 C7         -2.0250   -0.7440   -0.0220 ca        1 JTZ      0.123100
     11 C8         -2.0840   -2.1010   -0.3610 ca        1 JTZ     -0.202000
     12 C9         -3.3190   -2.7490   -0.3810 ca        1 JTZ     -0.100000
     13 C10        -4.4830   -2.0530   -0.0660 ca        1 JTZ     -0.159000
     14 C11        -4.4190   -0.7010    0.2700 ca        1 JTZ     -0.097000
     15 C12        -3.1980   -0.0240    0.3000 ca        1 JTZ     -0.091300
     16 C13        -3.1350    1.4170    0.6710 c3        1 JTZ     -0.001900
     17 C14        -3.0310    2.2930   -0.5250 c2        1 JTZ     -0.151200
     18 C15        -3.8120    3.3470   -0.7440 c2        1 JTZ     -0.232000
     19 H1          5.7890   -0.3610    1.5640 hc        1 JTZ      0.038533
     20 H1A         4.9950   -1.7680    0.7440 hc        1 JTZ      0.038533
     21 H1B         6.6970   -1.3210    0.3250 hc        1 JTZ      0.038533
     22 HN1         3.8600    1.0930    0.5860 hn        1 JTZ      0.372800
     23 HO1         1.8170   -0.3540    2.0180 ho        1 JTZ      0.394000
     24 H2          5.1320   -0.5880   -1.4660 h1        1 JTZ      0.052700
     25 H3          7.2330    0.6180   -0.9920 hc        1 JTZ      0.038533
     26 H3A         5.9680    1.7850   -1.5660 hc        1 JTZ      0.038533
     27 H3B         6.4050    1.7140    0.1930 hc        1 JTZ      0.038533
     28 H4          2.6200   -0.4910   -1.5160 h1        1 JTZ      0.032700
     29 H4A         3.0030   -1.3120    0.0620 h1        1 JTZ      0.032700
     30 H5          1.2240    1.2460   -0.2330 h1        1 JTZ      0.113700
     31 H6          0.3540   -1.5760    0.7050 h1        1 JTZ      0.044700
     32 H6A         0.4550   -1.2060   -1.0910 h1        1 JTZ      0.044700
     33 H8         -1.1740   -2.6610   -0.6160 ha        1 JTZ      0.133000
     34 H9         -3.3670   -3.8150   -0.6480 ha        1 JTZ      0.131000
     35 H10        -5.4550   -2.5670   -0.0830 ha        1 JTZ      0.133000
     36 H11        -5.3420   -0.1550    0.5180 ha        1 JTZ      0.136000
     37 H13        -4.0360    1.6890    1.2850 hc        1 JTZ      0.060700
     38 H13A       -2.2240    1.5890    1.3120 hc        1 JTZ      0.060700
     39 H14        -2.2270    2.0100   -1.2270 ha        1 JTZ      0.130000
     40 H15        -4.6180    3.6460   -0.0610 ha        1 JTZ      0.109000
     41 H15A       -3.6950    3.9880   -1.6280 ha        1 JTZ      0.109000
@<TRIPOS>BOND
     1    1    4 1   
     2    1   19 1   
     3    1   20 1   
     4    1   21 1   
     5    2    4 1   
     6    2    7 1   
     7    2   22 1   
     8    3    8 1   
     9    3   23 1   
    10    4    6 1   
    11    4   24 1   
    12    5    9 1   
    13    5   10 1   
    14    6   25 1   
    15    6   26 1   
    16    6   27 1   
    17    7    8 1   
    18    7   28 1   
    19    7   29 1   
    20    8    9 1   
    21    8   30 1   
    22    9   31 1   
    23    9   32 1   
    24   10   11 ar  
    25   10   15 ar  
    26   11   12 ar  
    27   11   33 1   
    28   12   13 ar  
    29   12   34 1   
    30   13   14 ar  
    31   13   35 1   
    32   14   15 ar  
    33   14   36 1   
    34   15   16 1   
    35   16   17 1   
    36   16   37 1   
    37   16   38 1   
    38   17   18 2   
    39   17   39 1   
    40   18   40 1   
    41   18   41 1   
@<TRIPOS>SUBSTRUCTURE
     1 JTZ         1 TEMP              0 ****  ****    0 ROOT
