@<TRIPOS>MOLECULE
JTZ
   42    42     1     0     0
SMALL
bcc


@<TRIPOS>ATOM
      1 C1         -0.1200    0.7140   -0.1780 c3        1 JTZ     -0.134100
      2 N1          2.2840    1.1660   -0.7280 n4        1 JTZ     -0.762000
      3 O1          2.8290    3.0830   -2.6330 oh        1 JTZ     -0.637800
      4 C2          1.3240    0.2830    0.0370 c3        1 JTZ      0.133500
      5 O2          3.9440    2.5190   -5.0610 os        1 JTZ     -0.345900
      6 C3          1.6590    0.2930    1.5240 c3        1 JTZ     -0.134100
      7 C4          2.3900    0.7980   -2.1670 c3        1 JTZ      0.098800
      8 C5          3.2920    1.7790   -2.9400 c3        1 JTZ      0.120100
      9 C6          3.1980    1.4720   -4.4400 c3        1 JTZ      0.099400
     10 C7          3.6330    2.7400   -6.4020 ca        1 JTZ      0.085100
     11 C8          3.3090    1.6920   -7.2710 ca        1 JTZ     -0.176000
     12 C9          3.0820    1.9720   -8.6170 ca        1 JTZ     -0.100000
     13 C10         3.1800    3.2820   -9.0850 ca        1 JTZ     -0.129000
     14 C11         3.5050    4.3190   -8.2110 ca        1 JTZ     -0.097000
     15 C12         3.7320    4.0700   -6.8540 ca        1 JTZ     -0.078300
     16 C13         4.0740    5.1830   -5.9250 c3        1 JTZ      0.007100
     17 C14         5.5210    5.1970   -5.5800 c2        1 JTZ     -0.181200
     18 C15         6.2750    6.2930   -5.6010 c2        1 JTZ     -0.203000
     19 H1         -0.4030    0.6900   -1.2580 hc        1 JTZ      0.079200
     20 H1A        -0.7840   -0.0010    0.3710 hc        1 JTZ      0.079200
     21 H1B        -0.3050    1.7400    0.2250 hc        1 JTZ      0.079200
     22 HN1         1.9710    2.1470   -0.6700 hn        1 JTZ      0.459800
     23 HO1         3.1740    3.6870   -3.3110 ho        1 JTZ      0.470000
     24 H2          1.4670   -0.7650   -0.3670 hx        1 JTZ      0.103700
     25 H3          2.7040   -0.0540    1.7140 hc        1 JTZ      0.079200
     26 H3A         0.9610   -0.4110    2.0430 hc        1 JTZ      0.079200
     27 H3B         1.5220    1.3090    1.9680 hc        1 JTZ      0.079200
     28 H4          2.8130   -0.2410   -2.2510 hx        1 JTZ      0.110200
     29 H4A         1.3510    0.8160   -2.6050 hx        1 JTZ      0.110200
     30 H5          4.3640    1.6850   -2.6030 h1        1 JTZ      0.075700
     31 H6          2.1340    1.4770   -4.7920 h1        1 JTZ      0.063700
     32 H6A         3.6800    0.4860   -4.6680 h1        1 JTZ      0.063700
     33 H8          3.2450    0.6590   -6.9030 ha        1 JTZ      0.133000
     34 H9          2.8310    1.1550   -9.3100 ha        1 JTZ      0.146000
     35 H10         3.0030    3.4990  -10.1500 ha        1 JTZ      0.149000
     36 H11         3.5840    5.3500   -8.5910 ha        1 JTZ      0.149000
     37 H13         3.4840    5.0560   -4.9730 hc        1 JTZ      0.049700
     38 H13A        3.7660    6.1640   -6.3790 hc        1 JTZ      0.049700
     39 H14         5.9330    4.2140   -5.2970 ha        1 JTZ      0.127000
     40 H15         5.8890    7.2790   -5.8910 ha        1 JTZ      0.119000
     41 H15A        7.3390    6.2740   -5.3300 ha        1 JTZ      0.119000
     42 H12         3.2130    1.1090   -0.2960 hn        1 JTZ      0.459800
@<TRIPOS>BOND
     1    1    4 1   
     2    1   19 1   
     3    1   20 1   
     4    1   21 1   
     5    2    4 1   
     6    2    7 1   
     7    2   22 1   
     8    2   42 1   
     9    3    8 1   
    10    3   23 1   
    11    4    6 1   
    12    4   24 1   
    13    5    9 1   
    14    5   10 1   
    15    6   25 1   
    16    6   26 1   
    17    6   27 1   
    18    7    8 1   
    19    7   28 1   
    20    7   29 1   
    21    8    9 1   
    22    8   30 1   
    23    9   31 1   
    24    9   32 1   
    25   10   11 ar  
    26   10   15 ar  
    27   11   12 ar  
    28   11   33 1   
    29   12   13 ar  
    30   12   34 1   
    31   13   14 ar  
    32   13   35 1   
    33   14   15 ar  
    34   14   36 1   
    35   15   16 1   
    36   16   17 1   
    37   16   37 1   
    38   16   38 1   
    39   17   18 2   
    40   17   39 1   
    41   18   40 1   
    42   18   41 1   
@<TRIPOS>SUBSTRUCTURE
     1 JTZ         1 TEMP              0 ****  ****    0 ROOT
