@<TRIPOS>MOLECULE
JTZ
   41    38     1     0     0
SMALL
bcc


@<TRIPOS>ATOM
      1 C1         -2.8350   -2.1300    4.4450 c3        1 JTZ     -0.213000
      2 N1         -0.8730   -1.1810    3.3550 n3        1 JTZ     -0.312000
      3 O1         -0.9630    0.8560    1.4040 oh        1 JTZ     -0.334000
      4 C2         -1.3900   -2.3690    4.0280 c3        1 JTZ     -0.021000
      5 O2          0.7350    0.5880   -0.8730 os        1 JTZ     -0.239000
      6 C3         -0.5450   -2.6590    5.2660 c3        1 JTZ     -0.213000
      7 C4         -0.7080   -1.4580    1.9380 c3        1 JTZ     -0.114000
      8 C5         -0.1100   -0.2300    1.2430 c3        1 JTZ      0.032000
      9 C6          0.0680   -0.5210   -0.2430 c3        1 JTZ     -0.023000
     10 C7          1.0130    0.3840   -2.2520 c2        1 JTZ      0.044000
     11 C8          1.4350   -0.8550   -2.6950 c2        1 JTZ     -0.136000
     12 C9          1.7480   -1.0450   -4.0400 c1        1 JTZ     -0.124000
     13 C10         1.6350    0.0130   -4.9380 c1        1 JTZ     -0.125500
     14 C11         1.2130    1.2530   -4.4960 c1        1 JTZ     -0.125500
     15 C12         0.9000    1.4440   -3.1510 c1        1 JTZ     -0.077000
     16 C13         0.4100    2.8030   -2.6680 c3        1 JTZ     -0.103000
     17 C14         1.2840    3.8970   -3.2590 c2        1 JTZ     -0.157000
     18 C15         0.7580    5.1240   -3.5150 c1        1 JTZ     -0.226000
     19 H1         -2.9160   -1.2460    4.8510 hc        1 JTZ      0.078667
     20 H1A        -3.1080   -2.8200    5.1000 hc        1 JTZ      0.078667
     21 H1B        -3.4140   -2.1820    3.6590 hc        1 JTZ      0.078667
     22 HN1        -0.0640   -0.9530    3.7170 hn        1 JTZ      0.156000
     23 HO1        -0.5450    1.4970    1.8630 ho        1 JTZ      0.222000
     24 H2         -1.3480   -3.1380    3.4160 h1        1 JTZ      0.060000
     25 H3         -0.9220   -3.4360    5.7470 hc        1 JTZ      0.078667
     26 H3A        -0.5500   -1.8780    5.8540 hc        1 JTZ      0.078667
     27 H3B         0.3730   -2.8580    4.9940 hc        1 JTZ      0.078667
     28 H4         -1.5740   -1.6640    1.5450 h1        1 JTZ      0.087000
     29 H4A        -0.1110   -2.2190    1.8230 h1        1 JTZ      0.087000
     30 H5          0.7620   -0.0220    1.6420 h1        1 JTZ      0.090000
     31 H6         -0.8130   -0.6530   -0.6590 h1        1 JTZ      0.091000
     32 H6A         0.6020   -1.3270   -0.3540 h1        1 JTZ      0.091000
     33 H8          1.5130   -1.5920   -2.0700 ha        1 JTZ      0.143000
     34 H9          2.0460   -1.9220   -4.3530 ha        1 JTZ      0.134000
     35 H10         1.8540   -0.1210   -5.8800 ha        1 JTZ      0.136500
     36 H11         1.1340    1.9930   -5.1240 ha        1 JTZ      0.136500
     37 H13         0.4580    2.8390   -1.6940 hc        1 JTZ      0.105000
     38 H13A       -0.5120    2.9360   -2.9520 hc        1 JTZ      0.105000
     39 H14         2.2220    3.7190   -3.4550 ha        1 JTZ      0.126000
     40 H15        -0.1840    5.3030   -3.3190 DU        1 JTZ      0.112000
     41 H15A        1.3230    5.8300   -3.8970 ha        1 JTZ      0.113000
@<TRIPOS>BOND
     1    1    4 1   
     2    1   19 1   
     3    1   20 1   
     4    1   21 1   
     5    2    4 1   
     6    2    7 1   
     7    2   22 1   
     8    3    8 1   
     9    3   23 1   
    10    4    6 1   
    11    4   24 1   
    12    5    9 1   
    13    5   10 1   
    14    6   25 1   
    15    6   26 1   
    16    6   27 1   
    17    7    8 1   
    18    7   28 1   
    19    7   29 1   
    20    8    9 1   
    21    8   30 1   
    22    9   31 1   
    23    9   32 1   
    24   10   11 1   
    25   10   15 1   
    26   11   12 1   
    27   11   33 1   
    28   12   34 1   
    29   13   14 1   
    30   13   35 1   
    31   14   36 1   
    32   15   16 1   
    33   16   17 1   
    34   16   37 1   
    35   16   38 1   
    36   17   18 1   
    37   17   39 1   
    38   18   41 1   
@<TRIPOS>SUBSTRUCTURE
     1 JTZ         1 TEMP              0 ****  ****    0 ROOT
