@<TRIPOS>MOLECULE
JTZ
   42    42     1     0     0
SMALL
bcc


@<TRIPOS>ATOM
      1 C1          0.0510   -0.0260    0.0990 c3        1 JTZ     -0.134100
      2 N1          2.0640    1.2480   -0.6830 n4        1 JTZ     -0.762000
      3 O1          1.6870    3.3010   -2.4750 oh        1 JTZ     -0.636800
      4 C2          1.5700    0.0640    0.1170 c3        1 JTZ      0.133500
      5 O2          2.6460    3.1990   -5.0800 os        1 JTZ     -0.350900
      6 C3          2.0750    0.1420    1.5520 c3        1 JTZ     -0.134100
      7 C4          2.0960    0.9860   -2.1490 c3        1 JTZ      0.097800
      8 C5          2.5020    2.2410   -2.9460 c3        1 JTZ      0.119100
      9 C6          2.2900    1.9730   -4.4410 c3        1 JTZ      0.098400
     10 C7          3.1030    3.0600   -6.3910 ca        1 JTZ      0.081100
     11 C8          2.5350    2.1330   -7.2730 ca        1 JTZ     -0.175000
     12 C9          2.9810    2.0910   -8.5920 ca        1 JTZ     -0.103000
     13 C10         3.9780    2.9670   -9.0210 ca        1 JTZ     -0.128000
     14 C11         4.5340    3.8890   -8.1350 ca        1 JTZ     -0.100000
     15 C12         4.1120    3.9510   -6.8020 ca        1 JTZ     -0.074300
     16 C13         4.6760    4.9560   -5.8620 c3        1 JTZ     -0.000900
     17 C14         6.1150    5.2380   -6.1020 c2        1 JTZ     -0.184200
     18 C15         6.6440    6.4580   -6.0510 c2        1 JTZ     -0.203000
     19 H1         -0.3470   -0.1130   -0.9410 hc        1 JTZ      0.079200
     20 H1A        -0.4170    0.8590    0.5950 hc        1 JTZ      0.079200
     21 H1B        -0.2520   -0.9430    0.6650 hc        1 JTZ      0.079200
     22 HN1         3.0050    1.5020   -0.3650 hn        1 JTZ      0.459800
     23 HO1         1.6930    4.0020   -3.1450 ho        1 JTZ      0.471000
     24 H2          2.0060   -0.8560   -0.3790 hx        1 JTZ      0.103700
     25 H3          1.7330   -0.7760    2.0930 hc        1 JTZ      0.079200
     26 H3A         3.1910    0.1730    1.5970 hc        1 JTZ      0.079200
     27 H3B         1.6600    1.0330    2.0840 hc        1 JTZ      0.079200
     28 H4          1.0640    0.6570   -2.4640 hx        1 JTZ      0.109200
     29 H4A         2.8310    0.1590   -2.3580 hx        1 JTZ      0.109200
     30 H5          3.5830    2.5020   -2.7560 h1        1 JTZ      0.075700
     31 H6          1.2100    1.7610   -4.6560 h1        1 JTZ      0.065700
     32 H6A         2.9310    1.1230   -4.7880 h1        1 JTZ      0.065700
     33 H8          1.7410    1.4550   -6.9350 ha        1 JTZ      0.132000
     34 H9          2.5400    1.3690   -9.2960 ha        1 JTZ      0.145000
     35 H10         4.3270    2.9340  -10.0650 ha        1 JTZ      0.149000
     36 H11         5.3190    4.5810   -8.4800 ha        1 JTZ      0.154000
     37 H13         4.5570    4.5870   -4.8040 hc        1 JTZ      0.058200
     38 H13A        4.0690    5.9010   -5.9460 hc        1 JTZ      0.058200
     39 H14         6.7370    4.3520   -6.3120 ha        1 JTZ      0.125000
     40 H15         6.0490    7.3600   -5.8530 ha        1 JTZ      0.119500
     41 H15A        7.7170    6.6360   -6.2090 ha        1 JTZ      0.119500
     42 H12         1.4470    2.0580   -0.5160 hn        1 JTZ      0.459800
@<TRIPOS>BOND
     1    1    4 1   
     2    1   19 1   
     3    1   20 1   
     4    1   21 1   
     5    2    4 1   
     6    2    7 1   
     7    2   22 1   
     8    2   42 1   
     9    3    8 1   
    10    3   23 1   
    11    4    6 1   
    12    4   24 1   
    13    5    9 1   
    14    5   10 1   
    15    6   25 1   
    16    6   26 1   
    17    6   27 1   
    18    7    8 1   
    19    7   28 1   
    20    7   29 1   
    21    8    9 1   
    22    8   30 1   
    23    9   31 1   
    24    9   32 1   
    25   10   11 ar  
    26   10   15 ar  
    27   11   12 ar  
    28   11   33 1   
    29   12   13 ar  
    30   12   34 1   
    31   13   14 ar  
    32   13   35 1   
    33   14   15 ar  
    34   14   36 1   
    35   15   16 1   
    36   16   17 1   
    37   16   37 1   
    38   16   38 1   
    39   17   18 2   
    40   17   39 1   
    41   18   40 1   
    42   18   41 1   
@<TRIPOS>SUBSTRUCTURE
     1 JTZ         1 TEMP              0 ****  ****    0 ROOT
