@<TRIPOS>MOLECULE
JU2
   19    20     1     0     0
SMALL
bcc


@<TRIPOS>ATOM
      1 BR15        0.0110   -0.0980   -0.0970 br        1 JU2      0.074900
      2 C8          1.8510   -0.0530   -0.0080 cc        1 JU2      0.006800
      3 C7          2.6740   -0.0020    1.1510 cd        1 JU2      0.046000
      4 C10         2.2190    0.0250    2.4790 ch        1 JU2      0.218800
      5 N11         1.8470    0.0480    3.5810 n1        1 JU2     -0.262800
      6 N9          2.6550   -0.0670   -1.1450 na        1 JU2     -0.104100
      7 C5          3.9870   -0.0250   -0.7390 cc        1 JU2      0.116100
      8 C4          4.0240    0.0160    0.6990 cd        1 JU2     -0.160600
      9 C3          5.2990    0.0640    1.3860 c         1 JU2      0.751100
     10 O12         5.5370    0.1030    2.5920 o         1 JU2     -0.511500
     11 N6          5.1200   -0.0220   -1.5470 nc        1 JU2     -0.539100
     12 C1          6.2690    0.0230   -0.8740 cd        1 JU2      0.516800
     13 N13         7.5080    0.0270   -1.7220 n4        1 JU2     -0.798600
     14 N2          6.4410    0.0650    0.5100 n         1 JU2     -0.502400
     15 HN9         2.3360   -0.1010   -2.0860 hn        1 JU2      0.344700
     16 HN13        7.2470   -0.0070   -2.7200 hn        1 JU2      0.484133
     17 HN1A        8.0800   -0.7960   -1.4960 hn        1 JU2      0.484133
     18 HN2         7.3450    0.0980    0.9330 hn        1 JU2      0.352500
     19 H133        8.0420    0.8860   -1.5440 hn        1 JU2      0.484133
@<TRIPOS>BOND
     1    1    2 1   
     2    2    3 2   
     3    2    6 1   
     4    3    4 1   
     5    3    8 1   
     6    4    5 3   
     7    6    7 1   
     8    6   15 1   
     9    7    8 2   
    10    7   11 1   
    11    8    9 1   
    12    9   10 2   
    13    9   14 1   
    14   11   12 2   
    15   12   13 1   
    16   12   14 1   
    17   13   16 1   
    18   13   17 1   
    19   13   19 1   
    20   14   18 1   
@<TRIPOS>SUBSTRUCTURE
     1 JU2         1 TEMP              0 ****  ****    0 ROOT
