@<TRIPOS>MOLECULE
JU2
   18    19     1     0     0
SMALL
bcc


@<TRIPOS>ATOM
      1 BR15       -2.9230   -0.7040   -0.0140 br        1 JU2     -0.000100
      2 C8         -1.1020   -0.4140   -0.0070 cc        1 JU2     -0.048200
      3 C7         -0.4020    0.8100   -0.0050 cd        1 JU2      0.043000
      4 C10        -0.9820    2.0890   -0.0070 ch        1 JU2      0.257800
      5 N11        -1.4590    3.1500   -0.0090 n1        1 JU2     -0.338800
      6 N9         -0.1820   -1.4730   -0.0040 na        1 JU2     -0.149100
      7 C5          1.1040   -0.9390   -0.0000 cc        1 JU2      0.220100
      8 C4          0.9950    0.4930   -0.0020 cd        1 JU2     -0.256600
      9 C3          2.2010    1.2870    0.0080 c         1 JU2      0.752100
     10 O12         2.3070    2.5220    0.0100 o         1 JU2     -0.600500
     11 N6          2.2940   -1.6480   -0.0040 nc        1 JU2     -0.688100
     12 C1          3.4110   -0.8790    0.0310 cd        1 JU2      0.698800
     13 N13         4.6580   -1.5210    0.1560 nh        1 JU2     -0.897800
     14 N2          3.4050    0.5300    0.0060 n         1 JU2     -0.510400
     15 HN9        -0.4090   -2.4360   -0.0030 hn        1 JU2      0.324700
     16 HN13        4.6400   -2.5130    0.0530 hn        1 JU2      0.427300
     17 HN1A        5.4330   -1.0690   -0.2740 hn        1 JU2      0.427300
     18 HN2         4.2610    1.0380    0.0710 hn        1 JU2      0.337500
@<TRIPOS>BOND
     1    1    2 1   
     2    2    3 2   
     3    2    6 1   
     4    3    4 1   
     5    3    8 1   
     6    4    5 3   
     7    6    7 1   
     8    6   15 1   
     9    7    8 2   
    10    7   11 1   
    11    8    9 1   
    12    9   10 2   
    13    9   14 1   
    14   11   12 2   
    15   12   13 1   
    16   12   14 1   
    17   13   16 1   
    18   13   17 1   
    19   14   18 1   
@<TRIPOS>SUBSTRUCTURE
     1 JU2         1 TEMP              0 ****  ****    0 ROOT
