@<TRIPOS>MOLECULE
JU2
   19    20     1     0     0
SMALL
bcc


@<TRIPOS>ATOM
      1 Br15        0.0100   -0.0420   -0.1180 br        1 JU2      0.074900
      2 C8          1.8500   -0.0200   -0.0200 cc        1 JU2      0.006800
      3 C7          2.6680    0.0120    1.1430 cd        1 JU2      0.046000
      4 C10         2.2090    0.0340    2.4690 ch        1 JU2      0.218800
      5 N11         1.8320    0.0520    3.5690 n1        1 JU2     -0.262800
      6 N9          2.6590   -0.0340   -1.1540 na        1 JU2     -0.104100
      7 C5          3.9900   -0.0120   -0.7420 cc        1 JU2      0.116100
      8 C4          4.0210    0.0180    0.6970 cd        1 JU2     -0.160600
      9 C3          5.2940    0.0450    1.3890 c         1 JU2      0.751100
     10 O12         5.5270    0.0720    2.5970 o         1 JU2     -0.511500
     11 N6          5.1260   -0.0160   -1.5450 nc        1 JU2     -0.539100
     12 C1          6.2720    0.0100   -0.8670 cd        1 JU2      0.516800
     13 N13         7.5150    0.0070   -1.7100 nz        1 JU2     -0.798600
     14 N2          6.4390    0.0400    0.5180 ns        1 JU2     -0.502400
     15 HN9         2.3440   -0.0570   -2.0970 hn        1 JU2      0.344700
     16 HN13        7.2580   -0.0170   -2.7090 hn        1 JU2      0.484133
     17 HN1A        8.0770   -0.8240   -1.4880 hn        1 JU2      0.484133
     18 HN2         7.3410    0.0580    0.9450 hn        1 JU2      0.352500
     19 H133        8.0580    0.8580   -1.5230 hn        1 JU2      0.484133
@<TRIPOS>BOND
     1    1    2 1   
     2    2    3 2   
     3    2    6 1   
     4    3    4 1   
     5    3    8 1   
     6    4    5 3   
     7    6    7 1   
     8    6   15 1   
     9    7    8 2   
    10    7   11 1   
    11    8    9 1   
    12    9   10 2   
    13    9   14 1   
    14   11   12 2   
    15   12   13 1   
    16   12   14 1   
    17   13   16 1   
    18   13   17 1   
    19   13   19 1   
    20   14   18 1   
@<TRIPOS>SUBSTRUCTURE
     1 JU2         1 TEMP              0 ****  ****    0 ROOT
