@<TRIPOS>MOLECULE
JU2
   19    20     1     0     0
SMALL
bcc


@<TRIPOS>ATOM
      1 BR15        0.0090   -0.0650   -0.1040 br        1 JU2      0.074900
      2 C8          1.8490   -0.0350   -0.0090 cc        1 JU2      0.006800
      3 C7          2.6690   -0.0020    1.1530 cd        1 JU2      0.046000
      4 C10         2.2110    0.0150    2.4790 ch        1 JU2      0.218800
      5 N11         1.8360    0.0290    3.5810 n1        1 JU2     -0.262800
      6 N9          2.6560   -0.0430   -1.1440 na        1 JU2     -0.104100
      7 C5          3.9870   -0.0150   -0.7340 cc        1 JU2      0.116100
      8 C4          4.0210    0.0110    0.7040 cd        1 JU2     -0.160600
      9 C3          5.2950    0.0430    1.3950 c         1 JU2      0.751100
     10 O12         5.5290    0.0680    2.6020 o         1 JU2     -0.511500
     11 N6          5.1220   -0.0130   -1.5390 nc        1 JU2     -0.539100
     12 C1          6.2700    0.0170   -0.8620 cd        1 JU2      0.516800
     13 N13         7.5110    0.0210   -1.7080 n4        1 JU2     -0.798600
     14 N2          6.4390    0.0440    0.5220 n         1 JU2     -0.502400
     15 HN9         2.3390   -0.0650   -2.0870 hn        1 JU2      0.344700
     16 HN13        7.2520   -0.0020   -2.7070 hn        1 JU2      0.484133
     17 HN1A        8.0760   -0.8080   -1.4890 hn        1 JU2      0.484133
     18 HN2         7.3410    0.0660    0.9470 hn        1 JU2      0.352500
     19 H133        8.0500    0.8740   -1.5190 hn        1 JU2      0.484133
@<TRIPOS>BOND
     1    1    2 1   
     2    2    3 2   
     3    2    6 1   
     4    3    4 1   
     5    3    8 1   
     6    4    5 3   
     7    6    7 1   
     8    6   15 1   
     9    7    8 2   
    10    7   11 1   
    11    8    9 1   
    12    9   10 2   
    13    9   14 1   
    14   11   12 2   
    15   12   13 1   
    16   12   14 1   
    17   13   16 1   
    18   13   17 1   
    19   13   19 1   
    20   14   18 1   
@<TRIPOS>SUBSTRUCTURE
     1 JU2         1 TEMP              0 ****  ****    0 ROOT
