@<TRIPOS>MOLECULE
JUG
   19    14     1     0     0
SMALL
bcc


@<TRIPOS>ATOM
      1 OAA        -2.8830    0.0110    1.3640 o         1 JUG     -0.270000
      2 CAJ        -1.6680    0.0110    1.3640 c1        1 JUG      0.284000
      3 CAF        -0.9220    0.0110    2.6570 c2        1 JUG     -0.171000
      4 CAG         0.5520    0.0110    2.6550 c1        1 JUG     -0.153000
      5 CAK         1.2950    0.0110    1.3600 c1        1 JUG      0.284000
      6 OAB         2.5090    0.0130    1.3560 o         1 JUG     -0.246000
      7 CAM         0.5150    0.0110    0.0180 c1        1 JUG     -0.114000
      8 CAL        -0.8920    0.0110    0.0200 c1        1 JUG     -0.114000
      9 CAH        -1.5910    0.0110   -1.1890 c1        1 JUG     -0.098500
     10 CAD        -0.8950    0.0110   -2.3970 c1        1 JUG     -0.098500
     11 CAE         0.5100    0.0110   -2.3990 c1        1 JUG     -0.205000
     12 CAI         1.2100    0.0110   -1.1930 c1        1 JUG      0.127000
     13 OAC         2.5970    0.2380   -1.2570 oh        1 JUG     -0.211000
     14 HAF        -1.4090    0.0110    3.5030 ha        1 JUG      0.158000
     15 HAG         1.0420    0.0110    3.4990 ha        1 JUG      0.158000
     16 HAH        -2.5670    0.0110   -1.1880 ha        1 JUG      0.153500
     17 HAD        -1.3840    0.0110   -3.2420 ha        1 JUG      0.153500
     18 HAE         0.9960    0.0120   -3.2460 ha        1 JUG      0.143000
     19 HOAC        2.9870   -0.4350   -1.6850 ho        1 JUG      0.220000
@<TRIPOS>BOND
     1    1    2 1   
     2    2    3 1   
     3    3    4 1   
     4    3   14 1   
     5    4   15 1   
     6    5    6 1   
     7    7    8 1   
     8    9   10 1   
     9    9   16 1   
    10   10   17 1   
    11   11   12 1   
    12   11   18 1   
    13   12   13 1   
    14   13   19 1   
@<TRIPOS>SUBSTRUCTURE
     1 JUG         1 TEMP              0 ****  ****    0 ROOT
