@<TRIPOS>MOLECULE
JUG
   19    20     1     0     0
SMALL
bcc


@<TRIPOS>ATOM
      1 OAA        -2.8350   -1.3770   -0.0760 o         1 JUG     -0.505100
      2 CAJ        -1.9760   -0.4870   -0.0230 c         1 JUG      0.558900
      3 CAF        -2.3570    0.9380    0.0150 cc        1 JUG     -0.175200
      4 CAG        -1.4460    1.9140    0.0720 cd        1 JUG     -0.177200
      5 CAK         0.0060    1.6470    0.1020 c         1 JUG      0.579900
      6 OAB         0.8050    2.5980    0.1560 o         1 JUG     -0.552100
      7 CAM         0.4390    0.2420    0.0660 ca        1 JUG     -0.234600
      8 CAL        -0.5260   -0.7930    0.0050 ca        1 JUG     -0.099600
      9 CAH        -0.1370   -2.1270   -0.0300 ca        1 JUG     -0.119000
     10 CAD         1.2230   -2.4700   -0.0050 ca        1 JUG     -0.080000
     11 CAE         2.1870   -1.4850    0.0540 ca        1 JUG     -0.152000
     12 CAI         1.7980   -0.1200    0.0900 ca        1 JUG      0.201100
     13 OAC         2.8530    0.7440    0.1480 oh        1 JUG     -0.499100
     14 HAF        -3.4400    1.1420   -0.0070 ha        1 JUG      0.161000
     15 HAG        -1.7280    2.9800    0.1010 ha        1 JUG      0.161000
     16 HAH        -0.9070   -2.9150   -0.0770 ha        1 JUG      0.163000
     17 HAD         1.5160   -3.5310   -0.0330 ha        1 JUG      0.147000
     18 HAE         3.2600   -1.7240    0.0750 ha        1 JUG      0.161000
     19 HOAC        2.5460    1.6650    0.1710 ho        1 JUG      0.462000
@<TRIPOS>BOND
     1    1    2 2   
     2    2    3 1   
     3    2    8 1   
     4    3    4 2   
     5    3   14 1   
     6    4    5 1   
     7    4   15 1   
     8    5    6 2   
     9    5    7 1   
    10    7    8 ar  
    11    7   12 ar  
    12    8    9 ar  
    13    9   10 ar  
    14    9   16 1   
    15   10   11 ar  
    16   10   17 1   
    17   11   12 ar  
    18   11   18 1   
    19   12   13 1   
    20   13   19 1   
@<TRIPOS>SUBSTRUCTURE
     1 JUG         1 TEMP              0 ****  ****    0 ROOT
