@<TRIPOS>MOLECULE
JUO
   30    32     1     0     0
SMALL
bcc


@<TRIPOS>ATOM
      1 N1          0.1150   -0.3830   -0.0190 nb        1 JUO     -0.804000
      2 C2          1.5090   -0.3620    0.0710 ca        1 JUO      0.902900
      3 N3          2.2520   -0.0390    1.1890 nb        1 JUO     -0.774000
      4 C4          1.4930    0.2000    2.2920 ca        1 JUO      0.490800
      5 C5          0.0380    0.1610    2.3280 ca        1 JUO     -0.333400
      6 C6         -0.6140   -0.1390    1.0960 ca        1 JUO      0.726200
      7 NAA        -2.6900    0.4870    4.7200 n1        1 JUO     -0.378800
      8 NAB         2.2130   -0.7510   -1.0750 nv        1 JUO     -0.924500
      9 CAC        -1.6280    0.4680    4.2440 cg        1 JUO      0.236500
     10 CAD         0.8420    0.6460    4.4190 cd        1 JUO     -0.072100
     11 CAE        -4.1600    1.0430    1.4640 c3        1 JUO     -0.018800
     12 CAF        -4.0750   -1.3670    0.2280 c3        1 JUO     -0.018800
     13 CAG        -2.6720    1.1060    1.1590 c3        1 JUO      0.177800
     14 CAH        -2.5990   -1.0610    0.0170 c3        1 JUO      0.177800
     15 NAK         1.9480    0.5140    3.5820 na        1 JUO     -0.282100
     16 SAL        -5.0630    0.0950    0.2790 ss        1 JUO     -0.298200
     17 CAN        -0.3380    0.4380    3.6940 cc        1 JUO     -0.001900
     18 NAR        -2.0440   -0.2130    1.0710 nh        1 JUO     -0.728300
     19 HNAB        1.7120   -0.7290   -1.9330 hn        1 JUO      0.428300
     20 HNAA        3.1700   -0.4880   -1.1190 hn        1 JUO      0.428300
     21 HAD         0.9680    0.8800    5.4790 h4        1 JUO      0.183000
     22 HAE        -4.3310    0.6330    2.4890 h1        1 JUO      0.084200
     23 HAEA       -4.5820    2.0780    1.4240 h1        1 JUO      0.084200
     24 HAF        -4.4480   -1.9680   -0.6370 h1        1 JUO      0.084200
     25 HAFA       -4.2200   -1.9630    1.1610 h1        1 JUO      0.084200
     26 HAG        -2.5220    1.6840    0.2000 h1        1 JUO      0.057200
     27 HAGA       -2.1620    1.6730    1.9920 h1        1 JUO      0.057200
     28 HAH        -2.0340   -2.0370    0.0250 h1        1 JUO      0.057200
     29 HAHA       -2.4700   -0.5920   -1.0020 h1        1 JUO      0.057200
     30 HNAK        2.8950    0.5920    3.8490 hn        1 JUO      0.318700
@<TRIPOS>BOND
     1    1    2 ar  
     2    1    6 ar  
     3    2    3 ar  
     4    2    8 1   
     5    3    4 ar  
     6    4    5 ar  
     7    4   15 1   
     8    5    6 ar  
     9    5   17 1   
    10    6   18 1   
    11    7    9 3   
    12    8   19 1   
    13    8   20 1   
    14    9   17 1   
    15   10   15 1   
    16   10   17 2   
    17   10   21 1   
    18   11   13 1   
    19   11   16 1   
    20   11   22 1   
    21   11   23 1   
    22   12   14 1   
    23   12   16 1   
    24   12   24 1   
    25   12   25 1   
    26   13   18 1   
    27   13   26 1   
    28   13   27 1   
    29   14   18 1   
    30   14   28 1   
    31   14   29 1   
    32   15   30 1   
@<TRIPOS>SUBSTRUCTURE
     1 JUO         1 TEMP              0 ****  ****    0 ROOT
