@<TRIPOS>MOLECULE
JUO
   30    30     1     0     0
SMALL
bcc


@<TRIPOS>ATOM
      1 N1          0.3030   -0.0310   -0.1420 n2        1 JUO     -0.227000
      2 C2          1.6510    0.2540    0.1150 c2        1 JUO      0.188000
      3 N3          2.2060    0.5150    1.3560 n2        1 JUO     -0.235000
      4 C4          1.3210    0.4200    2.3820 c2        1 JUO      0.109000
      5 C5         -0.0970    0.1080    2.2320 c2        1 JUO     -0.193000
      6 C6         -0.5400   -0.0810    0.9040 c2        1 JUO      0.062000
      7 NAA        -3.0540   -0.4160    4.3040 n1        1 JUO     -0.022000
      8 NAB         2.5160    0.2070   -0.9790 nh        1 JUO     -0.322000
      9 CAC        -1.9700   -0.1830    3.9500 c1        1 JUO     -0.086000
     10 CAD         0.3920    0.3950    4.4520 c2        1 JUO     -0.023000
     11 CAE        -3.5650    1.6000    1.1070 c3        1 JUO     -0.044000
     12 CAF        -3.9130   -2.5800    0.5720 c1        1 JUO     -0.242000
     13 CAG        -2.6560    0.9190    0.2320 c2        1 JUO     -0.655000
     14 CAH        -3.2360   -3.5400    0.3390 c1        1 JUO     -0.242000
     15 NAK         1.5790    0.5940    3.7500 na        1 JUO     -0.195000
     16 SAL        -5.0770    0.5790    1.1150 sh        1 JUO     -0.236000
     17 CAN        -0.6500    0.0950    3.5660 c2        1 JUO     -0.061000
     18 NAR        -2.0060   -0.2710    0.6180 n4        1 JUO      0.183000
     19 HNAB        3.4110    0.6250   -0.8640 hn        1 JUO      0.231500
     20 HNAA        2.1060    0.2680   -1.8810 hn        1 JUO      0.231500
     21 HAD         0.3670    0.4800    5.5420 h4        1 JUO      0.188000
     22 HAE        -3.8290    2.6060    0.7070 h1        1 JUO      0.083000
     23 HAEA       -3.2360    1.6960    2.1700 h1        1 JUO      0.083000
     24 HAF        -5.7170    1.0110    2.1840 hs        1 JUO      0.031000
     25 HAFA       -4.5330   -1.7250    0.7750 ha        1 JUO      0.239500
     26 HAG        -2.4190    1.2860   -0.7680 hx        1 JUO      0.167000
     27 HAGA       -2.4350   -0.6540    1.4690 hn        1 JUO      0.236500
     28 HAH        -2.0840   -0.9660   -0.1360 hn        1 JUO      0.236500
     29 HAHA       -2.6450   -4.3960    0.1330 ha        1 JUO      0.239500
     30 HNAK        2.4580    0.8210    4.1400 hn        1 JUO      0.273000
@<TRIPOS>BOND
     1    1    2 1   
     2    1    6 1   
     3    2    3 1   
     4    2    8 1   
     5    3    4 1   
     6    4    5 1   
     7    4   15 1   
     8    5    6 1   
     9    5   17 1   
    10    6   18 1   
    11    7    9 1   
    12    8   19 1   
    13    8   20 1   
    14    9   17 1   
    15   10   15 1   
    16   10   17 1   
    17   10   21 1   
    18   11   13 1   
    19   11   16 1   
    20   11   22 1   
    21   11   23 1   
    22   12   14 1   
    23   12   25 1   
    24   13   18 1   
    25   13   26 1   
    26   14   29 1   
    27   15   30 1   
    28   16   24 1   
    29   18   27 1   
    30   18   28 1   
@<TRIPOS>SUBSTRUCTURE
     1 JUO         1 TEMP              0 ****  ****    0 ROOT
