@<TRIPOS>MOLECULE
JUP
   67    70     1     0     0
SMALL
bcc


@<TRIPOS>ATOM
      1 C01        -0.0290   -0.3060    0.5210 c3        1 JUP     -0.132100
      2 C02         1.4200   -0.2700    0.0800 c3        1 JUP      0.196400
      3 O03         2.2610    0.1130    1.2070 os        1 JUP     -0.395900
      4 C04         2.2040    1.4040    1.6690 ca        1 JUP      0.216100
      5 C05         1.5620    2.4550    0.9970 ca        1 JUP     -0.219000
      6 C06         1.5690    3.7480    1.5300 cp        1 JUP      0.093000
      7 C07         0.9140    4.8520    0.8380 cp        1 JUP     -0.279300
      8 C08         0.0100    5.6600    1.5390 ca        1 JUP     -0.008000
      9 C09        -0.6450    6.7150    0.8990 ca        1 JUP     -0.218300
     10 C10        -1.5770    7.5750    1.5770 cc        1 JUP     -0.047100
     11 C11        -1.7350    8.9360    1.3510 cd        1 JUP     -0.138000
     12 C12        -2.7460    9.4910    2.1920 cd        1 JUP     -0.217300
     13 C13        -3.0720   10.9290    2.2400 c3        1 JUP      0.201100
     14 N14        -4.3030   11.2640    1.4270 n4        1 JUP     -0.684400
     15 C15        -4.8540   12.5830    1.8250 c3        1 JUP      0.081100
     16 C16        -4.0060   11.2330   -0.0280 c3        1 JUP      0.081100
     17 C17        -3.3120    8.5220    3.0130 cc        1 JUP     -0.176100
     18 S18        -2.6440    7.0400    2.7610 ss        1 JUP      0.183200
     19 C19        -0.3410    6.9250   -0.4730 ca        1 JUP      0.496200
     20 N20         0.5240    6.2030   -1.1750 nb        1 JUP     -0.715000
     21 C21         1.1740    5.1550   -0.5460 ca        1 JUP      0.713200
     22 N22         2.0480    4.3960   -1.2910 nh        1 JUP     -0.943500
     23 C23         2.1950    3.9810    2.7700 ca        1 JUP     -0.167000
     24 C24         2.8250    2.9490    3.4420 ca        1 JUP     -0.016000
     25 C25         2.8640    1.6480    2.8970 ca        1 JUP     -0.250600
     26 C26         3.5630    0.6420    3.6870 c         1 JUP      0.588700
     27 N27         4.2730   -0.4590    2.9340 n4        1 JUP     -0.753400
     28 O28         3.7000    0.5860    4.9020 o         1 JUP     -0.425100
     29 C29         1.9680   -1.5900   -0.3920 ca        1 JUP     -0.076300
     30 C30         1.1860   -2.7460   -0.2890 ca        1 JUP     -0.115000
     31 C31         1.6260   -3.9630   -0.8110 ca        1 JUP     -0.089000
     32 C32         2.8650   -4.0450   -1.4420 ca        1 JUP     -0.103000
     33 C33         3.6670   -2.9080   -1.5350 ca        1 JUP     -0.083000
     34 C34         3.2290   -1.6890   -1.0090 ca        1 JUP     -0.167300
     35 C35         4.1860   -0.5050   -1.1170 c3        1 JUP      0.698200
     36 F36         5.2760   -0.7020   -1.9240 f         1 JUP     -0.244633
     37 F37         3.6460    0.6700   -1.5740 f         1 JUP     -0.244633
     38 F38         4.7530   -0.1500    0.0940 f         1 JUP     -0.244633
     39 H011       -0.6690   -0.6740   -0.3180 hc        1 JUP      0.066700
     40 H012       -0.1640   -0.9700    1.4090 hc        1 JUP      0.066700
     41 H013       -0.3690    0.7210    0.8030 hc        1 JUP      0.066700
     42 H02         1.5570    0.4880   -0.7450 h1        1 JUP      0.086700
     43 H05         1.0280    2.2650    0.0510 ha        1 JUP      0.175000
     44 H23         2.1900    4.9960    3.2010 ha        1 JUP      0.168000
     45 H08        -0.1820    5.4520    2.6050 ha        1 JUP      0.144000
     46 H19        -0.8340    7.7430   -1.0340 h4        1 JUP      0.031100
     47 H11        -1.1430    9.5230    0.6440 ha        1 JUP      0.166000
     48 H131       -2.2200   11.5500    1.8380 hx        1 JUP      0.107700
     49 H132       -3.2820   11.2440    3.3050 hx        1 JUP      0.107700
     50 H17        -4.0860    8.7080    3.7610 h4        1 JUP      0.187000
     51 H151       -5.7420   12.8260    1.1810 hx        1 JUP      0.105367
     52 H152       -5.1720   12.5470    2.9020 hx        1 JUP      0.105367
     53 H153       -4.0690   13.3750    1.6930 hx        1 JUP      0.105367
     54 H161       -3.3250   12.0850   -0.2920 hx        1 JUP      0.105367
     55 H162       -4.9640   11.3280   -0.6070 hx        1 JUP      0.105367
     56 H163       -3.5030   10.2590   -0.2770 hx        1 JUP      0.105367
     57 H221        2.2930    4.6970   -2.2070 hn        1 JUP      0.444800
     58 H222        2.7010    3.8290   -0.8050 hn        1 JUP      0.444800
     59 H24         3.3120    3.1360    4.4170 ha        1 JUP      0.172000
     60 H271        3.5820   -1.0380    2.4360 hn        1 JUP      0.475133
     61 H272        4.8960   -0.0480    2.2270 hn        1 JUP      0.475133
     62 H30         0.1980   -2.7140    0.1980 ha        1 JUP      0.155000
     63 H31         0.9860   -4.8570   -0.7280 ha        1 JUP      0.165000
     64 H32         3.2130   -5.0000   -1.8690 ha        1 JUP      0.170000
     65 H33         4.6490   -2.9730   -2.0360 ha        1 JUP      0.171000
     66 H141       -5.0080   10.5400    1.6220 hn        1 JUP      0.450800
     67 H273        4.8130   -1.0430    3.5810 hn        1 JUP      0.475133
@<TRIPOS>BOND
     1    1    2 1   
     2    1   39 1   
     3    1   40 1   
     4    1   41 1   
     5    2    3 1   
     6    2   29 1   
     7    2   42 1   
     8    3    4 1   
     9    4    5 ar  
    10    4   25 ar  
    11    5    6 ar  
    12    5   43 1   
    13    6    7 1   
    14    6   23 ar  
    15    7    8 ar  
    16    7   21 ar  
    17    8    9 ar  
    18    8   45 1   
    19    9   10 1   
    20    9   19 ar  
    21   10   11 2   
    22   10   18 1   
    23   11   12 1   
    24   11   47 1   
    25   12   13 1   
    26   12   17 2   
    27   13   14 1   
    28   13   48 1   
    29   13   49 1   
    30   14   15 1   
    31   14   16 1   
    32   14   66 1   
    33   15   51 1   
    34   15   52 1   
    35   15   53 1   
    36   16   54 1   
    37   16   55 1   
    38   16   56 1   
    39   17   18 1   
    40   17   50 1   
    41   19   20 ar  
    42   19   46 1   
    43   20   21 ar  
    44   21   22 1   
    45   22   57 1   
    46   22   58 1   
    47   23   24 ar  
    48   23   44 1   
    49   24   25 ar  
    50   24   59 1   
    51   25   26 1   
    52   26   27 1   
    53   26   28 2   
    54   27   60 1   
    55   27   61 1   
    56   27   67 1   
    57   29   30 ar  
    58   29   34 ar  
    59   30   31 ar  
    60   30   62 1   
    61   31   32 ar  
    62   31   63 1   
    63   32   33 ar  
    64   32   64 1   
    65   33   34 ar  
    66   33   65 1   
    67   34   35 1   
    68   35   36 1   
    69   35   37 1   
    70   35   38 1   
@<TRIPOS>SUBSTRUCTURE
     1 JUP         1 TEMP              0 ****  ****    0 ROOT
