@<TRIPOS>MOLECULE
JUP
   68    71     1     0     0
SMALL
bcc


@<TRIPOS>ATOM
      1 C01        -0.2860   -1.3080    0.6580 c3        1 JUP     -0.111100
      2 C02         1.0300   -0.5820    0.4580 c3        1 JUP      0.202400
      3 O03         1.4170   -0.0770    1.7760 os        1 JUP     -0.394900
      4 C04         1.8240    1.2290    1.8740 ca        1 JUP      0.207100
      5 C05         1.1600    2.2730    1.2050 ca        1 JUP     -0.201000
      6 C06         1.5750    3.5960    1.3800 cp        1 JUP     -0.010000
      7 C07         0.8960    4.6880    0.6730 cp        1 JUP     -0.104300
      8 C08         0.1090    5.6140    1.3820 ca        1 JUP     -0.078000
      9 C09        -0.5260    6.6670    0.7110 ca        1 JUP     -0.035300
     10 C10        -1.3230    7.6510    1.3950 cc        1 JUP     -0.159100
     11 C11        -1.4860    8.9740    0.9830 cd        1 JUP     -0.077000
     12 C12        -2.3100    9.7030    1.8870 cd        1 JUP     -0.201300
     13 C13        -2.5470   11.1600    1.7780 c3        1 JUP      0.189100
     14 N14        -4.0040   11.5240    1.6530 n4        1 JUP     -0.681400
     15 C15        -4.2160   12.9550    2.0060 c3        1 JUP      0.080600
     16 C16        -4.5200   11.2410    0.2880 c3        1 JUP      0.080600
     17 C17        -2.7450    8.8930    2.9350 cc        1 JUP     -0.167100
     18 S18        -2.1760    7.3620    2.8110 ss        1 JUP      0.250200
     19 C19        -0.3450    6.7490   -0.7010 ca        1 JUP      0.448200
     20 N20         0.3990    5.8930   -1.4020 nb        1 JUP     -0.622000
     21 C21         1.0140    4.8800   -0.7250 ca        1 JUP      0.450200
     22 N22         1.8540    3.9780   -1.5390 n4        1 JUP     -0.821300
     23 C23         2.6340    3.8880    2.2510 ca        1 JUP     -0.136000
     24 C24         3.2850    2.8600    2.9260 ca        1 JUP     -0.011000
     25 C25         2.9000    1.5180    2.7440 ca        1 JUP     -0.205600
     26 C26         3.7010    0.5220    3.4640 c         1 JUP      0.569700
     27 N27         3.0950   -0.8310    3.7280 n4        1 JUP     -0.747400
     28 O28         4.8330    0.6680    3.9050 o         1 JUP     -0.389100
     29 C29         2.1310   -1.4840   -0.0210 ca        1 JUP     -0.098300
     30 C30         2.4090   -2.6480    0.7050 ca        1 JUP     -0.153000
     31 C31         3.3760   -3.5550    0.2680 ca        1 JUP     -0.082000
     32 C32         4.0870   -3.3000   -0.9040 ca        1 JUP     -0.090000
     33 C33         3.8300   -2.1380   -1.6330 ca        1 JUP     -0.061000
     34 C34         2.8620   -1.2280   -1.1940 ca        1 JUP     -0.156300
     35 C35         2.6230    0.0120   -2.0460 c3        1 JUP      0.695200
     36 F36         3.4210    0.1450   -3.1480 f         1 JUP     -0.248300
     37 F37         1.3460    0.1710   -2.5260 f         1 JUP     -0.248300
     38 F38         2.8240    1.2130   -1.3770 f         1 JUP     -0.248300
     39 H011       -0.2080   -2.0720    1.4680 hc        1 JUP      0.075367
     40 H012       -1.0880   -0.5810    0.9340 hc        1 JUP      0.075367
     41 H013       -0.5690   -1.8220   -0.2940 hc        1 JUP      0.075367
     42 H02         0.8870    0.2790   -0.2490 h1        1 JUP      0.060700
     43 H05         0.2810    2.0430    0.5810 ha        1 JUP      0.171000
     44 H23         2.9580    4.9310    2.4080 ha        1 JUP      0.181000
     45 H08         0.0060    5.5020    2.4750 ha        1 JUP      0.178000
     46 H19        -0.8300    7.5500   -1.2960 h4        1 JUP      0.071100
     47 H11        -1.0200    9.4180    0.0980 ha        1 JUP      0.174000
     48 H131       -2.1520   11.6720    2.7070 hx        1 JUP      0.116200
     49 H132       -2.0100   11.5860    0.8810 hx        1 JUP      0.116200
     50 H17        -3.3720    9.2270    3.7670 h4        1 JUP      0.199000
     51 H151       -3.9180   13.1280    3.0750 hx        1 JUP      0.110700
     52 H152       -5.3030   13.2110    1.8740 hx        1 JUP      0.110700
     53 H153       -3.5950   13.6050    1.3320 hx        1 JUP      0.110700
     54 H161       -4.0210   11.9210   -0.4530 hx        1 JUP      0.110700
     55 H162       -5.6300   11.4200    0.2660 hx        1 JUP      0.110700
     56 H163       -4.3030   10.1720    0.0270 hx        1 JUP      0.110700
     57 H221        1.9180    3.0560   -1.0830 hn        1 JUP      0.481133
     58 H222        1.4570    3.8650   -2.4840 hn        1 JUP      0.481133
     59 H24         4.1260    3.0960    3.6080 ha        1 JUP      0.195000
     60 H271        2.8990   -1.3010    2.8280 hn        1 JUP      0.480800
     61 H272        3.7410   -1.4050    4.2870 hn        1 JUP      0.480800
     62 H30         1.8130   -2.8810    1.6020 ha        1 JUP      0.137000
     63 H31         3.5610   -4.4830    0.8350 ha        1 JUP      0.173000
     64 H32         4.8430   -4.0190   -1.2660 ha        1 JUP      0.185000
     65 H33         4.3890   -1.9460   -2.5670 ha        1 JUP      0.183000
     66 H141       -4.5320   10.9440    2.3210 hn        1 JUP      0.450800
     67 H223        2.7960    4.3820   -1.6290 hn        1 JUP      0.481133
     68 H273        2.2060   -0.7230    4.2280 hn        1 JUP      0.480800
@<TRIPOS>BOND
     1    1    2 1   
     2    1   39 1   
     3    1   40 1   
     4    1   41 1   
     5    2    3 1   
     6    2   29 1   
     7    2   42 1   
     8    3    4 1   
     9    4    5 ar  
    10    4   25 ar  
    11    5    6 ar  
    12    5   43 1   
    13    6    7 1   
    14    6   23 ar  
    15    7    8 ar  
    16    7   21 ar  
    17    8    9 ar  
    18    8   45 1   
    19    9   10 1   
    20    9   19 ar  
    21   10   11 2   
    22   10   18 1   
    23   11   12 1   
    24   11   47 1   
    25   12   13 1   
    26   12   17 2   
    27   13   14 1   
    28   13   48 1   
    29   13   49 1   
    30   14   15 1   
    31   14   16 1   
    32   14   66 1   
    33   15   51 1   
    34   15   52 1   
    35   15   53 1   
    36   16   54 1   
    37   16   55 1   
    38   16   56 1   
    39   17   18 1   
    40   17   50 1   
    41   19   20 ar  
    42   19   46 1   
    43   20   21 ar  
    44   21   22 1   
    45   22   57 1   
    46   22   58 1   
    47   22   67 1   
    48   23   24 ar  
    49   23   44 1   
    50   24   25 ar  
    51   24   59 1   
    52   25   26 1   
    53   26   27 1   
    54   26   28 2   
    55   27   60 1   
    56   27   61 1   
    57   27   68 1   
    58   29   30 ar  
    59   29   34 ar  
    60   30   31 ar  
    61   30   62 1   
    62   31   32 ar  
    63   31   63 1   
    64   32   33 ar  
    65   32   64 1   
    66   33   34 ar  
    67   33   65 1   
    68   34   35 1   
    69   35   36 1   
    70   35   37 1   
    71   35   38 1   
@<TRIPOS>SUBSTRUCTURE
     1 JUP         1 TEMP              0 ****  ****    0 ROOT
