@<TRIPOS>MOLECULE
JUP
   65    68     1     0     0
SMALL
bcc


@<TRIPOS>ATOM
      1 C01        -3.1220   -0.0410    2.0290 c3        1 JUP     -0.131100
      2 C02        -3.6880    0.2910    0.6610 c3        1 JUP      0.189400
      3 O03        -3.5800   -0.8380   -0.2420 os        1 JUP     -0.338900
      4 C04        -2.3200   -1.3960   -0.3360 ca        1 JUP      0.160100
      5 C05        -1.2130   -0.6420   -0.7500 ca        1 JUP     -0.185000
      6 C06         0.0170   -1.2740   -0.9660 cp        1 JUP      0.020000
      7 C07         1.1850   -0.5030   -1.3840 cp        1 JUP     -0.237300
      8 C08         2.3290   -0.4980   -0.5840 ca        1 JUP     -0.037000
      9 C09         3.4520    0.2510   -0.9580 ca        1 JUP     -0.178300
     10 C10         4.6470    0.2830   -0.1600 cc        1 JUP     -0.045100
     11 C11         5.9310    0.5240   -0.6160 cd        1 JUP     -0.152000
     12 C12         6.8910    0.4890    0.4470 cd        1 JUP     -0.111300
     13 C13         8.3480    0.6640    0.1950 c3        1 JUP      0.235100
     14 N14         9.0760    1.3110    1.2810 n3        1 JUP     -0.736600
     15 C15        10.5080    1.1880    1.1220 c3        1 JUP      0.155100
     16 C16         8.6550    2.6730    1.5180 c3        1 JUP      0.155100
     17 C17         6.2920    0.2250    1.6610 cc        1 JUP     -0.146100
     18 S18         4.6430    0.0340    1.5120 ss        1 JUP      0.008200
     19 C19         3.3610    0.9880   -2.1640 ca        1 JUP      0.466200
     20 N20         2.2960    1.0030   -2.9670 nb        1 JUP     -0.728000
     21 C21         1.2000    0.2470   -2.6100 ca        1 JUP      0.672200
     22 N22         0.1370    0.1620   -3.4990 nh        1 JUP     -0.943500
     23 C23         0.1300   -2.6570   -0.7590 ca        1 JUP     -0.142000
     24 C24        -0.9720   -3.4020   -0.3500 ca        1 JUP     -0.086000
     25 C25        -2.2050   -2.7830   -0.1260 ca        1 JUP     -0.161600
     26 C26        -3.3770   -3.5660    0.3560 c         1 JUP      0.688700
     27 N27        -3.7150   -4.6940   -0.3530 n         1 JUP     -0.669000
     28 O28        -4.0260   -3.2480    1.3740 o         1 JUP     -0.615100
     29 C29        -5.1620    0.5800    0.7430 ca        1 JUP     -0.038300
     30 C30        -6.0270   -0.4820    1.0420 ca        1 JUP     -0.105000
     31 C31        -7.3990   -0.2690    1.1490 ca        1 JUP     -0.105000
     32 C32        -7.9230    1.0100    0.9600 ca        1 JUP     -0.130000
     33 C33        -7.0730    2.0710    0.6620 ca        1 JUP     -0.095000
     34 C34        -5.6940    1.8620    0.5480 ca        1 JUP     -0.155300
     35 C35        -4.8110    3.0590    0.2100 c3        1 JUP      0.686200
     36 F36        -5.4760    4.2570    0.1010 f         1 JUP     -0.239300
     37 F37        -3.8210    3.3230    1.1280 f         1 JUP     -0.239300
     38 F38        -4.1360    2.9570   -0.9840 f         1 JUP     -0.239300
     39 H011       -3.3660    0.7770    2.7470 hc        1 JUP      0.061700
     40 H012       -3.5550   -1.0060    2.3970 hc        1 JUP      0.061700
     41 H013       -2.0130   -0.1500    1.9640 hc        1 JUP      0.061700
     42 H02        -3.1280    1.1530    0.2000 h1        1 JUP      0.057700
     43 H05        -1.3140    0.4450   -0.8860 ha        1 JUP      0.151000
     44 H23         1.0980   -3.1520   -0.9260 ha        1 JUP      0.147000
     45 H08         2.3410   -1.0850    0.3480 ha        1 JUP      0.144000
     46 H19         4.2110    1.6140   -2.4980 h4        1 JUP      0.027100
     47 H11         6.2020    0.7100   -1.6570 ha        1 JUP      0.153000
     48 H131        8.7940   -0.3650    0.0510 h1        1 JUP      0.039700
     49 H132        8.4780    1.2260   -0.7790 h1        1 JUP      0.039700
     50 H17         6.8160    0.1490    2.6130 h4        1 JUP      0.185000
     51 H151       10.8980    1.6910    0.1940 h1        1 JUP      0.032367
     52 H152       11.0110    1.6470    2.0130 h1        1 JUP      0.032367
     53 H153       10.7800    0.1010    1.0770 h1        1 JUP      0.032367
     54 H161        7.5460    2.6840    1.6890 h1        1 JUP      0.032367
     55 H162        9.1680    3.0550    2.4390 h1        1 JUP      0.032367
     56 H163        8.8930    3.3660    0.6640 h1        1 JUP      0.032367
     57 H221       -0.7330   -0.1290   -3.1200 hn        1 JUP      0.425800
     58 H222        0.0990    0.8200   -4.2420 hn        1 JUP      0.425800
     59 H24        -0.8670   -4.4860   -0.1860 ha        1 JUP      0.143000
     60 H271       -3.2790   -4.8960   -1.2150 hn        1 JUP      0.312500
     61 H272       -4.5200   -5.2070   -0.0930 hn        1 JUP      0.312500
     62 H30        -5.5970   -1.4910    1.1870 ha        1 JUP      0.179000
     63 H31        -8.0670   -1.1120    1.3830 ha        1 JUP      0.142000
     64 H32        -9.0060    1.1830    1.0460 ha        1 JUP      0.141000
     65 H33        -7.4870    3.0820    0.5130 ha        1 JUP      0.152000
@<TRIPOS>BOND
     1    1    2 1   
     2    1   39 1   
     3    1   40 1   
     4    1   41 1   
     5    2    3 1   
     6    2   29 1   
     7    2   42 1   
     8    3    4 1   
     9    4    5 ar  
    10    4   25 ar  
    11    5    6 ar  
    12    5   43 1   
    13    6    7 1   
    14    6   23 ar  
    15    7    8 ar  
    16    7   21 ar  
    17    8    9 ar  
    18    8   45 1   
    19    9   10 1   
    20    9   19 ar  
    21   10   11 2   
    22   10   18 1   
    23   11   12 1   
    24   11   47 1   
    25   12   13 1   
    26   12   17 2   
    27   13   14 1   
    28   13   48 1   
    29   13   49 1   
    30   14   15 1   
    31   14   16 1   
    32   15   51 1   
    33   15   52 1   
    34   15   53 1   
    35   16   54 1   
    36   16   55 1   
    37   16   56 1   
    38   17   18 1   
    39   17   50 1   
    40   19   20 ar  
    41   19   46 1   
    42   20   21 ar  
    43   21   22 1   
    44   22   57 1   
    45   22   58 1   
    46   23   24 ar  
    47   23   44 1   
    48   24   25 ar  
    49   24   59 1   
    50   25   26 1   
    51   26   27 1   
    52   26   28 2   
    53   27   60 1   
    54   27   61 1   
    55   29   30 ar  
    56   29   34 ar  
    57   30   31 ar  
    58   30   62 1   
    59   31   32 ar  
    60   31   63 1   
    61   32   33 ar  
    62   32   64 1   
    63   33   34 ar  
    64   33   65 1   
    65   34   35 1   
    66   35   36 1   
    67   35   37 1   
    68   35   38 1   
@<TRIPOS>SUBSTRUCTURE
     1 JUP         1 TEMP              0 ****  ****    0 ROOT
