@<TRIPOS>MOLECULE
JUP
   67    70     1     0     0
SMALL
bcc


@<TRIPOS>ATOM
      1 C01        -0.0400   -0.3060    0.5200 c3        1 JUP     -0.132100
      2 C02         1.4080   -0.2740    0.0800 c3        1 JUP      0.196400
      3 O03         2.2500    0.1070    1.2060 os        1 JUP     -0.395900
      4 C04         2.1960    1.3990    1.6680 ca        1 JUP      0.216100
      5 C05         1.5580    2.4510    0.9960 ca        1 JUP     -0.219000
      6 C06         1.5670    3.7450    1.5290 cp        1 JUP      0.093000
      7 C07         0.9150    4.8500    0.8370 cp        1 JUP     -0.279300
      8 C08         0.0140    5.6600    1.5380 ca        1 JUP     -0.008000
      9 C09        -0.6380    6.7170    0.8980 ca        1 JUP     -0.218300
     10 C10        -1.5670    7.5800    1.5760 cc        1 JUP     -0.048100
     11 C11        -1.7200    8.9420    1.3510 cd        1 JUP     -0.138000
     12 C12        -2.7300    9.5000    2.1930 cd        1 JUP     -0.217300
     13 C13        -3.0500   10.9390    2.2420 c3        1 JUP      0.201100
     14 N14        -4.2790   11.2790    1.4270 nx        1 JUP     -0.684400
     15 C15        -4.8260   12.6000    1.8280 c3        1 JUP      0.081100
     16 C16        -3.9810   11.2500   -0.0270 c3        1 JUP      0.081100
     17 C17        -3.3010    8.5320    3.0110 cc        1 JUP     -0.176100
     18 S18        -2.6380    7.0480    2.7580 ss        1 JUP      0.184200
     19 C19        -0.3340    6.9260   -0.4750 ca        1 JUP      0.496200
     20 N20         0.5280    6.2020   -1.1770 nb        1 JUP     -0.715000
     21 C21         1.1760    5.1520   -0.5470 ca        1 JUP      0.713200
     22 N22         2.0470    4.3900   -1.2930 nv        1 JUP     -0.943500
     23 C23         2.1950    3.9760    2.7680 ca        1 JUP     -0.167000
     24 C24         2.8230    2.9430    3.4400 ca        1 JUP     -0.016000
     25 C25         2.8580    1.6410    2.8960 ca        1 JUP     -0.250600
     26 C26         3.5550    0.6340    3.6860 c         1 JUP      0.588700
     27 N27         4.2620   -0.4700    2.9330 nz        1 JUP     -0.753400
     28 O28         3.6920    0.5780    4.9010 o         1 JUP     -0.425100
     29 C29         1.9530   -1.5950   -0.3930 ca        1 JUP     -0.076300
     30 C30         1.1690   -2.7490   -0.2880 ca        1 JUP     -0.115000
     31 C31         1.6070   -3.9680   -0.8110 ca        1 JUP     -0.089000
     32 C32         2.8450   -4.0530   -1.4420 ca        1 JUP     -0.103000
     33 C33         3.6490   -2.9170   -1.5360 ca        1 JUP     -0.083000
     34 C34         3.2140   -1.6970   -1.0100 ca        1 JUP     -0.167300
     35 C35         4.1740   -0.5150   -1.1190 c3        1 JUP      0.698200
     36 F36         5.2630   -0.7150   -1.9250 f         1 JUP     -0.244633
     37 F37         3.6360    0.6610   -1.5760 f         1 JUP     -0.244633
     38 F38         4.7410   -0.1600    0.0920 f         1 JUP     -0.244633
     39 H011       -0.1770   -0.9700    1.4080 hc        1 JUP      0.066700
     40 H012       -0.3780    0.7210    0.8020 hc        1 JUP      0.066700
     41 H013       -0.6810   -0.6730   -0.3180 hc        1 JUP      0.066700
     42 H02         1.5480    0.4840   -0.7450 h1        1 JUP      0.086700
     43 H05         1.0220    2.2630    0.0510 ha        1 JUP      0.175000
     44 H23         2.1920    4.9910    3.1990 ha        1 JUP      0.168000
     45 H08        -0.1780    5.4540    2.6040 ha        1 JUP      0.144000
     46 H19        -0.8260    7.7460   -1.0350 h4        1 JUP      0.031100
     47 H11        -1.1250    9.5270    0.6460 ha        1 JUP      0.166000
     48 H131       -2.1960   11.5560    1.8410 hx        1 JUP      0.107700
     49 H132       -3.2600   11.2530    3.3070 hx        1 JUP      0.107700
     50 H17        -4.0740    8.7200    3.7590 h4        1 JUP      0.187000
     51 H151       -4.0380   13.3890    1.6970 hx        1 JUP      0.105367
     52 H152       -5.1450   12.5640    2.9040 hx        1 JUP      0.105367
     53 H153       -5.7120   12.8470    1.1830 hx        1 JUP      0.105367
     54 H161       -4.9370   11.3490   -0.6070 hx        1 JUP      0.105367
     55 H162       -3.4810   10.2750   -0.2770 hx        1 JUP      0.105367
     56 H163       -3.2960   12.1000   -0.2880 hx        1 JUP      0.105367
     57 H221        2.6980    3.8210   -0.8070 hn        1 JUP      0.444800
     58 H222        2.2920    4.6900   -2.2090 hn        1 JUP      0.444800
     59 H24         3.3110    3.1280    4.4150 ha        1 JUP      0.172000
     60 H271        3.5690   -1.0470    2.4360 hn        1 JUP      0.475133
     61 H272        4.8850   -0.0600    2.2260 hn        1 JUP      0.475133
     62 H30         0.1810   -2.7160    0.1990 ha        1 JUP      0.155000
     63 H31         0.9650   -4.8610   -0.7270 ha        1 JUP      0.165000
     64 H32         3.1920   -5.0080   -1.8690 ha        1 JUP      0.170000
     65 H33         4.6310   -2.9840   -2.0360 ha        1 JUP      0.171000
     66 H141       -4.9870   10.5570    1.6210 hn        1 JUP      0.450800
     67 H273        4.8010   -1.0550    3.5790 hn        1 JUP      0.475133
@<TRIPOS>BOND
     1    1    2 1   
     2    1   39 1   
     3    1   40 1   
     4    1   41 1   
     5    2    3 1   
     6    2   29 1   
     7    2   42 1   
     8    3    4 1   
     9    4    5 ar  
    10    4   25 ar  
    11    5    6 ar  
    12    5   43 1   
    13    6    7 1   
    14    6   23 ar  
    15    7    8 ar  
    16    7   21 ar  
    17    8    9 ar  
    18    8   45 1   
    19    9   10 1   
    20    9   19 ar  
    21   10   11 2   
    22   10   18 1   
    23   11   12 1   
    24   11   47 1   
    25   12   13 1   
    26   12   17 2   
    27   13   14 1   
    28   13   48 1   
    29   13   49 1   
    30   14   15 1   
    31   14   16 1   
    32   14   66 1   
    33   15   51 1   
    34   15   52 1   
    35   15   53 1   
    36   16   54 1   
    37   16   55 1   
    38   16   56 1   
    39   17   18 1   
    40   17   50 1   
    41   19   20 ar  
    42   19   46 1   
    43   20   21 ar  
    44   21   22 1   
    45   22   57 1   
    46   22   58 1   
    47   23   24 ar  
    48   23   44 1   
    49   24   25 ar  
    50   24   59 1   
    51   25   26 1   
    52   26   27 1   
    53   26   28 2   
    54   27   60 1   
    55   27   61 1   
    56   27   67 1   
    57   29   30 ar  
    58   29   34 ar  
    59   30   31 ar  
    60   30   62 1   
    61   31   32 ar  
    62   31   63 1   
    63   32   33 ar  
    64   32   64 1   
    65   33   34 ar  
    66   33   65 1   
    67   34   35 1   
    68   35   36 1   
    69   35   37 1   
    70   35   38 1   
@<TRIPOS>SUBSTRUCTURE
     1 JUP         1 TEMP              0 ****  ****    0 ROOT
