@<TRIPOS>MOLECULE
JUS
   43    45     1     0     0
SMALL
bcc


@<TRIPOS>ATOM
      1 C1          0.0000    0.0000    0.0000 ca        1 JUS     -0.083000
      2 C2          1.3830    0.0000    0.0000 ca        1 JUS     -0.077000
      3 C3          2.0770    0.0000    1.1950 ca        1 JUS     -0.121000
      4 C4          1.3930   -0.0000    2.3950 ca        1 JUS     -0.098000
      5 C5          0.0070   -0.0010    2.4040 ca        1 JUS      0.026000
      6 C6         -0.6920   -0.0000    1.2000 ca        1 JUS      0.055000
      7 C8         -1.1460   -1.1850    4.0440 ca        1 JUS      0.137000
      8 C9         -0.8430   -2.3640    3.3790 ca        1 JUS     -0.212000
      9 C10        -1.3260   -3.5680    3.8510 ca        1 JUS     -0.038000
     10 C11        -2.1150   -3.6090    4.9890 ca        1 JUS     -0.147000
     11 C12        -2.4260   -2.4480    5.6620 ca        1 JUS     -0.034000
     12 C13        -1.9440   -1.2220    5.1960 ca        1 JUS     -0.006000
     13 C14         2.1340   -0.0000   -1.3070 c3        1 JUS     -0.236000
     14 C15         2.3890    1.4410   -1.7500 c3        1 JUS     -0.072000
     15 C16         3.1520    1.4410   -3.0760 DU        1 JUS      0.135000
     16 C17         3.4060    2.8840   -3.5180 c3        1 JUS     -0.183000
     17 C18         4.1690    2.8830   -4.8450 c3        1 JUS     -0.103000
     18 C19         4.4240    4.3250   -5.2870 c3        1 JUS     -0.105000
     19 CAD        -2.2630   -0.0110    5.8900 c1        1 JUS     -0.086000
     20 O17        -2.0520    0.0010    1.2020 oh        1 JUS     -0.235000
     21 NAB        -2.5340    0.9510    6.4300 n1        1 JUS     -0.058000
     22 O7         -0.6680   -0.0010    3.5840 os        1 JUS     -0.105000
     23 H1         -0.5420    0.0000   -0.9380 ha        1 JUS      0.131000
     24 H3          3.1610    0.0000    1.1920 ha        1 JUS      0.104000
     25 H141        3.0290   -0.6030   -1.2090 hc        1 JUS      0.001500
     26 H142        2.4100    1.0150   -1.5650 hc        1 JUS      0.001500
     27 H4          1.9390   -0.0000    3.3310 ha        1 JUS      0.118000
     28 H17        -2.3680   -0.8220    0.8650 ho        1 JUS      0.202000
     29 H9         -0.2270   -2.3400    2.4880 ha        1 JUS      0.129000
     30 H10        -1.0880   -4.4880    3.3310 ha        1 JUS      0.103000
     31 H11        -2.4910   -4.5580    5.3540 ha        1 JUS      0.111000
     32 H12        -3.0440   -2.4860    6.5510 ha        1 JUS      0.113000
     33 H151        3.3420    1.4990   -2.2610 DU        1 JUS      0.049000
     34 H152        2.4050    2.0880   -0.8810 hc        1 JUS      0.102000
     35 H161        2.5730    0.9160   -3.8260 ha        1 JUS      0.037500
     36 H162        4.1060    0.9450   -2.9430 ha        1 JUS      0.037500
     37 H171        2.5880    3.2190   -4.1430 hc        1 JUS      0.083000
     38 H172        3.4790    3.5220   -2.6460 hc        1 JUS      0.083000
     39 H181        4.8820    2.0670   -4.8510 hc        1 JUS      0.057000
     40 H182        3.4710    2.7580   -5.6630 hc        1 JUS      0.057000
     41 H191        3.4980    4.8860   -5.2400 hc        1 JUS      0.042333
     42 H192        5.1560    4.7800   -4.6310 hc        1 JUS      0.042333
     43 H193        4.7980    4.3300   -6.3040 hc        1 JUS      0.042333
@<TRIPOS>BOND
     1    1    2 1   
     2    1    6 1   
     3    1   23 1   
     4    2    3 1   
     5    2   13 1   
     6    3    4 1   
     7    3   24 1   
     8    4    5 1   
     9    4   27 1   
    10    5    6 1   
    11    5   22 1   
    12    6   20 1   
    13    7    8 1   
    14    7   12 1   
    15    7   22 1   
    16    8    9 1   
    17    8   29 1   
    18    9   10 1   
    19    9   30 1   
    20   10   11 1   
    21   10   31 1   
    22   11   12 1   
    23   11   32 1   
    24   12   19 1   
    25   13   14 1   
    26   13   25 1   
    27   13   26 1   
    28   14   15 1   
    29   14   33 1   
    30   14   34 1   
    31   15   16 1   
    32   15   33 1   
    33   15   35 1   
    34   15   36 1   
    35   16   17 1   
    36   16   37 1   
    37   16   38 1   
    38   17   18 1   
    39   17   39 1   
    40   17   40 1   
    41   18   41 1   
    42   18   42 1   
    43   18   43 1   
    44   19   21 1   
    45   20   28 1   
@<TRIPOS>SUBSTRUCTURE
     1 JUS         1 TEMP              0 ****  ****    0 ROOT
