@<TRIPOS>MOLECULE
JUS
   43    43     1     0     0
SMALL
bcc


@<TRIPOS>ATOM
      1 C1          2.2010   -0.5690    0.5170 ca        1 JUS     -0.079000
      2 C2          3.2190   -1.4970    0.8000 ca        1 JUS     -0.174000
      3 C3          3.2330   -2.1390    2.0550 ca        1 JUS     -0.082000
      4 C4          2.2560   -1.8730    3.0060 ca        1 JUS     -0.144000
      5 C5          1.2450   -0.9440    2.7200 ca        1 JUS      0.085000
      6 C6          1.2170   -0.2860    1.4710 ca        1 JUS      0.017000
      7 C8         -0.9580   -0.8920    3.5940 ca        1 JUS      0.120000
      8 C9         -1.4370   -1.8280    2.6690 ca        1 JUS     -0.185000
      9 C10        -2.8000   -2.1070    2.6240 ca        1 JUS     -0.077000
     10 C11        -3.6830   -1.4650    3.4940 ca        1 JUS     -0.161000
     11 C12        -3.2070   -0.5340    4.4140 ca        1 JUS     -0.067000
     12 C13        -1.8390   -0.2310    4.4770 ca        1 JUS     -0.028000
     13 C14         4.1880   -1.7340   -0.2190 c1        1 JUS     -0.052000
     14 C15         3.1260    0.1610   -2.9720 c3        1 JUS     -0.223500
     15 C16         3.1960    1.6360   -2.6770 c3        1 JUS     -0.156500
     16 C17         2.4740    2.4530   -3.7280 c3        1 JUS     -0.160000
     17 C18         2.5450    3.9350   -3.4240 c3        1 JUS     -0.156500
     18 C19         1.8270    4.7490   -4.4680 c3        1 JUS     -0.223500
     19 CAD        -1.3610    0.7200    5.4150 c1        1 JUS     -0.083000
     20 O17         0.1970    0.6090    1.2510 oh        1 JUS     -0.237000
     21 NAB        -0.9700    1.5000    6.1850 n1        1 JUS     -0.034000
     22 O7          0.3900   -0.5970    3.7590 os        1 JUS     -0.142000
     23 H1          2.1970   -0.0630   -0.4650 ha        1 JUS      0.170000
     24 H3          4.0310   -2.8630    2.2830 ha        1 JUS      0.144000
     25 H141        4.9940   -2.4410    0.0350 ha        1 JUS      0.041000
     26 H142        3.6550   -0.4280   -2.1760 hc        1 JUS      0.077500
     27 H4          2.2670   -2.3650    3.9910 ha        1 JUS      0.161000
     28 H17         0.3360    1.0100    0.3790 ho        1 JUS      0.228000
     29 H9         -0.7390   -2.3260    1.9810 ha        1 JUS      0.149000
     30 H10        -3.1810   -2.8410    1.8980 ha        1 JUS      0.141000
     31 H11        -4.7580   -1.6920    3.4540 ha        1 JUS      0.143000
     32 H12        -3.9040   -0.0260    5.0990 ha        1 JUS      0.149000
     33 H151        2.0640   -0.1810   -3.0190 hc        1 JUS      0.077500
     34 H152        3.6050   -0.0650   -3.9550 hc        1 JUS      0.077500
     35 H161        4.2690    1.9590   -2.6250 hc        1 JUS      0.074000
     36 H162        2.7440    1.8420   -1.6700 hc        1 JUS      0.074000
     37 H171        2.9290    2.2540   -4.7340 hc        1 JUS      0.077500
     38 H172        1.4010    2.1320   -3.7830 hc        1 JUS      0.077500
     39 H181        2.0940    4.1320   -2.4160 hc        1 JUS      0.074000
     40 H182        3.6200    4.2530   -3.3710 hc        1 JUS      0.074000
     41 H191        2.2800    4.5860   -5.4760 hc        1 JUS      0.077500
     42 H192        0.7480    4.4630   -4.5190 hc        1 JUS      0.077500
     43 H193        1.8920    5.8370   -4.2250 hc        1 JUS      0.077500
@<TRIPOS>BOND
     1    1    2 1   
     2    1    6 1   
     3    1   23 1   
     4    2    3 1   
     5    2   13 1   
     6    3    4 1   
     7    3   24 1   
     8    4    5 1   
     9    4   27 1   
    10    5    6 1   
    11    5   22 1   
    12    6   20 1   
    13    7    8 1   
    14    7   12 1   
    15    7   22 1   
    16    8    9 1   
    17    8   29 1   
    18    9   10 1   
    19    9   30 1   
    20   10   11 1   
    21   10   31 1   
    22   11   12 1   
    23   11   32 1   
    24   12   19 1   
    25   13   25 1   
    26   14   15 1   
    27   14   26 1   
    28   14   33 1   
    29   14   34 1   
    30   15   16 1   
    31   15   35 1   
    32   15   36 1   
    33   16   17 1   
    34   16   37 1   
    35   16   38 1   
    36   17   18 1   
    37   17   39 1   
    38   17   40 1   
    39   18   41 1   
    40   18   42 1   
    41   18   43 1   
    42   19   21 1   
    43   20   28 1   
@<TRIPOS>SUBSTRUCTURE
     1 JUS         1 TEMP              0 ****  ****    0 ROOT
