@<TRIPOS>MOLECULE
JUS
   43    44     1     0     0
SMALL
bcc


@<TRIPOS>ATOM
      1 C1         -1.0840    0.3370   -1.1550 ca        1 JUS     -0.154000
      2 C2         -1.6000    0.7490    0.0750 ca        1 JUS     -0.038300
      3 C3         -0.7940    0.7180    1.2220 ca        1 JUS     -0.156000
      4 C4          0.5250    0.2810    1.1520 ca        1 JUS     -0.099000
      5 C5          1.0470   -0.1240   -0.0800 ca        1 JUS     -0.014900
      6 C6          0.2460   -0.1040   -1.2390 ca        1 JUS      0.141100
      7 C8          3.3960    0.1480    0.0340 ca        1 JUS      0.151100
      8 C9          3.2880    1.5390    0.1610 ca        1 JUS     -0.192000
      9 C10         4.4370    2.2990    0.3570 ca        1 JUS     -0.076000
     10 C11         5.6880    1.6860    0.4270 ca        1 JUS     -0.164000
     11 C12         5.7980    0.3040    0.3020 ca        1 JUS     -0.065000
     12 C13         4.6560   -0.4850    0.1060 ca        1 JUS     -0.043000
     13 C14        -3.0090    1.2240    0.1610 c3        1 JUS     -0.041100
     14 C15        -3.9950    0.0740    0.0610 c3        1 JUS     -0.077400
     15 C16        -5.4220    0.5770    0.1170 c3        1 JUS     -0.079400
     16 C17        -6.4080   -0.5670    0.0210 c3        1 JUS     -0.079400
     17 C18        -7.8370   -0.0680    0.0760 c3        1 JUS     -0.080400
     18 C19        -8.8230   -1.2030   -0.0190 c3        1 JUS     -0.093100
     19 CAD         4.7760   -1.8930   -0.0200 cg        1 JUS      0.244800
     20 O17         0.7010   -0.5050   -2.4690 oh        1 JUS     -0.489100
     21 NAB         4.8750   -3.0480   -0.1230 n1        1 JUS     -0.359800
     22 O7          2.3160   -0.6950   -0.1920 os        1 JUS     -0.247200
     23 H1         -1.7040    0.3490   -2.0630 ha        1 JUS      0.157000
     24 H3         -1.2090    1.0380    2.1900 ha        1 JUS      0.140000
     25 H141       -3.1720    1.7710    1.1270 hc        1 JUS      0.051700
     26 H142       -3.2050    1.9540   -0.6710 hc        1 JUS      0.051700
     27 H4          1.1600    0.2500    2.0490 ha        1 JUS      0.149000
     28 H17         1.6050   -0.8410   -2.3580 ho        1 JUS      0.438000
     29 H9          2.2990    2.0190    0.1060 ha        1 JUS      0.157000
     30 H10         4.3540    3.3930    0.4550 ha        1 JUS      0.141000
     31 H11         6.5920    2.2940    0.5820 ha        1 JUS      0.143000
     32 H12         6.7850   -0.1810    0.3580 ha        1 JUS      0.149000
     33 H151       -3.8260   -0.4810   -0.8990 hc        1 JUS      0.047200
     34 H152       -3.8160   -0.6490    0.9000 hc        1 JUS      0.047200
     35 H161       -5.5870    1.1370    1.0750 hc        1 JUS      0.039700
     36 H162       -5.6000    1.2990   -0.7230 hc        1 JUS      0.039700
     37 H171       -6.2430   -1.1270   -0.9360 hc        1 JUS      0.041700
     38 H172       -6.2310   -1.2890    0.8620 hc        1 JUS      0.041700
     39 H181       -8.0000    0.4940    1.0340 hc        1 JUS      0.038200
     40 H182       -8.0120    0.6550   -0.7640 hc        1 JUS      0.038200
     41 H191       -9.8680   -0.8140    0.0230 hc        1 JUS      0.033033
     42 H192       -8.6920   -1.7600   -0.9780 hc        1 JUS      0.033033
     43 H193       -8.6800   -1.9210    0.8240 hc        1 JUS      0.033033
@<TRIPOS>BOND
     1    1    2 ar  
     2    1    6 ar  
     3    1   23 1   
     4    2    3 ar  
     5    2   13 1   
     6    3    4 ar  
     7    3   24 1   
     8    4    5 ar  
     9    4   27 1   
    10    5    6 ar  
    11    5   22 1   
    12    6   20 1   
    13    7    8 ar  
    14    7   12 ar  
    15    7   22 1   
    16    8    9 ar  
    17    8   29 1   
    18    9   10 ar  
    19    9   30 1   
    20   10   11 ar  
    21   10   31 1   
    22   11   12 ar  
    23   11   32 1   
    24   12   19 1   
    25   13   14 1   
    26   13   25 1   
    27   13   26 1   
    28   14   15 1   
    29   14   33 1   
    30   14   34 1   
    31   15   16 1   
    32   15   35 1   
    33   15   36 1   
    34   16   17 1   
    35   16   37 1   
    36   16   38 1   
    37   17   18 1   
    38   17   39 1   
    39   17   40 1   
    40   18   41 1   
    41   18   42 1   
    42   18   43 1   
    43   19   21 3   
    44   20   28 1   
@<TRIPOS>SUBSTRUCTURE
     1 JUS         1 TEMP              0 ****  ****    0 ROOT
