@<TRIPOS>MOLECULE
JV0
   59    54     1     0     0
SMALL
bcc


@<TRIPOS>ATOM
      1 C8         -2.6500   -0.3090   -1.2730 c3        1 JV0     -0.161000
      2 C7         -1.1410   -0.3960   -1.2780 c2        1 JV0     -0.047000
      3 N1         -0.3230   -0.2700   -0.1830 n2        1 JV0     -0.081000
      4 C6         -0.7660   -0.0930    1.2020 c1        1 JV0      0.005000
      5 C24        -1.1360   -1.1970    1.9560 c2        1 JV0     -0.116000
      6 C25        -1.6500   -1.0220    3.2410 c1        1 JV0     -0.134000
      7 C3         -1.7910    0.2610    3.7670 c1        1 JV0     -0.067000
      8 C2         -2.2750    0.4490    5.2200 c3        1 JV0     -0.125000
      9 C1         -3.7920    0.3210    5.2710 c3        1 JV0     -0.208000
     10 C4         -1.4210    1.3630    3.0140 c1        1 JV0     -0.119000
     11 C5         -0.9070    1.1890    1.7290 c1        1 JV0     -0.111000
     12 C9         -0.3470   -0.6680   -2.3790 c1        1 JV0     -0.187000
     13 C10        -0.8600   -1.1430   -3.7670 c2        1 JV0      0.003000
     14 N2         -0.8110   -0.0390   -4.7100 n3        1 JV0     -0.257000
     15 C11        -2.2610    0.5850   -4.8740 c3        1 JV0     -0.070000
     16 C12        -2.2660    1.8260   -5.7470 c3        1 JV0     -0.270000
     17 S1         -1.1750    2.9090   -5.2710 ss        1 JV0      0.055000
     18 C13         0.2890    2.2640   -5.1080 c3        1 JV0     -0.270000
     19 C14         0.2730    1.0160   -4.2400 c3        1 JV0     -0.070000
     20 C15         0.9550   -0.7090   -1.9560 c1        1 JV0     -0.165000
     21 C16         0.9720   -0.4620   -0.5950 c1        1 JV0     -0.037000
     22 C17         2.1950   -0.5890    0.3240 c1        1 JV0      0.005000
     23 C18         2.6610   -1.8440    0.6850 c2        1 JV0     -0.116000
     24 C19         3.7970   -1.9620    1.4840 c1        1 JV0     -0.134000
     25 C23         2.8590    0.5490    0.7570 c1        1 JV0     -0.111000
     26 C22         3.9940    0.4320    1.5560 c1        1 JV0     -0.124000
     27 C20         4.4610   -0.8230    1.9180 c1        1 JV0     -0.229000
     28 S2          5.9900   -0.9760    2.8340 ss        1 JV0      0.245000
     29 C21         5.6370   -1.5280    4.4900 c3        1 JV0     -0.370000
     30 H81C       -2.9950   -0.6890   -0.4420 hc        1 JV0      0.091333
     31 H82C       -3.0080   -0.8080   -2.0340 hc        1 JV0      0.091333
     32 H83C       -2.9240    0.6340   -1.3410 hc        1 JV0      0.091333
     33 H24        -1.0380   -2.0930    1.5880 ha        1 JV0      0.142500
     34 H5         -0.6460    1.9660    1.1990 ha        1 JV0      0.147000
     35 H25        -1.9110   -1.8010    3.7730 ha        1 JV0      0.134500
     36 H21C       -1.8680   -0.2380    5.7940 hc        1 JV0      0.088500
     37 H22C       -2.0130    1.3330    5.5360 hc        1 JV0      0.088500
     38 H4         -1.5190    2.2580    3.3810 ha        1 JV0      0.139000
     39 H11C       -4.0450   -0.6300    5.1900 hc        1 JV0      0.076667
     40 H12C       -4.1860    0.8260    4.5360 hc        1 JV0      0.076667
     41 H13C       -4.1220    0.6750    6.1260 hc        1 JV0      0.076667
     42 H101       -0.2940   -1.8750   -4.0910 h4        1 JV0      0.095500
     43 H102       -1.7780   -1.4570   -3.6830 h4        1 JV0      0.095500
     44 H15         1.7380   -0.8820   -2.5190 DU        1 JV0      0.155000
     45 H111       -2.8490   -0.0840   -5.2740 h1        1 JV0      0.083000
     46 H112       -2.6030    0.8190   -3.9940 h1        1 JV0      0.083000
     47 H141        1.1560    0.5970   -4.2730 h1        1 JV0      0.083000
     48 H142        0.0820    1.2740   -3.3230 h1        1 JV0      0.083000
     49 H121       -2.0720    1.5650   -6.6680 h1        1 JV0      0.113250
     50 H122       -3.1570    2.2350   -5.7130 h1        1 JV0      0.113250
     51 H131        0.8800    2.9210   -4.7050 h1        1 JV0      0.113250
     52 H132        0.6340    2.0280   -5.9980 h1        1 JV0      0.113250
     53 H18         2.1960   -2.6420    0.3810 ha        1 JV0      0.142500
     54 H23         2.5300    1.4370    0.5010 ha        1 JV0      0.147000
     55 H19         4.1260   -2.8490    1.7400 ha        1 JV0      0.134500
     56 H22         4.4610    1.2320    1.8610 ha        1 JV0      0.143000
     57 H211        5.1720   -2.3910    4.4560 h1        1 JV0      0.109000
     58 H212        5.0680   -0.8660    4.9410 h1        1 JV0      0.109000
     59 H213        6.4740   -1.6290    4.9850 h1        1 JV0      0.109000
@<TRIPOS>BOND
     1    1    2 1   
     2    1   30 1   
     3    1   31 1   
     4    1   32 1   
     5    2    3 1   
     6    2   12 1   
     7    3   21 1   
     8    4    5 1   
     9    4   11 1   
    10    5    6 1   
    11    5   33 1   
    12    6   35 1   
    13    7    8 1   
    14    7   10 1   
    15    8    9 1   
    16    8   36 1   
    17    8   37 1   
    18    9   39 1   
    19    9   40 1   
    20    9   41 1   
    21   10   38 1   
    22   11   34 1   
    23   12   20 1   
    24   13   14 1   
    25   13   42 1   
    26   13   43 1   
    27   14   15 1   
    28   14   19 1   
    29   15   16 1   
    30   15   45 1   
    31   15   46 1   
    32   16   17 1   
    33   16   49 1   
    34   16   50 1   
    35   17   18 1   
    36   18   19 1   
    37   18   51 1   
    38   18   52 1   
    39   19   47 1   
    40   19   48 1   
    41   20   21 1   
    42   22   23 1   
    43   22   25 1   
    44   23   24 1   
    45   23   53 1   
    46   24   55 1   
    47   25   54 1   
    48   26   27 1   
    49   26   56 1   
    50   27   28 1   
    51   28   29 1   
    52   29   57 1   
    53   29   58 1   
    54   29   59 1   
@<TRIPOS>SUBSTRUCTURE
     1 JV0         1 TEMP              0 ****  ****    0 ROOT
