@<TRIPOS>MOLECULE
JV0
   59    62     1     0     0
SMALL
bcc


@<TRIPOS>ATOM
      1 C8         -2.0600    2.3170    0.9300 c3        1 JV0     -0.035800
      2 C7         -1.4590    0.9710    0.9130 cc        1 JV0     -0.059600
      3 N1         -0.1010    0.7230    0.6580 na        1 JV0      0.002800
      4 C6          0.8730    1.7280    0.4430 ca        1 JV0     -0.011200
      5 C24         1.8930    1.9560    1.3880 ca        1 JV0     -0.120000
      6 C25         2.8360    2.9560    1.1710 ca        1 JV0     -0.125500
      7 C3          2.7860    3.7520    0.0220 ca        1 JV0     -0.070300
      8 C2          3.7880    4.8300   -0.2010 c3        1 JV0     -0.040100
      9 C1          4.7580    4.4830   -1.3060 c3        1 JV0     -0.090100
     10 C4          1.7710    3.5280   -0.9150 ca        1 JV0     -0.125500
     11 C5          0.8240    2.5300   -0.7180 ca        1 JV0     -0.120000
     12 C9         -2.0900   -0.2630    1.1580 cd        1 JV0     -0.167300
     13 C10        -3.5100   -0.4860    1.5100 c3        1 JV0      0.251100
     14 N2         -4.4540   -0.2310    0.4220 n3        1 JV0     -0.736600
     15 C11        -5.8340   -0.3410    0.8860 c3        1 JV0      0.164800
     16 C12        -6.8490    0.1580   -0.1300 c3        1 JV0     -0.008300
     17 S1         -6.7390   -0.6760   -1.6820 ss        1 JV0     -0.313200
     18 C13        -4.9960   -0.6320   -1.9720 c3        1 JV0     -0.008300
     19 C14        -4.1870   -1.0490   -0.7540 c3        1 JV0      0.164800
     20 C15        -1.0910   -1.2850    1.0590 cd        1 JV0     -0.171000
     21 C16         0.1310   -0.6620    0.7530 cc        1 JV0     -0.062300
     22 C17         1.4020   -1.3250    0.5310 ca        1 JV0     -0.022000
     23 C18         1.7320   -2.4450    1.3150 ca        1 JV0     -0.102000
     24 C19         2.9220   -3.1270    1.1000 ca        1 JV0     -0.133500
     25 C23         2.2900   -0.9140   -0.4690 ca        1 JV0     -0.102000
     26 C22         3.4830   -1.6000   -0.6810 ca        1 JV0     -0.133500
     27 C20         3.8140   -2.7120    0.0980 ca        1 JV0     -0.004100
     28 S2          5.2260   -3.6340   -0.0510 ss        1 JV0     -0.166000
     29 C21         6.1330   -2.9170   -1.3620 c3        1 JV0     -0.069000
     30 H81C       -1.8310    2.8720   -0.0140 hc        1 JV0      0.054367
     31 H82C       -3.1700    2.2230    1.0300 hc        1 JV0      0.054367
     32 H83C       -1.6680    2.9140    1.7920 hc        1 JV0      0.054367
     33 H24         1.9540    1.3390    2.2990 ha        1 JV0      0.148500
     34 H5          0.0340    2.3710   -1.4690 ha        1 JV0      0.148500
     35 H25         3.6290    3.1200    1.9170 ha        1 JV0      0.138500
     36 H21C        3.2500    5.7810   -0.4640 hc        1 JV0      0.049700
     37 H22C        4.3590    5.0240    0.7470 hc        1 JV0      0.049700
     38 H4          1.7240    4.1490   -1.8230 ha        1 JV0      0.138500
     39 H11C        5.3400    3.5660   -1.0470 hc        1 JV0      0.037700
     40 H12C        4.2130    4.2950   -2.2620 hc        1 JV0      0.037700
     41 H13C        5.4750    5.3250   -1.4630 hc        1 JV0      0.037700
     42 H101       -3.6160   -1.5430    1.9010 h1        1 JV0      0.036700
     43 H102       -3.7840    0.2170    2.3520 h1        1 JV0      0.036700
     44 H15        -1.2470   -2.3530    1.1860 ha        1 JV0      0.154000
     45 H111       -6.0930   -1.4060    1.1650 h1        1 JV0      0.044200
     46 H112       -5.9360    0.2870    1.8180 h1        1 JV0      0.044200
     47 H141       -3.0910   -0.9410   -1.0020 h1        1 JV0      0.044200
     48 H142       -4.3830   -2.1430   -0.5480 h1        1 JV0      0.044200
     49 H121       -7.8800   -0.0360    0.2540 h1        1 JV0      0.074450
     50 H122       -6.7310    1.2590   -0.2810 h1        1 JV0      0.074450
     51 H131       -4.8030   -1.3500   -2.8060 h1        1 JV0      0.074450
     52 H132       -4.6910    0.3890   -2.3060 h1        1 JV0      0.074450
     53 H18         1.0390   -2.7790    2.1020 ha        1 JV0      0.140000
     54 H23         2.0460   -0.0420   -1.0960 ha        1 JV0      0.140000
     55 H19         3.1720   -4.0030    1.7190 ha        1 JV0      0.136500
     56 H22         4.1650   -1.2580   -1.4750 ha        1 JV0      0.136500
     57 H211        5.5820   -2.9470   -2.3290 h1        1 JV0      0.069367
     58 H212        6.4250   -1.8630   -1.1540 h1        1 JV0      0.069367
     59 H213        7.0570   -3.5360   -1.4540 h1        1 JV0      0.069367
@<TRIPOS>BOND
     1    1    2 1   
     2    1   30 1   
     3    1   31 1   
     4    1   32 1   
     5    2    3 1   
     6    2   12 2   
     7    3    4 1   
     8    3   21 1   
     9    4    5 ar  
    10    4   11 ar  
    11    5    6 ar  
    12    5   33 1   
    13    6    7 ar  
    14    6   35 1   
    15    7    8 1   
    16    7   10 ar  
    17    8    9 1   
    18    8   36 1   
    19    8   37 1   
    20    9   39 1   
    21    9   40 1   
    22    9   41 1   
    23   10   11 ar  
    24   10   38 1   
    25   11   34 1   
    26   12   13 1   
    27   12   20 1   
    28   13   14 1   
    29   13   42 1   
    30   13   43 1   
    31   14   15 1   
    32   14   19 1   
    33   15   16 1   
    34   15   45 1   
    35   15   46 1   
    36   16   17 1   
    37   16   49 1   
    38   16   50 1   
    39   17   18 1   
    40   18   19 1   
    41   18   51 1   
    42   18   52 1   
    43   19   47 1   
    44   19   48 1   
    45   20   21 2   
    46   20   44 1   
    47   21   22 1   
    48   22   23 ar  
    49   22   25 ar  
    50   23   24 ar  
    51   23   53 1   
    52   24   27 ar  
    53   24   55 1   
    54   25   26 ar  
    55   25   54 1   
    56   26   27 ar  
    57   26   56 1   
    58   27   28 1   
    59   28   29 1   
    60   29   57 1   
    61   29   58 1   
    62   29   59 1   
@<TRIPOS>SUBSTRUCTURE
     1 JV0         1 TEMP              0 ****  ****    0 ROOT
