@<TRIPOS>MOLECULE
JV0
   59    62     1     0     0
SMALL
bcc


@<TRIPOS>ATOM
      1 C8          0.1210    0.2100    0.0610 c3        1 JV0     -0.035800
      2 C7          1.5940    0.1610    0.0470 cc        1 JV0     -0.059600
      3 N1          2.3860    0.0810    1.2030 na        1 JV0      0.001800
      4 C6          1.8780   -0.0220    2.5200 ca        1 JV0     -0.011200
      5 C24         2.0430   -1.2070    3.2650 ca        1 JV0     -0.120000
      6 C25         1.5270   -1.2990    4.5540 ca        1 JV0     -0.125500
      7 C3          0.8350   -0.2280    5.1280 ca        1 JV0     -0.070300
      8 C2          0.2720   -0.3350    6.5020 c3        1 JV0     -0.040100
      9 C1          1.0380    0.5070    7.4960 c3        1 JV0     -0.090100
     10 C4          0.6690    0.9480    4.3880 ca        1 JV0     -0.125500
     11 C5          1.1820    1.0600    3.1000 ca        1 JV0     -0.120000
     12 C9          2.4500    0.1620   -1.0710 cd        1 JV0     -0.167300
     13 C10         2.0560    0.1950   -2.4970 c3        1 JV0      0.251100
     14 N2          1.4910    1.4680   -2.9430 n3        1 JV0     -0.736600
     15 C11         1.0060    1.3760   -4.3170 c3        1 JV0      0.164800
     16 C12         0.1850    2.5830   -4.7450 c3        1 JV0     -0.008300
     17 S1          1.0670    4.1050   -4.5910 ss        1 JV0     -0.313200
     18 C13         1.7520    3.9420   -2.9700 c3        1 JV0     -0.008300
     19 C14         2.4030    2.5870   -2.7410 c3        1 JV0      0.164800
     20 C15         3.7940    0.0720   -0.5850 cd        1 JV0     -0.171000
     21 C16         3.7390    0.0190    0.8190 cc        1 JV0     -0.062300
     22 C17         4.8740   -0.0440    1.7210 ca        1 JV0     -0.022000
     23 C18         5.9930   -0.8120    1.3550 ca        1 JV0     -0.102000
     24 C19         7.1120   -0.8610    2.1760 ca        1 JV0     -0.133500
     25 C23         4.9080    0.6710    2.9240 ca        1 JV0     -0.102000
     26 C22         6.0310    0.6190    3.7460 ca        1 JV0     -0.133500
     27 C20         7.1440   -0.1450    3.3840 ca        1 JV0     -0.004100
     28 S2          8.5680   -0.2980    4.2860 ss        1 JV0     -0.166000
     29 C21         8.3450    0.6940    5.7090 c3        1 JV0     -0.069000
     30 H81C       -0.2520    0.4060   -0.9750 hc        1 JV0      0.054367
     31 H82C       -0.2490    1.0230    0.7360 hc        1 JV0      0.054367
     32 H83C       -0.3030   -0.7630    0.4200 hc        1 JV0      0.054367
     33 H24         2.5870   -2.0630    2.8340 ha        1 JV0      0.148500
     34 H5          1.0400    1.9950    2.5360 ha        1 JV0      0.148500
     35 H25         1.6660   -2.2310    5.1250 ha        1 JV0      0.138500
     36 H21C       -0.8020   -0.0040    6.4840 hc        1 JV0      0.049700
     37 H22C        0.2820   -1.4070    6.8380 hc        1 JV0      0.049700
     38 H4          0.1260    1.7960    4.8310 ha        1 JV0      0.138500
     39 H11C        2.0990    0.1670    7.5670 hc        1 JV0      0.037700
     40 H12C        0.5700    0.4250    8.5070 hc        1 JV0      0.037700
     41 H13C        1.0330    1.5800    7.1870 hc        1 JV0      0.037700
     42 H101        1.2620   -0.5920   -2.6670 h1        1 JV0      0.036700
     43 H102        2.9570   -0.0910   -3.1200 h1        1 JV0      0.036700
     44 H15         4.6970    0.0570   -1.1870 ha        1 JV0      0.154000
     45 H111        0.3450    0.4640   -4.3890 h1        1 JV0      0.044200
     46 H112        1.8560    1.2370   -5.0490 h1        1 JV0      0.044200
     47 H141        2.7640    2.5430   -1.6730 h1        1 JV0      0.044200
     48 H142        3.3110    2.5050   -3.4110 h1        1 JV0      0.044200
     49 H121       -0.0770    2.4850   -5.8270 h1        1 JV0      0.074450
     50 H122       -0.7620    2.6310   -4.1550 h1        1 JV0      0.074450
     51 H131        0.9620    4.1250   -2.2030 h1        1 JV0      0.074450
     52 H132        2.5260    4.7430   -2.8800 h1        1 JV0      0.074450
     53 H18         5.9780   -1.3770    0.4100 ha        1 JV0      0.140000
     54 H23         4.0420    1.2820    3.2250 ha        1 JV0      0.140000
     55 H19         7.9840   -1.4650    1.8810 ha        1 JV0      0.136500
     56 H22         6.0340    1.1910    4.6860 ha        1 JV0      0.136500
     57 H211        7.4950    0.3520    6.3400 h1        1 JV0      0.069367
     58 H212        8.1920    1.7680    5.4610 h1        1 JV0      0.069367
     59 H213        9.2920    0.5900    6.2910 h1        1 JV0      0.069367
@<TRIPOS>BOND
     1    1    2 1   
     2    1   30 1   
     3    1   31 1   
     4    1   32 1   
     5    2    3 1   
     6    2   12 2   
     7    3    4 1   
     8    3   21 1   
     9    4    5 ar  
    10    4   11 ar  
    11    5    6 ar  
    12    5   33 1   
    13    6    7 ar  
    14    6   35 1   
    15    7    8 1   
    16    7   10 ar  
    17    8    9 1   
    18    8   36 1   
    19    8   37 1   
    20    9   39 1   
    21    9   40 1   
    22    9   41 1   
    23   10   11 ar  
    24   10   38 1   
    25   11   34 1   
    26   12   13 1   
    27   12   20 1   
    28   13   14 1   
    29   13   42 1   
    30   13   43 1   
    31   14   15 1   
    32   14   19 1   
    33   15   16 1   
    34   15   45 1   
    35   15   46 1   
    36   16   17 1   
    37   16   49 1   
    38   16   50 1   
    39   17   18 1   
    40   18   19 1   
    41   18   51 1   
    42   18   52 1   
    43   19   47 1   
    44   19   48 1   
    45   20   21 2   
    46   20   44 1   
    47   21   22 1   
    48   22   23 ar  
    49   22   25 ar  
    50   23   24 ar  
    51   23   53 1   
    52   24   27 ar  
    53   24   55 1   
    54   25   26 ar  
    55   25   54 1   
    56   26   27 ar  
    57   26   56 1   
    58   27   28 1   
    59   28   29 1   
    60   29   57 1   
    61   29   58 1   
    62   29   59 1   
@<TRIPOS>SUBSTRUCTURE
     1 JV0         1 TEMP              0 ****  ****    0 ROOT
