@<TRIPOS>MOLECULE
JV0
   59    62     1     0     0
SMALL
bcc


@<TRIPOS>ATOM
      1 C8          0.1190    0.2160    0.0650 c3        1 JV0     -0.035800
      2 C7          1.5920    0.1620    0.0490 cc        1 JV0     -0.059600
      3 N1          2.3860    0.0820    1.2040 na        1 JV0      0.002800
      4 C6          1.8790   -0.0160    2.5220 ca        1 JV0     -0.011200
      5 C24         2.0420   -1.1990    3.2710 ca        1 JV0     -0.120000
      6 C25         1.5260   -1.2860    4.5610 ca        1 JV0     -0.125500
      7 C3          0.8380   -0.2120    5.1330 ca        1 JV0     -0.070300
      8 C2          0.2760   -0.3120    6.5080 c3        1 JV0     -0.040100
      9 C1          1.0440    0.5320    7.4970 c3        1 JV0     -0.090100
     10 C4          0.6740    0.9630    4.3880 ca        1 JV0     -0.125500
     11 C5          1.1860    1.0700    3.1000 ca        1 JV0     -0.120000
     12 C9          2.4470    0.1570   -1.0690 cd        1 JV0     -0.167300
     13 C10         2.0510    0.1870   -2.4960 c3        1 JV0      0.251100
     14 N2          1.4870    1.4600   -2.9440 n3        1 JV0     -0.736600
     15 C11         1.0010    1.3650   -4.3170 c3        1 JV0      0.164800
     16 C12         0.1810    2.5720   -4.7460 c3        1 JV0     -0.008300
     17 S1          1.0630    4.0950   -4.5960 ss        1 JV0     -0.313200
     18 C13         1.7500    3.9340   -2.9750 c3        1 JV0     -0.008300
     19 C14         2.4000    2.5790   -2.7440 c3        1 JV0      0.164800
     20 C15         3.7910    0.0640   -0.5850 cd        1 JV0     -0.171000
     21 C16         3.7380    0.0140    0.8190 cc        1 JV0     -0.062300
     22 C17         4.8730   -0.0510    1.7200 ca        1 JV0     -0.022000
     23 C18         5.9900   -0.8240    1.3550 ca        1 JV0     -0.102000
     24 C19         7.1080   -0.8740    2.1750 ca        1 JV0     -0.133500
     25 C23         4.9110    0.6680    2.9210 ca        1 JV0     -0.102000
     26 C22         6.0350    0.6130    3.7420 ca        1 JV0     -0.133500
     27 C20         7.1440   -0.1560    3.3810 ca        1 JV0     -0.004100
     28 S2          8.5690   -0.3120    4.2820 ss        1 JV0     -0.166000
     29 C21         8.3520    0.6840    5.7030 c3        1 JV0     -0.069000
     30 H81C       -0.3070   -0.7510    0.4350 hc        1 JV0      0.054367
     31 H82C       -0.2540    0.4020   -0.9720 hc        1 JV0      0.054367
     32 H83C       -0.2460    1.0380    0.7320 hc        1 JV0      0.054367
     33 H24         2.5830   -2.0570    2.8420 ha        1 JV0      0.148500
     34 H5          1.0450    2.0030    2.5330 ha        1 JV0      0.148500
     35 H25         1.6640   -2.2160    5.1340 ha        1 JV0      0.138500
     36 H21C       -0.7980    0.0190    6.4890 hc        1 JV0      0.049700
     37 H22C        0.2860   -1.3830    6.8460 hc        1 JV0      0.049700
     38 H4          0.1330    1.8140    4.8300 ha        1 JV0      0.138500
     39 H11C        2.1040    0.1910    7.5690 hc        1 JV0      0.037700
     40 H12C        1.0390    1.6050    7.1850 hc        1 JV0      0.037700
     41 H13C        0.5770    0.4540    8.5080 hc        1 JV0      0.037700
     42 H101        1.2580   -0.5990   -2.6630 h1        1 JV0      0.036700
     43 H102        2.9530   -0.1000   -3.1180 h1        1 JV0      0.036700
     44 H15         4.6940    0.0440   -1.1880 ha        1 JV0      0.154000
     45 H111        0.3400    0.4540   -4.3870 h1        1 JV0      0.044200
     46 H112        1.8510    1.2250   -5.0490 h1        1 JV0      0.044200
     47 H141        2.7620    2.5370   -1.6760 h1        1 JV0      0.044200
     48 H142        3.3070    2.4960   -3.4140 h1        1 JV0      0.044200
     49 H121       -0.0820    2.4720   -5.8280 h1        1 JV0      0.074450
     50 H122       -0.7660    2.6220   -4.1560 h1        1 JV0      0.074450
     51 H131        0.9600    4.1190   -2.2070 h1        1 JV0      0.074450
     52 H132        2.5240    4.7340   -2.8870 h1        1 JV0      0.074450
     53 H18         5.9710   -1.3910    0.4120 ha        1 JV0      0.140000
     54 H23         4.0480    1.2820    3.2210 ha        1 JV0      0.140000
     55 H19         7.9780   -1.4830    1.8810 ha        1 JV0      0.136500
     56 H22         6.0410    1.1880    4.6800 ha        1 JV0      0.136500
     57 H211        8.2020    1.7580    5.4520 h1        1 JV0      0.069367
     58 H212        9.2980    0.5780    6.2840 h1        1 JV0      0.069367
     59 H213        7.5000    0.3470    6.3350 h1        1 JV0      0.069367
@<TRIPOS>BOND
     1    1    2 1   
     2    1   30 1   
     3    1   31 1   
     4    1   32 1   
     5    2    3 1   
     6    2   12 2   
     7    3    4 1   
     8    3   21 1   
     9    4    5 ar  
    10    4   11 ar  
    11    5    6 ar  
    12    5   33 1   
    13    6    7 ar  
    14    6   35 1   
    15    7    8 1   
    16    7   10 ar  
    17    8    9 1   
    18    8   36 1   
    19    8   37 1   
    20    9   39 1   
    21    9   40 1   
    22    9   41 1   
    23   10   11 ar  
    24   10   38 1   
    25   11   34 1   
    26   12   13 1   
    27   12   20 1   
    28   13   14 1   
    29   13   42 1   
    30   13   43 1   
    31   14   15 1   
    32   14   19 1   
    33   15   16 1   
    34   15   45 1   
    35   15   46 1   
    36   16   17 1   
    37   16   49 1   
    38   16   50 1   
    39   17   18 1   
    40   18   19 1   
    41   18   51 1   
    42   18   52 1   
    43   19   47 1   
    44   19   48 1   
    45   20   21 2   
    46   20   44 1   
    47   21   22 1   
    48   22   23 ar  
    49   22   25 ar  
    50   23   24 ar  
    51   23   53 1   
    52   24   27 ar  
    53   24   55 1   
    54   25   26 ar  
    55   25   54 1   
    56   26   27 ar  
    57   26   56 1   
    58   27   28 1   
    59   28   29 1   
    60   29   57 1   
    61   29   58 1   
    62   29   59 1   
@<TRIPOS>SUBSTRUCTURE
     1 JV0         1 TEMP              0 ****  ****    0 ROOT
