@<TRIPOS>MOLECULE
JVE
   34    34     1     0     0
SMALL
bcc


@<TRIPOS>ATOM
      1 C8          0.3110   -0.6330   -0.5720 c3        1 JVE     -0.080900
      2 N9          2.4740   -0.0070    2.2690 n2        1 JVE     -0.721100
      3 C10         1.3730    0.4940    1.8660 ce        1 JVE      0.370200
      4 C11         0.0430   -0.0500    2.3120 c         1 JVE      0.510000
      5 C12        -0.3200   -1.5950    0.3880 c2        1 JVE      0.189800
      6 C13        -0.4230   -1.3130    1.7260 ce        1 JVE     -0.291400
      7 C14        -1.0550   -2.2490    2.7370 c3        1 JVE      0.124900
      8 O15        -0.6110    0.5820    3.1510 o         1 JVE     -0.534100
      9 C16        -0.0420   -2.6110    3.7700 c2        1 JVE     -0.184200
     10 C17         0.5490   -3.8010    4.0230 ce        1 JVE      0.260800
     11 C18        -3.5660   -0.0800    4.5170 c1        1 JVE     -0.169500
     12 C19         1.4990   -3.9270    5.0740 cg        1 JVE     -0.199300
     13 F20         0.2930   -4.9410    3.3290 f         1 JVE     -0.166500
     14 C21        -4.6040   -0.5300    4.9040 c1        1 JVE     -0.169500
     15 C22         2.2990   -4.0180    5.9590 c1        1 JVE     -0.094500
     16 C24        -1.6960   -3.3740    2.0390 c2        1 JVE     -0.205400
     17 N25        -2.3640   -4.7670    0.2850 ne        1 JVE     -0.141600
     18 N26        -0.7960   -2.7900   -0.1550 nh        1 JVE     -0.586800
     19 C27        -2.6220   -4.4600    2.5290 c3        1 JVE      0.065000
     20 N28        -2.9280   -5.2250    1.2750 n2        1 JVE     -0.164200
     21 H81C        0.0920   -0.8800   -1.6410 hc        1 JVE      0.062033
     22 H82C        1.4220   -0.6480   -0.4320 hc        1 JVE      0.062033
     23 H9         -0.0680    0.4000   -0.3740 hc        1 JVE      0.062033
     24 H101        3.3020    0.4470    1.9420 hn        1 JVE      0.392400
     25 H102        1.2600    1.3830    1.2050 h4        1 JVE     -0.020200
     26 H26        -0.8490   -2.9040   -1.1400 hn        1 JVE      0.458800
     27 H14        -1.8650   -1.6630    3.2830 hc        1 JVE      0.085700
     28 H18        -2.6420    0.3260    4.1740 ha        1 JVE      0.169500
     29 H19         0.2620   -1.7500    4.3940 ha        1 JVE      0.155000
     30 H21         3.0090   -4.0950    6.7430 ha        1 JVE      0.170500
     31 H22        -5.5250   -0.9260    5.2480 ha        1 JVE      0.169500
     32 H27        -3.5750   -4.0610    2.9630 h1        1 JVE      0.117700
     33 H28        -2.1250   -5.1470    3.2640 h1        1 JVE      0.117700
     34 C23        -1.5640   -3.5880    0.6760 ce        1 JVE      0.186600
@<TRIPOS>BOND
     1    1    5 1   
     2    1   21 1   
     3    1   22 1   
     4    1   23 1   
     5    2    3 2   
     6    2   24 1   
     7    3    4 1   
     8    3   25 1   
     9    4    6 1   
    10    4    8 2   
    11    5    6 2   
    12    5   18 1   
    13    6    7 1   
    14    7    9 1   
    15    7   16 1   
    16    7   27 1   
    17    9   10 2   
    18    9   29 1   
    19   10   12 1   
    20   10   13 1   
    21   11   14 3   
    22   11   28 1   
    23   12   15 3   
    24   14   31 1   
    25   15   30 1   
    26   16   19 1   
    27   16   34 2   
    28   17   20 2   
    29   17   34 1   
    30   18   26 1   
    31   18   34 1   
    32   19   20 1   
    33   19   32 1   
    34   19   33 1   
@<TRIPOS>SUBSTRUCTURE
     1 JVE         1 TEMP              0 ****  ****    0 ROOT
