@<TRIPOS>MOLECULE
JVE
   34    37     1     0     0
SMALL
bcc


@<TRIPOS>ATOM
      1 C8         -0.0670   -0.0320   -0.0870 c3        1 JVE      0.188000
      2 N9          1.3490    0.2270    0.0400 n7        1 JVE     -0.811200
      3 C10         1.8590    0.1170    1.3880 c3        1 JVE      0.056800
      4 C11         1.4910   -1.1940    2.0640 c         1 JVE      0.594300
      5 C12        -0.5210   -1.2800    0.6540 c2        1 JVE      0.167800
      6 C13         0.1930   -1.7780    1.7100 ce        1 JVE     -0.266400
      7 C14        -0.2510   -2.9640    2.5250 c3        1 JVE      0.131100
      8 O15         2.2740   -1.7030    2.8750 o         1 JVE     -0.532100
      9 C16        -0.7010   -2.5460    3.8990 ca        1 JVE     -0.102300
     10 C17        -0.2310   -3.2200    5.0490 ca        1 JVE      0.134900
     11 C18        -1.6000   -1.4890    4.0690 ca        1 JVE     -0.094000
     12 C19        -0.6530   -2.8210    6.3320 ca        1 JVE     -0.169000
     13 F20         0.6280   -4.2620    4.9380 f         1 JVE     -0.139900
     14 C21        -2.0200   -1.0980    5.3380 ca        1 JVE     -0.148000
     15 C22        -1.5430   -1.7630    6.4680 ca        1 JVE     -0.107000
     16 C23        -2.0430   -3.0990    0.6900 cc        1 JVE      0.505200
     17 C24        -1.3300   -3.6860    1.8240 cc        1 JVE     -0.256600
     18 N25        -2.9930   -3.9760    0.2170 nd        1 JVE     -0.538800
     19 N26        -1.7500   -1.8070    0.2370 nu        1 JVE     -0.686700
     20 C27        -1.9150   -4.9450    1.9870 cd        1 JVE     -0.103300
     21 N28        -2.8940   -5.0560    0.9980 na        1 JVE     -0.023600
     22 H81C       -0.2720   -0.1390   -1.1930 h1        1 JVE      0.049700
     23 H82C       -0.7050    0.8220    0.2970 h1        1 JVE      0.049700
     24 H9          1.5670    1.1290   -0.3420 hn        1 JVE      0.376800
     25 H101        1.4930    0.9420    2.0690 h1        1 JVE      0.062200
     26 H102        2.9830    0.1910    1.3310 h1        1 JVE      0.062200
     27 H26        -2.0560   -1.5700   -0.6830 hn        1 JVE      0.435800
     28 H14         0.6450   -3.6490    2.6420 hc        1 JVE      0.094700
     29 H18        -1.9780   -0.9650    3.1770 ha        1 JVE      0.142000
     30 H19        -0.2680   -3.3530    7.2140 ha        1 JVE      0.146000
     31 H21        -2.7280   -0.2640    5.4480 ha        1 JVE      0.133000
     32 H22        -1.8710   -1.4510    7.4710 ha        1 JVE      0.134000
     33 H27        -1.7130   -5.7430    2.7010 h4        1 JVE      0.186000
     34 H28        -3.5220   -5.8120    0.8620 hn        1 JVE      0.324700
@<TRIPOS>BOND
     1    1    2 1   
     2    1    5 1   
     3    1   22 1   
     4    1   23 1   
     5    2    3 1   
     6    2   24 1   
     7    3    4 1   
     8    3   25 1   
     9    3   26 1   
    10    4    6 1   
    11    4    8 2   
    12    5    6 2   
    13    5   19 1   
    14    6    7 1   
    15    7    9 1   
    16    7   17 1   
    17    7   28 1   
    18    9   10 ar  
    19    9   11 ar  
    20   10   12 ar  
    21   10   13 1   
    22   11   14 ar  
    23   11   29 1   
    24   12   15 ar  
    25   12   30 1   
    26   14   15 ar  
    27   14   31 1   
    28   15   32 1   
    29   16   17 1   
    30   16   18 2   
    31   16   19 1   
    32   17   20 2   
    33   18   21 1   
    34   19   27 1   
    35   20   21 1   
    36   20   33 1   
    37   21   34 1   
@<TRIPOS>SUBSTRUCTURE
     1 JVE         1 TEMP              0 ****  ****    0 ROOT
