@<TRIPOS>MOLECULE
JVT
   46    49     1     0     0
SMALL
bcc


@<TRIPOS>ATOM
      1 O          -0.2380   -0.4280    0.5730 o         1 JVT     -0.596100
      2 C11         0.9480   -0.1200    0.3420 c         1 JVT      0.630800
      3 C12         1.8920    0.0700    1.4740 cc        1 JVT      0.284900
      4 N4          3.2070    0.4070    1.3890 nd        1 JVT     -0.492100
      5 N3          3.7030    0.4810    2.6190 na        1 JVT     -0.005100
      6 C18         2.7350    0.1910    3.5970 ca        1 JVT     -0.061200
      7 C17         2.7790    0.1410    4.9980 ca        1 JVT     -0.142000
      8 C16         1.6030   -0.1860    5.6540 ca        1 JVT     -0.096000
      9 C15         0.4090   -0.4580    4.9560 ca        1 JVT     -0.157000
     10 C14         0.3520   -0.4120    3.5710 ca        1 JVT     -0.050000
     11 C13         1.5160   -0.0870    2.8750 ca        1 JVT     -0.169900
     12 N2          1.4540    0.0530   -0.9350 ns        1 JVT     -0.455100
     13 C8          0.7430   -0.0480   -2.1440 ca        1 JVT      0.041600
     14 C7          1.3780    0.3800   -3.3350 ca        1 JVT     -0.144500
     15 C6          0.7370    0.2880   -4.5590 ca        1 JVT     -0.141000
     16 C9         -0.5610   -0.5680   -2.2410 ca        1 JVT     -0.144500
     17 C10        -1.2040   -0.6460   -3.4710 ca        1 JVT     -0.141000
     18 C5         -0.5760   -0.2280   -4.6610 ca        1 JVT      0.106600
     19 N1         -1.1660   -0.3790   -5.9450 nh        1 JVT     -0.630000
     20 C2         -2.3880   -1.1650   -5.9970 c3        1 JVT      0.182800
     21 C1         -2.8520   -1.4250   -7.4440 c3        1 JVT      0.165800
     22 C3         -1.2660    0.8500   -6.7210 c3        1 JVT      0.182800
     23 C4         -1.7350    0.5930   -8.1670 c3        1 JVT      0.165800
     24 N          -2.9490   -0.2080   -8.2370 n3        1 JVT     -0.732600
     25 C          -3.3620   -0.4660   -9.5970 c3        1 JVT      0.157100
     26 H2          2.4080    0.3290   -1.0300 hn        1 JVT      0.330500
     27 H3          4.6580    0.7070    2.7660 hn        1 JVT      0.330700
     28 H17         3.7050    0.3520    5.5480 ha        1 JVT      0.139000
     29 H16         1.5970   -0.2360    6.7540 ha        1 JVT      0.135000
     30 H15        -0.4940   -0.7120    5.5300 ha        1 JVT      0.138000
     31 H14        -0.5760   -0.6230    3.0140 ha        1 JVT      0.170000
     32 H7          2.4010    0.7880   -3.3050 ha        1 JVT      0.150000
     33 H9         -1.0980   -0.9130   -1.3410 ha        1 JVT      0.150000
     34 H6          1.2760    0.6160   -5.4620 ha        1 JVT      0.136500
     35 H10        -2.2280   -1.0510   -3.4880 ha        1 JVT      0.136500
     36 H21C       -2.1840   -2.1630   -5.5160 h1        1 JVT      0.043700
     37 H22C       -3.2310   -0.6660   -5.4350 h1        1 JVT      0.043700
     38 H31C       -0.2490    1.3280   -6.7720 h1        1 JVT      0.043700
     39 H32C       -1.9730    1.5840   -6.2360 h1        1 JVT      0.043700
     40 H11C       -3.8790   -1.8850   -7.3950 h1        1 JVT      0.037950
     41 H12C       -2.1570   -2.1790   -7.9180 h1        1 JVT      0.037950
     42 H41C       -1.9570    1.5920   -8.6360 h1        1 JVT      0.037950
     43 H42C       -0.8880    0.1190   -8.7440 h1        1 JVT      0.037950
     44 HC1        -2.6240   -1.0830  -10.1800 h1        1 JVT      0.032367
     45 HC2        -4.3440   -1.0090   -9.5780 h1        1 JVT      0.032367
     46 HC3        -3.5010    0.5140  -10.1240 h1        1 JVT      0.032367
@<TRIPOS>BOND
     1    1    2 2   
     2    2    3 1   
     3    2   12 1   
     4    3    4 2   
     5    3   11 1   
     6    4    5 1   
     7    5    6 1   
     8    5   27 1   
     9    6    7 ar  
    10    6   11 ar  
    11    7    8 ar  
    12    7   28 1   
    13    8    9 ar  
    14    8   29 1   
    15    9   10 ar  
    16    9   30 1   
    17   10   11 ar  
    18   10   31 1   
    19   12   13 1   
    20   12   26 1   
    21   13   14 ar  
    22   13   16 ar  
    23   14   15 ar  
    24   14   32 1   
    25   15   18 ar  
    26   15   34 1   
    27   16   17 ar  
    28   16   33 1   
    29   17   18 ar  
    30   17   35 1   
    31   18   19 1   
    32   19   20 1   
    33   19   22 1   
    34   20   21 1   
    35   20   36 1   
    36   20   37 1   
    37   21   24 1   
    38   21   40 1   
    39   21   41 1   
    40   22   23 1   
    41   22   38 1   
    42   22   39 1   
    43   23   24 1   
    44   23   42 1   
    45   23   43 1   
    46   24   25 1   
    47   25   44 1   
    48   25   45 1   
    49   25   46 1   
@<TRIPOS>SUBSTRUCTURE
     1 JVT         1 TEMP              0 ****  ****    0 ROOT
