@<TRIPOS>MOLECULE
JVT
   46    49     1     0     0
SMALL
bcc


@<TRIPOS>ATOM
      1 O          -0.2420   -0.4240    0.5730 o         1 JVT     -0.596100
      2 C11         0.9470   -0.1280    0.3420 c         1 JVT      0.630800
      3 C12         1.8930    0.0540    1.4740 cc        1 JVT      0.284900
      4 N4          3.2110    0.3790    1.3890 nd        1 JVT     -0.492100
      5 N3          3.7070    0.4500    2.6190 na        1 JVT     -0.005100
      6 C18         2.7360    0.1690    3.5980 ca        1 JVT     -0.061200
      7 C17         2.7800    0.1190    4.9980 ca        1 JVT     -0.142000
      8 C16         1.6010   -0.1970    5.6550 ca        1 JVT     -0.096000
      9 C15         0.4050   -0.4580    4.9570 ca        1 JVT     -0.157000
     10 C14         0.3480   -0.4130    3.5710 ca        1 JVT     -0.050000
     11 C13         1.5150   -0.0990    2.8750 ca        1 JVT     -0.169900
     12 N2          1.4560    0.0400   -0.9340 n         1 JVT     -0.455100
     13 C8          0.7440   -0.0570   -2.1440 ca        1 JVT      0.041600
     14 C7          1.3830    0.3630   -3.3350 ca        1 JVT     -0.144500
     15 C6          0.7420    0.2760   -4.5600 ca        1 JVT     -0.141000
     16 C9         -0.5660   -0.5630   -2.2410 ca        1 JVT     -0.144500
     17 C10        -1.2090   -0.6360   -3.4710 ca        1 JVT     -0.141000
     18 C5         -0.5760   -0.2260   -4.6610 ca        1 JVT      0.106600
     19 N1         -1.1670   -0.3730   -5.9450 nh        1 JVT     -0.630000
     20 C2         -2.3970   -1.1470   -5.9960 c3        1 JVT      0.182800
     21 C1         -2.8630   -1.4050   -7.4430 c3        1 JVT      0.165800
     22 C3         -1.2540    0.8550   -6.7230 c3        1 JVT      0.182800
     23 C4         -1.7250    0.6010   -8.1680 c3        1 JVT      0.165800
     24 N          -2.9470   -0.1880   -8.2380 n3        1 JVT     -0.732600
     25 C          -3.3630   -0.4440   -9.5980 c3        1 JVT      0.157100
     26 H2          2.4110    0.3050   -1.0290 hn        1 JVT      0.330500
     27 H3          4.6640    0.6670    2.7660 hn        1 JVT      0.330700
     28 H17         3.7070    0.3220    5.5490 ha        1 JVT      0.139000
     29 H16         1.5940   -0.2460    6.7550 ha        1 JVT      0.135000
     30 H15        -0.5010   -0.7040    5.5300 ha        1 JVT      0.138000
     31 H14        -0.5810   -0.6150    3.0140 ha        1 JVT      0.170000
     32 H7          2.4100    0.7620   -3.3060 ha        1 JVT      0.150000
     33 H9         -1.1060   -0.9020   -1.3410 ha        1 JVT      0.150000
     34 H6          1.2840    0.5980   -5.4630 ha        1 JVT      0.136500
     35 H10        -2.2370   -1.0310   -3.4870 ha        1 JVT      0.136500
     36 H21C       -2.2040   -2.1460   -5.5140 h1        1 JVT      0.043700
     37 H22C       -3.2350   -0.6390   -5.4350 h1        1 JVT      0.043700
     38 H31C       -0.2320    1.3230   -6.7740 h1        1 JVT      0.043700
     39 H32C       -1.9540    1.5970   -6.2390 h1        1 JVT      0.043700
     40 H11C       -2.1750   -2.1660   -7.9150 h1        1 JVT      0.037950
     41 H12C       -3.8940   -1.8540   -7.3940 h1        1 JVT      0.037950
     42 H41C       -1.9370    1.6020   -8.6390 h1        1 JVT      0.037950
     43 H42C       -0.8830    0.1180   -8.7440 h1        1 JVT      0.037950
     44 HC1        -2.6300   -1.0690  -10.1800 h1        1 JVT      0.032367
     45 HC2        -3.4910    0.5370  -10.1260 h1        1 JVT      0.032367
     46 HC3        -4.3490   -0.9760   -9.5790 h1        1 JVT      0.032367
@<TRIPOS>BOND
     1    1    2 2   
     2    2    3 1   
     3    2   12 1   
     4    3    4 2   
     5    3   11 1   
     6    4    5 1   
     7    5    6 1   
     8    5   27 1   
     9    6    7 ar  
    10    6   11 ar  
    11    7    8 ar  
    12    7   28 1   
    13    8    9 ar  
    14    8   29 1   
    15    9   10 ar  
    16    9   30 1   
    17   10   11 ar  
    18   10   31 1   
    19   12   13 1   
    20   12   26 1   
    21   13   14 ar  
    22   13   16 ar  
    23   14   15 ar  
    24   14   32 1   
    25   15   18 ar  
    26   15   34 1   
    27   16   17 ar  
    28   16   33 1   
    29   17   18 ar  
    30   17   35 1   
    31   18   19 1   
    32   19   20 1   
    33   19   22 1   
    34   20   21 1   
    35   20   36 1   
    36   20   37 1   
    37   21   24 1   
    38   21   40 1   
    39   21   41 1   
    40   22   23 1   
    41   22   38 1   
    42   22   39 1   
    43   23   24 1   
    44   23   42 1   
    45   23   43 1   
    46   24   25 1   
    47   25   44 1   
    48   25   45 1   
    49   25   46 1   
@<TRIPOS>SUBSTRUCTURE
     1 JVT         1 TEMP              0 ****  ****    0 ROOT
