@<TRIPOS>MOLECULE
JW5
   36    37     1     0     0
SMALL
bcc


@<TRIPOS>ATOM
      1 O2          1.6390    0.0540   -2.5420 o         1 JW5     -0.623500
      2 C2          2.3070   -0.3100   -1.5540 c         1 JW5      0.811500
      3 N3          3.1170   -1.4560   -1.7270 n         1 JW5     -0.591500
      4 C4          3.9620   -1.9520   -0.7330 c         1 JW5      0.723700
      5 O4          4.6570   -2.9640   -0.9660 o         1 JW5     -0.671500
      6 C5          3.9620   -1.2100    0.5220 cc        1 JW5     -0.364200
      7 C6          3.1510   -0.1240    0.7050 cd        1 JW5      0.093400
      8 C7          3.1340    0.5540    2.0620 c3        1 JW5      0.146600
      9 O7          3.8870   -0.1570    3.0240 oh        1 JW5     -0.605800
     10 N1          2.3660    0.4040   -0.3250 n         1 JW5     -0.352000
     11 C1'         1.4010    1.4650    0.0440 c3        1 JW5      0.272500
     12 O4'         0.4680    0.9450    0.9750 os        1 JW5     -0.459600
     13 C2'         0.6120    2.2090   -1.0790 c3        1 JW5      0.109100
     14 O2'         0.8720    3.5890   -0.9060 oh        1 JW5     -0.629800
     15 C3'        -0.8640    1.7960   -0.8540 c3        1 JW5      0.141100
     16 O3'        -1.6530    2.9610   -0.8680 oh        1 JW5     -0.691800
     17 C4'        -0.9010    1.1190    0.5270 c3        1 JW5      0.063100
     18 C5'        -1.6390   -0.2430    0.5500 c3        1 JW5      0.236400
     19 O5'        -2.8940   -0.0890    1.0680 os        1 JW5     -0.558200
     20 P          -4.1500   -0.0610   -0.1450 p5        1 JW5      1.336900
     21 O1P        -3.9870   -1.4070   -0.7840 o         1 JW5     -0.929833
     22 O3P        -5.3900    0.2080    0.6490 o         1 JW5     -0.929833
     23 O2P        -3.6110    1.0940   -0.9690 o         1 JW5     -0.929833
     24 HN3         3.0050   -1.9520   -2.5830 hn        1 JW5      0.340500
     25 H5          4.6380   -1.5700    1.3070 ha        1 JW5      0.167000
     26 H71         3.6400    1.5560    1.9910 h1        1 JW5      0.091200
     27 H72         2.0730    0.6800    2.4240 h1        1 JW5      0.091200
     28 HO7         3.4280   -0.9920    3.1820 ho        1 JW5      0.409000
     29 H1'         2.0310    2.2310    0.5980 h2        1 JW5      0.056700
     30 H2'         0.9590    1.9720   -2.1150 h1        1 JW5      0.102700
     31 HO'2        0.1050    3.9870   -0.4700 ho        1 JW5      0.432000
     32 H3'        -1.2080    1.0870   -1.6570 h1        1 JW5      0.111700
     33 H3T        -2.5930    2.6430   -0.8970 ho        1 JW5      0.522000
     34 H4'        -1.3720    1.8040    1.2840 h1        1 JW5      0.076700
     35 H5'1       -1.6770   -0.6750   -0.4890 h1        1 JW5      0.001200
     36 H5'2       -1.0340   -0.9310    1.2130 h1        1 JW5      0.001200
@<TRIPOS>BOND
     1    1    2 2   
     2    2    3 1   
     3    2   10 1   
     4    3    4 1   
     5    3   24 1   
     6    4    5 2   
     7    4    6 1   
     8    6    7 2   
     9    6   25 1   
    10    7    8 1   
    11    7   10 1   
    12    8    9 1   
    13    8   26 1   
    14    8   27 1   
    15    9   28 1   
    16   10   11 1   
    17   11   12 1   
    18   11   13 1   
    19   11   29 1   
    20   12   17 1   
    21   13   14 1   
    22   13   15 1   
    23   13   30 1   
    24   14   31 1   
    25   15   16 1   
    26   15   17 1   
    27   15   32 1   
    28   16   33 1   
    29   17   18 1   
    30   17   34 1   
    31   18   19 1   
    32   18   35 1   
    33   18   36 1   
    34   19   20 1   
    35   20   21 1   
    36   20   22 1   
    37   20   23 1   
@<TRIPOS>SUBSTRUCTURE
     1 JW5         1 TEMP              0 ****  ****    0 ROOT
