@<TRIPOS>MOLECULE
JW7
   46    49     1     0     0
SMALL
bcc


@<TRIPOS>ATOM
      1 CAL         0.0470   -0.1990    0.1190 c3        1 JW7     -0.101400
      2 CAJ         1.5610   -0.1580    0.0260 c3        1 JW7     -0.078400
      3 CAI         2.1970    0.0640    1.3820 c3        1 JW7     -0.091400
      4 CAK         1.6560    1.3120    2.0470 c3        1 JW7     -0.078400
      5 CAM         0.1430    1.2740    2.1490 c3        1 JW7     -0.101400
      6 CAX        -0.4570    1.1100    0.7480 c3        1 JW7      0.122500
      7 NAQ        -1.9690    1.1140    0.7830 n4        1 JW7     -0.640800
      8 CAT        -2.6220    2.4180    0.8720 cc        1 JW7     -0.035600
      9 CAH        -1.9280    3.5830    1.0130 cd        1 JW7     -0.181200
     10 CAW        -2.6330    4.8760    1.0900 c         1 JW7      0.664700
     11 OAA        -2.0480    5.9580    1.1880 o         1 JW7     -0.521500
     12 NAY        -4.0690    4.7960    1.0370 n         1 JW7     -0.064000
     13 CAS        -4.8460    6.0170    1.1580 ca        1 JW7      0.001600
     14 CAE        -4.5580    7.1070    0.3160 ca        1 JW7     -0.100000
     15 CAC        -5.3000    8.2790    0.4440 ca        1 JW7     -0.116500
     16 CAB        -6.3230    8.3720    1.3880 ca        1 JW7     -0.096000
     17 CAD        -6.6060    7.2870    2.2180 ca        1 JW7     -0.116500
     18 CAF        -5.8760    6.1050    2.1130 ca        1 JW7     -0.100000
     19 NAP        -4.7220    3.6710    0.9040 nd        1 JW7     -0.365300
     20 CAV        -4.0860    2.4940    0.8140 cc        1 JW7      0.268600
     21 CAU        -4.9190    1.2990    0.6630 cc        1 JW7      0.313200
     22 NAN        -6.3080    1.3070    0.4490 na        1 JW7     -0.394700
     23 CAG        -6.6720   -0.0370    0.3870 cc        1 JW7      0.395400
     24 NAR        -5.5500   -0.8040    0.5530 nd        1 JW7     -0.316000
     25 NAO        -4.5170   -0.0180    0.7190 nd        1 JW7     -0.415000
     26 HAL1       -0.3820   -0.3320   -0.9090 hc        1 JW7      0.067700
     27 HAL2       -0.2670   -1.0750    0.7470 hc        1 JW7      0.067700
     28 HAJ1        1.9190   -1.1300   -0.4050 hc        1 JW7      0.067700
     29 HAJ2        1.8740    0.6570   -0.6790 hc        1 JW7      0.067700
     30 HAX        -0.1350    1.9690    0.0860 hx        1 JW7      0.105700
     31 HAI1        3.3080    0.1590    1.2600 hc        1 JW7      0.067700
     32 HAI2        2.0070   -0.8260    2.0380 hc        1 JW7      0.067700
     33 HAK1        2.0840    1.4060    3.0800 hc        1 JW7      0.067700
     34 HAK2        1.9740    2.2200    1.4680 hc        1 JW7      0.067700
     35 HAM1       -0.1640    0.4130    2.8000 hc        1 JW7      0.067700
     36 HAM2       -0.2240    2.2190    2.6280 hc        1 JW7      0.067700
     37 HAQ        -2.2750    0.5470    1.5920 hn        1 JW7      0.479300
     38 HAH        -0.8300    3.6690    1.0870 ha        1 JW7      0.196000
     39 HAE        -3.7410    7.0540   -0.4200 ha        1 JW7      0.150500
     40 HAF        -6.1110    5.2610    2.7790 ha        1 JW7      0.150500
     41 HAC        -5.0710    9.1360   -0.2090 ha        1 JW7      0.155500
     42 HAB        -6.9040    9.3030    1.4800 ha        1 JW7      0.156000
     43 HAD        -7.4100    7.3610    2.9670 ha        1 JW7      0.155500
     44 HAN        -6.8940    2.1010    0.3730 hn        1 JW7      0.341700
     45 HAG        -7.6970   -0.3950    0.2270 h5        1 JW7      0.102100
     46 HAQ2       -2.3080    0.6480   -0.0760 hn        1 JW7      0.479300
@<TRIPOS>BOND
     1    1    2 1   
     2    1    6 1   
     3    1   26 1   
     4    1   27 1   
     5    2    3 1   
     6    2   28 1   
     7    2   29 1   
     8    3    4 1   
     9    3   31 1   
    10    3   32 1   
    11    4    5 1   
    12    4   33 1   
    13    4   34 1   
    14    5    6 1   
    15    5   35 1   
    16    5   36 1   
    17    6    7 1   
    18    6   30 1   
    19    7    8 1   
    20    7   37 1   
    21    7   46 1   
    22    8    9 2   
    23    8   20 1   
    24    9   10 1   
    25    9   38 1   
    26   10   11 2   
    27   10   12 1   
    28   12   13 1   
    29   12   19 1   
    30   13   14 ar  
    31   13   18 ar  
    32   14   15 ar  
    33   14   39 1   
    34   15   16 ar  
    35   15   41 1   
    36   16   17 ar  
    37   16   42 1   
    38   17   18 ar  
    39   17   43 1   
    40   18   40 1   
    41   19   20 2   
    42   20   21 1   
    43   21   22 1   
    44   21   25 2   
    45   22   23 1   
    46   22   44 1   
    47   23   24 2   
    48   23   45 1   
    49   24   25 1   
@<TRIPOS>SUBSTRUCTURE
     1 JW7         1 TEMP              0 ****  ****    0 ROOT
