@<TRIPOS>MOLECULE
JW7
   45    48     1     0     0
SMALL
bcc


@<TRIPOS>ATOM
      1 CAL        -4.5010   -0.3390   -0.8260 c3        1 JW7     -0.095400
      2 CAJ        -5.5100   -1.4660   -0.9030 c3        1 JW7     -0.074900
      3 CAI        -5.7150   -2.1220    0.4470 c3        1 JW7     -0.081400
      4 CAK        -4.4010   -2.6040    1.0240 c3        1 JW7     -0.074900
      5 CAM        -3.3870   -1.4840    1.1040 c3        1 JW7     -0.095400
      6 CAX        -3.1580   -0.8670   -0.2880 c3        1 JW7      0.212500
      7 NAQ        -2.1500    0.1780   -0.3070 nh        1 JW7     -0.734000
      8 CAT        -0.8170   -0.1050   -0.1470 cc        1 JW7      0.175400
      9 CAH        -0.2890   -1.3830   -0.1920 cd        1 JW7     -0.375200
     10 CAW         1.1380   -1.6300   -0.1580 c         1 JW7      0.702700
     11 OAA         1.6670   -2.7510   -0.2210 o         1 JW7     -0.612500
     12 NAY         1.9760   -0.4530   -0.0490 n         1 JW7     -0.110000
     13 CAS         3.4100   -0.5950    0.0310 ca        1 JW7      0.046600
     14 CAE         4.0780   -1.4440   -0.8730 ca        1 JW7     -0.112000
     15 CAC         5.4610   -1.5830   -0.7930 ca        1 JW7     -0.127000
     16 CAB         6.1910   -0.8830    0.1660 ca        1 JW7     -0.126000
     17 CAD         5.5320   -0.0420    1.0600 ca        1 JW7     -0.127000
     18 CAF         4.1480    0.1070    1.0040 ca        1 JW7     -0.112000
     19 NAP         1.4870    0.7650    0.0340 nd        1 JW7     -0.404300
     20 CAV         0.1740    0.9850   -0.0090 cc        1 JW7      0.260600
     21 CAU        -0.2530    2.3840    0.1000 cc        1 JW7      0.352200
     22 NAN         0.4650    3.4630   -0.4480 na        1 JW7     -0.420700
     23 CAG        -0.2600    4.5980   -0.0840 cc        1 JW7      0.355400
     24 NAR        -1.3520    4.2050    0.6350 nd        1 JW7     -0.345000
     25 NAO        -1.3490    2.8960    0.7530 nd        1 JW7     -0.360000
     26 HAL1       -4.3570    0.1040   -1.8450 hc        1 JW7      0.052700
     27 HAL2       -4.8880    0.4690   -0.1520 hc        1 JW7      0.052700
     28 HAJ1       -6.4860   -1.0580   -1.2750 hc        1 JW7      0.044450
     29 HAJ2       -5.1600   -2.2320   -1.6430 hc        1 JW7      0.044450
     30 HAX        -2.8070   -1.6890   -0.9840 h1        1 JW7      0.065700
     31 HAI1       -6.1870   -1.3880    1.1520 hc        1 JW7      0.043700
     32 HAI2       -6.4190   -2.9870    0.3400 hc        1 JW7      0.043700
     33 HAK1       -4.5720   -3.0210    2.0510 hc        1 JW7      0.044450
     34 HAK2       -3.9940   -3.4350    0.3890 hc        1 JW7      0.044450
     35 HAM1       -3.7500   -0.6930    1.8110 hc        1 JW7      0.052700
     36 HAM2       -2.4180   -1.8820    1.5050 hc        1 JW7      0.052700
     37 HAQ        -2.4780    1.0800   -0.0380 hn        1 JW7      0.452800
     38 HAH        -0.9090   -2.2870   -0.2600 ha        1 JW7      0.172000
     39 HAE         3.5110   -2.0210   -1.6210 ha        1 JW7      0.152000
     40 HAF         3.6460    0.7710    1.7240 ha        1 JW7      0.152000
     41 HAC         5.9760   -2.2550   -1.4960 ha        1 JW7      0.137000
     42 HAB         7.2840   -0.9980    0.2200 ha        1 JW7      0.135000
     43 HAD         6.1030    0.5080    1.8220 ha        1 JW7      0.137000
     44 HAN         1.3230    3.4160   -0.9330 hn        1 JW7      0.324700
     45 HAG         0.0210    5.6200   -0.3490 h5        1 JW7      0.077100
@<TRIPOS>BOND
     1    1    2 1   
     2    1    6 1   
     3    1   26 1   
     4    1   27 1   
     5    2    3 1   
     6    2   28 1   
     7    2   29 1   
     8    3    4 1   
     9    3   31 1   
    10    3   32 1   
    11    4    5 1   
    12    4   33 1   
    13    4   34 1   
    14    5    6 1   
    15    5   35 1   
    16    5   36 1   
    17    6    7 1   
    18    6   30 1   
    19    7    8 1   
    20    7   37 1   
    21    8    9 2   
    22    8   20 1   
    23    9   10 1   
    24    9   38 1   
    25   10   11 2   
    26   10   12 1   
    27   12   13 1   
    28   12   19 1   
    29   13   14 ar  
    30   13   18 ar  
    31   14   15 ar  
    32   14   39 1   
    33   15   16 ar  
    34   15   41 1   
    35   16   17 ar  
    36   16   42 1   
    37   17   18 ar  
    38   17   43 1   
    39   18   40 1   
    40   19   20 2   
    41   20   21 1   
    42   21   22 1   
    43   21   25 2   
    44   22   23 1   
    45   22   44 1   
    46   23   24 2   
    47   23   45 1   
    48   24   25 1   
@<TRIPOS>SUBSTRUCTURE
     1 JW7         1 TEMP              0 ****  ****    0 ROOT
