@<TRIPOS>MOLECULE
JW7
   46    49     1     0     0
SMALL
bcc


@<TRIPOS>ATOM
      1 CAL         0.0470   -0.1980    0.1140 c3        1 JW7     -0.101400
      2 CAJ         1.5600   -0.1570    0.0230 c3        1 JW7     -0.078400
      3 CAI         2.1950    0.0610    1.3800 c3        1 JW7     -0.091400
      4 CAK         1.6540    1.3080    2.0470 c3        1 JW7     -0.078400
      5 CAM         0.1410    1.2710    2.1470 c3        1 JW7     -0.101400
      6 CAX        -0.4570    1.1100    0.7460 c3        1 JW7      0.122500
      7 NAQ        -1.9690    1.1140    0.7790 ny        1 JW7     -0.640800
      8 CAT        -2.6220    2.4180    0.8700 cc        1 JW7     -0.035600
      9 CAH        -1.9280    3.5830    1.0150 cd        1 JW7     -0.181200
     10 CAW        -2.6320    4.8760    1.0950 c         1 JW7      0.664700
     11 OAA        -2.0460    5.9570    1.1960 o         1 JW7     -0.521500
     12 NAY        -4.0680    4.7970    1.0400 n         1 JW7     -0.064000
     13 CAS        -4.8450    6.0170    1.1650 ca        1 JW7      0.001600
     14 CAE        -4.5560    7.1100    0.3260 ca        1 JW7     -0.100000
     15 CAC        -5.2980    8.2810    0.4570 ca        1 JW7     -0.116500
     16 CAB        -6.3210    8.3720    1.4010 ca        1 JW7     -0.096000
     17 CAD        -6.6040    7.2860    2.2280 ca        1 JW7     -0.116500
     18 CAF        -5.8740    6.1040    2.1200 ca        1 JW7     -0.100000
     19 NAP        -4.7210    3.6720    0.9040 nd        1 JW7     -0.365300
     20 CAV        -4.0860    2.4950    0.8110 cc        1 JW7      0.268600
     21 CAU        -4.9190    1.3010    0.6560 cc        1 JW7      0.313200
     22 NAN        -6.3080    1.3100    0.4390 na        1 JW7     -0.394700
     23 CAG        -6.6720   -0.0330    0.3730 cc        1 JW7      0.395400
     24 NAR        -5.5510   -0.8010    0.5390 nd        1 JW7     -0.316000
     25 NAO        -4.5180   -0.0170    0.7090 nd        1 JW7     -0.415000
     26 HAL1       -0.2680   -1.0750    0.7390 hc        1 JW7      0.067700
     27 HAL2       -0.3820   -0.3290   -0.9140 hc        1 JW7      0.067700
     28 HAJ1        1.9190   -1.1290   -0.4090 hc        1 JW7      0.067700
     29 HAJ2        1.8750    0.6590   -0.6800 hc        1 JW7      0.067700
     30 HAX        -0.1340    1.9700    0.0860 hx        1 JW7      0.105700
     31 HAI1        2.0040   -0.8300    2.0340 hc        1 JW7      0.067700
     32 HAI2        3.3070    0.1560    1.2600 hc        1 JW7      0.067700
     33 HAK1        2.0810    1.3990    3.0820 hc        1 JW7      0.067700
     34 HAK2        1.9730    2.2170    1.4720 hc        1 JW7      0.067700
     35 HAM1       -0.1670    0.4080    2.7970 hc        1 JW7      0.067700
     36 HAM2       -0.2270    2.2140    2.6290 hc        1 JW7      0.067700
     37 HAQ        -2.3080    0.6510   -0.0820 hn        1 JW7      0.479300
     38 HAH        -0.8300    3.6680    1.0900 ha        1 JW7      0.196000
     39 HAE        -3.7400    7.0580   -0.4110 ha        1 JW7      0.150500
     40 HAF        -6.1090    5.2580    2.7840 ha        1 JW7      0.150500
     41 HAC        -5.0690    9.1410   -0.1940 ha        1 JW7      0.155500
     42 HAB        -6.9020    9.3030    1.4960 ha        1 JW7      0.156000
     43 HAD        -7.4080    7.3580    2.9780 ha        1 JW7      0.155500
     44 HAN        -6.8930    2.1050    0.3640 hn        1 JW7      0.341700
     45 HAG        -7.6970   -0.3910    0.2110 h5        1 JW7      0.102100
     46 HAQ2       -2.2770    0.5450    1.5860 hn        1 JW7      0.479300
@<TRIPOS>BOND
     1    1    2 1   
     2    1    6 1   
     3    1   26 1   
     4    1   27 1   
     5    2    3 1   
     6    2   28 1   
     7    2   29 1   
     8    3    4 1   
     9    3   31 1   
    10    3   32 1   
    11    4    5 1   
    12    4   33 1   
    13    4   34 1   
    14    5    6 1   
    15    5   35 1   
    16    5   36 1   
    17    6    7 1   
    18    6   30 1   
    19    7    8 1   
    20    7   37 1   
    21    7   46 1   
    22    8    9 2   
    23    8   20 1   
    24    9   10 1   
    25    9   38 1   
    26   10   11 2   
    27   10   12 1   
    28   12   13 1   
    29   12   19 1   
    30   13   14 ar  
    31   13   18 ar  
    32   14   15 ar  
    33   14   39 1   
    34   15   16 ar  
    35   15   41 1   
    36   16   17 ar  
    37   16   42 1   
    38   17   18 ar  
    39   17   43 1   
    40   18   40 1   
    41   19   20 2   
    42   20   21 1   
    43   21   22 1   
    44   21   25 2   
    45   22   23 1   
    46   22   44 1   
    47   23   24 2   
    48   23   45 1   
    49   24   25 1   
@<TRIPOS>SUBSTRUCTURE
     1 JW7         1 TEMP              0 ****  ****    0 ROOT
