@<TRIPOS>MOLECULE
JW7
   45    43     1     0     0
SMALL
bcc


@<TRIPOS>ATOM
      1 CAL         3.2350   -1.6340   -0.6460 c3        1 JW7     -0.171500
      2 CAJ         4.6500   -1.6850   -0.1140 c3        1 JW7     -0.155000
      3 CAI         4.7780   -2.5590    1.1120 c3        1 JW7     -0.160000
      4 CAK         3.7800   -2.2070    2.1730 c3        1 JW7     -0.155000
      5 CAM         2.3660   -2.1530    1.6380 c3        1 JW7     -0.171500
      6 CAX         2.2430   -1.2790    0.4090 c3        1 JW7      0.027000
      7 NAQ         0.8920   -1.4240   -0.1440 n3        1 JW7     -0.305000
      8 CAT         0.0040   -0.2680   -0.2160 c2        1 JW7      0.196000
      9 CAH         0.5550    1.0690   -0.4330 c1        1 JW7     -0.371000
     10 CAW        -0.3540    2.2170   -0.6110 c1        1 JW7      0.344000
     11 OAA         0.0860    3.3020   -0.7870 o         1 JW7     -0.340000
     12 NAY        -1.7870    2.0180   -0.5820 n3        1 JW7     -0.183000
     13 CAS        -2.6610    3.1410   -0.7040 c2        1 JW7      0.057000
     14 CAE        -3.1980    3.4500   -1.9040 c2        1 JW7     -0.122000
     15 CAC        -4.0900    4.4960   -2.0160 c1        1 JW7     -0.129000
     16 CAB        -4.4380    5.2350   -0.8960 c1        1 JW7     -0.124000
     17 CAD        -3.8990    4.9270    0.3130 c1        1 JW7     -0.124000
     18 CAF        -3.0080    3.8800    0.4230 c1        1 JW7     -0.101000
     19 NAP        -2.3380    0.6850   -0.3490 n2        1 JW7      0.014000
     20 CAV        -1.4470   -0.4590   -0.1800 c2        1 JW7     -0.088000
     21 CAU        -2.0120   -1.8090    0.1030 c2        1 JW7     -0.027000
     22 NAN        -2.6890   -2.5820   -0.7690 n2        1 JW7     -0.195000
     23 CAG        -3.1250   -3.6700   -0.1110 c1        1 JW7     -0.134000
     24 NAR        -2.7170   -3.5710    1.1720 n2        1 JW7     -0.081000
     25 NAO        -2.0310   -2.4240    1.3030 n2        1 JW7     -0.099000
     26 HAL1        3.0090   -2.4860   -1.0020 hc        1 JW7      0.091750
     27 HAL2        3.1870   -0.9420   -1.3920 hc        1 JW7      0.091750
     28 HAJ1        5.2240   -2.0230   -0.7930 hc        1 JW7      0.084250
     29 HAJ2        4.9360   -0.7590    0.1200 hc        1 JW7      0.084250
     30 HAX         2.3790   -0.3590    0.6660 h1        1 JW7      0.100000
     31 HAI1        4.6490   -3.4650    0.8590 hc        1 JW7      0.083000
     32 HAI2        5.6920   -2.4550    1.4860 hc        1 JW7      0.083000
     33 HAK1        4.0050   -1.3650    2.5430 hc        1 JW7      0.084250
     34 HAK2        3.8200   -2.8940    2.8900 hc        1 JW7      0.084250
     35 HAM1        1.7710   -1.7970    2.3400 hc        1 JW7      0.091750
     36 HAM2        2.0750   -3.0680    1.4080 hc        1 JW7      0.091750
     37 HAQ         0.6300   -2.2150   -0.4960 hn        1 JW7      0.260000
     38 HAH         1.5460    1.2160   -0.3890 ha        1 JW7      0.172000
     39 HAE        -2.9540    2.9320   -2.6940 ha        1 JW7      0.137000
     40 HAF        -2.6290    3.6650    1.2640 ha        1 JW7      0.160000
     41 HAC        -4.4880    4.7230   -2.9130 ha        1 JW7      0.134000
     42 HAB        -5.0330    5.9320   -0.9710 ha        1 JW7      0.137000
     43 HAD        -4.1390    5.4370    1.0910 ha        1 JW7      0.137000
     44 HAN        -2.8370   -2.3860   -1.7130 DU        1 JW7      0.244000
     45 HAG        -3.6350   -4.3880   -0.4850 DU        1 JW7      0.244000
@<TRIPOS>BOND
     1    1    2 1   
     2    1    6 1   
     3    1   26 1   
     4    1   27 1   
     5    2    3 1   
     6    2   28 1   
     7    2   29 1   
     8    3    4 1   
     9    3   31 1   
    10    3   32 1   
    11    4    5 1   
    12    4   33 1   
    13    4   34 1   
    14    5    6 1   
    15    5   35 1   
    16    5   36 1   
    17    6    7 1   
    18    6   30 1   
    19    7    8 1   
    20    7   37 1   
    21    8    9 1   
    22    8   20 1   
    23    9   38 1   
    24   10   11 1   
    25   10   12 1   
    26   12   13 1   
    27   12   19 1   
    28   13   14 1   
    29   13   18 1   
    30   14   15 1   
    31   14   39 1   
    32   15   41 1   
    33   16   17 1   
    34   16   42 1   
    35   17   43 1   
    36   18   40 1   
    37   19   20 1   
    38   20   21 1   
    39   21   22 1   
    40   21   25 1   
    41   22   23 1   
    42   23   24 1   
    43   24   25 1   
@<TRIPOS>SUBSTRUCTURE
     1 JW7         1 TEMP              0 ****  ****    0 ROOT
