@<TRIPOS>MOLECULE
JW7
   46    49     1     0     0
SMALL
bcc


@<TRIPOS>ATOM
      1 CAL         0.0460   -0.2000    0.1210 c3        1 JW7     -0.101400
      2 CAJ         1.5600   -0.1600    0.0280 c3        1 JW7     -0.078400
      3 CAI         2.1950    0.0620    1.3830 c3        1 JW7     -0.091400
      4 CAK         1.6550    1.3110    2.0480 c3        1 JW7     -0.078400
      5 CAM         0.1420    1.2740    2.1500 c3        1 JW7     -0.101400
      6 CAX        -0.4570    1.1090    0.7490 c3        1 JW7      0.122500
      7 NAQ        -1.9700    1.1130    0.7840 n4        1 JW7     -0.640800
      8 CAT        -2.6220    2.4180    0.8720 cc        1 JW7     -0.035600
      9 CAH        -1.9280    3.5830    1.0130 cd        1 JW7     -0.181200
     10 CAW        -2.6320    4.8760    1.0900 c         1 JW7      0.664700
     11 OAA        -2.0460    5.9570    1.1870 o         1 JW7     -0.521500
     12 NAY        -4.0680    4.7970    1.0350 n         1 JW7     -0.064000
     13 CAS        -4.8450    6.0180    1.1570 ca        1 JW7      0.001600
     14 CAE        -4.5560    7.1080    0.3150 ca        1 JW7     -0.100000
     15 CAC        -5.2980    8.2800    0.4430 ca        1 JW7     -0.116500
     16 CAB        -6.3200    8.3730    1.3880 ca        1 JW7     -0.096000
     17 CAD        -6.6040    7.2890    2.2180 ca        1 JW7     -0.116500
     18 CAF        -5.8740    6.1070    2.1130 ca        1 JW7     -0.100000
     19 NAP        -4.7210    3.6710    0.9030 nd        1 JW7     -0.365300
     20 CAV        -4.0860    2.4950    0.8130 cc        1 JW7      0.268600
     21 CAU        -4.9190    1.3000    0.6620 cc        1 JW7      0.313200
     22 NAN        -6.3080    1.3080    0.4460 na        1 JW7     -0.394700
     23 CAG        -6.6730   -0.0350    0.3840 cc        1 JW7      0.395400
     24 NAR        -5.5510   -0.8030    0.5530 nd        1 JW7     -0.316000
     25 NAO        -4.5180   -0.0180    0.7200 nd        1 JW7     -0.415000
     26 HAL1       -0.2690   -1.0760    0.7490 hc        1 JW7      0.067700
     27 HAL2       -0.3840   -0.3340   -0.9070 hc        1 JW7      0.067700
     28 HAJ1        1.8730    0.6550   -0.6780 hc        1 JW7      0.067700
     29 HAJ2        1.9170   -1.1330   -0.4020 hc        1 JW7      0.067700
     30 HAX        -0.1350    1.9670    0.0870 hx        1 JW7      0.105700
     31 HAI1        2.0050   -0.8270    2.0410 hc        1 JW7      0.067700
     32 HAI2        3.3070    0.1570    1.2620 hc        1 JW7      0.067700
     33 HAK1        1.9730    2.2180    1.4690 hc        1 JW7      0.067700
     34 HAK2        2.0830    1.4050    3.0810 hc        1 JW7      0.067700
     35 HAM1       -0.2250    2.2190    2.6290 hc        1 JW7      0.067700
     36 HAM2       -0.1650    0.4130    2.8020 hc        1 JW7      0.067700
     37 HAQ        -2.2760    0.5470    1.5930 hn        1 JW7      0.479300
     38 HAH        -0.8300    3.6680    1.0870 ha        1 JW7      0.196000
     39 HAE        -3.7400    7.0540   -0.4220 ha        1 JW7      0.150500
     40 HAF        -6.1090    5.2630    2.7790 ha        1 JW7      0.150500
     41 HAC        -5.0690    9.1370   -0.2100 ha        1 JW7      0.155500
     42 HAB        -6.9010    9.3050    1.4800 ha        1 JW7      0.156000
     43 HAD        -7.4080    7.3640    2.9670 ha        1 JW7      0.155500
     44 HAN        -6.8930    2.1030    0.3680 hn        1 JW7      0.341700
     45 HAG        -7.6970   -0.3930    0.2240 h5        1 JW7      0.102100
     46 HAQ2       -2.3080    0.6470   -0.0750 hn        1 JW7      0.479300
@<TRIPOS>BOND
     1    1    2 1   
     2    1    6 1   
     3    1   26 1   
     4    1   27 1   
     5    2    3 1   
     6    2   28 1   
     7    2   29 1   
     8    3    4 1   
     9    3   31 1   
    10    3   32 1   
    11    4    5 1   
    12    4   33 1   
    13    4   34 1   
    14    5    6 1   
    15    5   35 1   
    16    5   36 1   
    17    6    7 1   
    18    6   30 1   
    19    7    8 1   
    20    7   37 1   
    21    7   46 1   
    22    8    9 2   
    23    8   20 1   
    24    9   10 1   
    25    9   38 1   
    26   10   11 2   
    27   10   12 1   
    28   12   13 1   
    29   12   19 1   
    30   13   14 ar  
    31   13   18 ar  
    32   14   15 ar  
    33   14   39 1   
    34   15   16 ar  
    35   15   41 1   
    36   16   17 ar  
    37   16   42 1   
    38   17   18 ar  
    39   17   43 1   
    40   18   40 1   
    41   19   20 2   
    42   20   21 1   
    43   21   22 1   
    44   21   25 2   
    45   22   23 1   
    46   22   44 1   
    47   23   24 2   
    48   23   45 1   
    49   24   25 1   
@<TRIPOS>SUBSTRUCTURE
     1 JW7         1 TEMP              0 ****  ****    0 ROOT
