@<TRIPOS>MOLECULE
JWF
   56    53     1     0     0
SMALL
bcc


@<TRIPOS>ATOM
      1 CAP         4.7190   -0.1860   -0.1560 c3        1 JWF     -0.051000
      2 CAN         6.2390   -0.2240   -0.0330 c3        1 JWF     -0.072000
      3 NBE         6.6870   -1.3450    0.6670 n3        1 JWF     -0.258000
      4 CAA         8.1200   -1.3990    0.6160 c3        1 JWF     -0.119000
      5 CAO         6.1460   -2.5770    0.1520 c3        1 JWF     -0.072000
      6 CAQ         4.6250   -2.5400    0.0280 c3        1 JWF     -0.051000
      7 NBF         4.1770   -1.4280   -0.6730 n3        1 JWF     -0.237000
      8 CAY         2.7570   -1.3830   -0.6340 c2        1 JWF      0.057000
      9 CAI         2.0650   -2.1240    0.3160 c2        1 JWF     -0.168000
     10 CAG         0.6720   -2.1080    0.3320 c1        1 JWF     -0.117000
     11 CAH         2.0640   -0.6300   -1.5640 c1        1 JWF     -0.144000
     12 CAF         0.6750   -0.6130   -1.5500 c1        1 JWF     -0.121000
     13 CAX        -0.0210   -1.3510   -0.6030 c1        1 JWF      0.015000
     14 NAU        -1.5270   -1.4110   -0.6580 n3        1 JWF     -0.259000
     15 CBA        -2.2990   -0.2260   -0.4470 c2        1 JWF      0.189000
     16 CAM        -1.9170    1.0200   -1.1020 c1        1 JWF     -0.351000
     17 CBD        -2.8760    2.1970   -1.0870 c1        1 JWF      0.342000
     18 OAB        -2.5670    3.2490   -1.6320 o         1 JWF     -0.333000
     19 NBG        -4.1510    2.0800   -0.4050 n3        1 JWF     -0.182000
     20 CAZ        -5.0000    3.2840   -0.2010 c2        1 JWF      0.054000
     21 CAJ        -4.7340    4.1520    0.8590 c2        1 JWF     -0.096000
     22 CAD        -5.5000    5.3010    1.0270 c1        1 JWF     -0.119000
     23 CAW        -6.5250    5.5840    0.1460 c1        1 JWF     -0.059000
     24 CLAC       -7.5890    6.9110    0.4620 cl        1 JWF     -0.009000
     25 CAE        -6.7930    4.7060   -0.9250 c1        1 JWF     -0.123000
     26 CAK        -6.0330    3.5670   -1.0910 c1        1 JWF     -0.112000
     27 NAT        -4.5740    0.7860    0.1410 n2        1 JWF      0.020000
     28 CBC        -3.6210   -0.3160    0.2480 c2        1 JWF     -0.090000
     29 CBB        -4.0630   -1.6460    0.8750 c2        1 JWF      0.016000
     30 NAR        -4.7050   -2.6400    0.2420 n2        1 JWF     -0.167000
     31 CAL        -5.0210   -3.5740    1.1470 c1        1 JWF     -0.157000
     32 NAV        -4.5730   -3.1580    2.3500 n2        1 JWF     -0.081000
     33 NAS        -3.9820   -1.9700    2.1820 n2        1 JWF     -0.160000
     34 HAP1        4.4800    0.5130   -0.7360 h1        1 JWF      0.084500
     35 HAP2        4.3190   -0.0060    0.7590 h1        1 JWF      0.084500
     36 HAN1        6.6280   -0.2320   -0.9290 h1        1 JWF      0.079250
     37 HAN2        6.5500    0.6100    0.4500 h1        1 JWF      0.079250
     38 HAA1        8.3970   -1.6400   -0.2600 h1        1 JWF      0.073333
     39 HAA2        8.4510   -2.0810    1.2730 h1        1 JWF      0.073333
     40 HAA3        8.4940   -0.5110    0.8490 h1        1 JWF      0.073333
     41 HAO1        6.4040   -3.3220    0.7640 h1        1 JWF      0.079250
     42 HAO2        6.5140   -2.7400   -0.6960 h1        1 JWF      0.079250
     43 HAQ1        4.3200   -3.3620   -0.4430 h1        1 JWF      0.084500
     44 HAQ2        4.2230   -2.5250    0.9550 h1        1 JWF      0.084500
     45 HAI         2.5890   -2.6920    1.0170 ha        1 JWF      0.138000
     46 HAH         2.5530   -0.1100   -2.2320 ha        1 JWF      0.143000
     47 HAG         0.1790   -2.6350    1.0090 ha        1 JWF      0.138000
     48 HAF         0.1720   -0.0630   -2.2270 ha        1 JWF      0.148000
     49 HAU        -1.9420   -2.2060   -0.7550 hn        1 JWF      0.266000
     50 HAM        -1.0380    1.1150   -1.4870 ha        1 JWF      0.181000
     51 HAJ        -4.0340    3.9590    1.4630 ha        1 JWF      0.165000
     52 HAK        -6.2220    2.9450   -1.8520 ha        1 JWF      0.152000
     53 HAD        -5.3040    5.9340    1.7980 ha        1 JWF      0.154000
     54 HAE        -7.5340    4.9100   -1.5620 ha        1 JWF      0.152000
     55 HAS        -3.5960   -1.4670    2.8360 DU        1 JWF      0.252000
     56 HAL        -5.4800   -4.3840    0.9740 DU        1 JWF      0.252000
@<TRIPOS>BOND
     1    1    2 1   
     2    1    7 1   
     3    1   34 1   
     4    1   35 1   
     5    2    3 1   
     6    2   36 1   
     7    2   37 1   
     8    3    4 1   
     9    3    5 1   
    10    4   38 1   
    11    4   39 1   
    12    4   40 1   
    13    5    6 1   
    14    5   41 1   
    15    5   42 1   
    16    6    7 1   
    17    6   43 1   
    18    6   44 1   
    19    7    8 1   
    20    8    9 1   
    21    8   11 1   
    22    9   10 1   
    23    9   45 1   
    24   10   47 1   
    25   11   46 1   
    26   12   13 1   
    27   12   48 1   
    28   13   14 1   
    29   14   15 1   
    30   14   49 1   
    31   15   16 1   
    32   15   28 1   
    33   16   50 1   
    34   17   18 1   
    35   17   19 1   
    36   19   20 1   
    37   19   27 1   
    38   20   21 1   
    39   20   26 1   
    40   21   22 1   
    41   21   51 1   
    42   22   53 1   
    43   23   24 1   
    44   23   25 1   
    45   25   54 1   
    46   26   52 1   
    47   27   28 1   
    48   28   29 1   
    49   29   30 1   
    50   29   33 1   
    51   30   31 1   
    52   31   32 1   
    53   32   33 1   
@<TRIPOS>SUBSTRUCTURE
     1 JWF         1 TEMP              0 ****  ****    0 ROOT
