@<TRIPOS>MOLECULE
JWF
   56    60     1     0     0
SMALL
bcc


@<TRIPOS>ATOM
      1 CAP         0.4260    0.1430   -0.0490 c3        1 JWF      0.185300
      2 CAN         1.9420    0.4260   -0.0580 c3        1 JWF      0.165300
      3 NBE         2.5210    0.4620    1.2770 n3        1 JWF     -0.732600
      4 CAA         3.9400    0.7370    1.2580 c3        1 JWF      0.157100
      5 CAO         1.7920    1.3530    2.1670 c3        1 JWF      0.165300
      6 CAQ         0.2750    1.0750    2.1830 c3        1 JWF      0.185300
      7 NBF        -0.2970    1.0320    0.8450 nh        1 JWF     -0.635000
      8 CAY        -1.7100    0.9700    0.7880 ca        1 JWF      0.138600
      9 CAI        -2.4820    1.9490    1.4600 ca        1 JWF     -0.156500
     10 CAG        -3.8640    1.9650    1.3610 ca        1 JWF     -0.118500
     11 CAH        -2.4010    0.0150    0.0100 ca        1 JWF     -0.156500
     12 CAF        -3.7860    0.0400   -0.1030 ca        1 JWF     -0.118500
     13 CAX        -4.5460    1.0100    0.5760 ca        1 JWF      0.085600
     14 NAU        -5.9500    1.0920    0.4240 nu        1 JWF     -0.614400
     15 CBA        -6.7910    0.0360    0.6990 cc        1 JWF      0.169400
     16 CAM        -6.3590   -1.2300    1.0420 cd        1 JWF     -0.358200
     17 CBD        -7.2770   -2.3380    1.2140 c         1 JWF      0.701700
     18 OAB        -6.9470   -3.5000    1.4970 o         1 JWF     -0.605500
     19 NBG        -8.6790   -2.0240    1.0230 n         1 JWF     -0.110000
     20 CAZ        -9.6780   -3.0470    1.2120 ca        1 JWF      0.046600
     21 CAJ       -10.8390   -2.7870    1.9660 ca        1 JWF     -0.103500
     22 CAD       -11.7970   -3.7830    2.1350 ca        1 JWF     -0.121000
     23 CAW       -11.6040   -5.0430    1.5630 ca        1 JWF      0.019400
     24 ClAC      -12.7750   -6.2550    1.7730 cl        1 JWF     -0.086400
     25 CAE       -10.4500   -5.3120    0.8200 ca        1 JWF     -0.121000
     26 CAK        -9.4910   -4.3200    0.6390 ca        1 JWF     -0.103500
     27 NAT        -9.1070   -0.8140    0.7310 nd        1 JWF     -0.400300
     28 CBC        -8.2540    0.1960    0.5640 cc        1 JWF      0.259600
     29 CBB        -8.8500    1.4990    0.2410 cc        1 JWF      0.401200
     30 NAR        -8.4600    2.7350    0.6610 nd        1 JWF     -0.699000
     31 CAL        -9.3950    3.5950    0.0740 cd        1 JWF      0.507900
     32 NAV       -10.3310    2.9310   -0.6710 nc        1 JWF     -0.513800
     33 NAS        -9.9940    1.6480   -0.5750 na        1 JWF     -0.127400
     34 HAP1        0.0430    0.3070   -1.0950 h1        1 JWF      0.045450
     35 HAP2        0.2650   -0.9410    0.2250 h1        1 JWF      0.045450
     36 HAN1        2.1270    1.3880   -0.6200 h1        1 JWF      0.039950
     37 HAN2        2.4390   -0.4080   -0.6270 h1        1 JWF      0.039950
     38 HAA1        4.1920    1.7550    0.8510 h1        1 JWF      0.034033
     39 HAA2        4.3350    0.6640    2.3050 h1        1 JWF      0.034033
     40 HAA3        4.4490   -0.0360    0.6250 h1        1 JWF      0.034033
     41 HAO1        1.9580    2.4370    1.9010 h1        1 JWF      0.039950
     42 HAO2        2.1790    1.1880    3.2110 h1        1 JWF      0.039950
     43 HAQ1       -0.2150    1.9040    2.7640 h1        1 JWF      0.045450
     44 HAQ2        0.0900    0.1060    2.7330 h1        1 JWF      0.045450
     45 HAI        -1.9900    2.7250    2.0650 ha        1 JWF      0.140500
     46 HAH        -1.8550   -0.7740   -0.5300 ha        1 JWF      0.140500
     47 HAG        -4.4270    2.7450    1.9000 ha        1 JWF      0.143000
     48 HAF        -4.2850   -0.7140   -0.7330 ha        1 JWF      0.143000
     49 HAU        -6.3210    2.0160    0.4950 hn        1 JWF      0.464800
     50 HAM        -5.2990   -1.4720    1.2140 ha        1 JWF      0.182000
     51 HAJ       -11.0060   -1.8010    2.4290 ha        1 JWF      0.158000
     52 HAK        -8.5750   -4.5500    0.0700 ha        1 JWF      0.158000
     53 HAD       -12.7030   -3.5720    2.7240 ha        1 JWF      0.153000
     54 HAE       -10.2930   -6.3070    0.3760 ha        1 JWF      0.153000
     55 HAS       -10.5460    0.9310   -0.9880 hn        1 JWF      0.339700
     56 HAL        -9.3720    4.6810    0.2080 h5        1 JWF      0.076100
@<TRIPOS>BOND
     1    1    2 1   
     2    1    7 1   
     3    1   34 1   
     4    1   35 1   
     5    2    3 1   
     6    2   36 1   
     7    2   37 1   
     8    3    4 1   
     9    3    5 1   
    10    4   38 1   
    11    4   39 1   
    12    4   40 1   
    13    5    6 1   
    14    5   41 1   
    15    5   42 1   
    16    6    7 1   
    17    6   43 1   
    18    6   44 1   
    19    7    8 1   
    20    8    9 ar  
    21    8   11 ar  
    22    9   10 ar  
    23    9   45 1   
    24   10   13 ar  
    25   10   47 1   
    26   11   12 ar  
    27   11   46 1   
    28   12   13 ar  
    29   12   48 1   
    30   13   14 1   
    31   14   15 1   
    32   14   49 1   
    33   15   16 2   
    34   15   28 1   
    35   16   17 1   
    36   16   50 1   
    37   17   18 2   
    38   17   19 1   
    39   19   20 1   
    40   19   27 1   
    41   20   21 ar  
    42   20   26 ar  
    43   21   22 ar  
    44   21   51 1   
    45   22   23 ar  
    46   22   53 1   
    47   23   24 1   
    48   23   25 ar  
    49   25   26 ar  
    50   25   54 1   
    51   26   52 1   
    52   27   28 2   
    53   28   29 1   
    54   29   30 2   
    55   29   33 1   
    56   30   31 1   
    57   31   32 2   
    58   31   56 1   
    59   32   33 1   
    60   33   55 1   
@<TRIPOS>SUBSTRUCTURE
     1 JWF         1 TEMP              0 ****  ****    0 ROOT
