@<TRIPOS>MOLECULE
JWF
   56    60     1     0     0
SMALL
bcc


@<TRIPOS>ATOM
      1 CAP        -6.2090   -1.4160    1.1420 c3        1 JWF      0.185300
      2 CAN        -7.7210   -1.7150    1.1870 c3        1 JWF      0.165300
      3 NBE        -8.2550   -2.1350   -0.1000 n3        1 JWF     -0.732600
      4 CAA        -9.6750   -2.4030   -0.0500 c3        1 JWF      0.157100
      5 CAO        -7.8990   -1.2130   -1.1680 c3        1 JWF      0.165300
      6 CAQ        -6.3880   -0.9100   -1.2210 c3        1 JWF      0.185300
      7 NBF        -5.8580   -0.4990    0.0710 nh        1 JWF     -0.635000
      8 CAY        -4.5240   -0.0240    0.0590 ca        1 JWF      0.138600
      9 CAI        -4.1650    1.0330   -0.8110 ca        1 JWF     -0.156500
     10 CAG        -2.8890    1.5760   -0.7940 ca        1 JWF     -0.118500
     11 CAH        -3.5370   -0.5010    0.9490 ca        1 JWF     -0.156500
     12 CAF        -2.2630    0.0520    0.9790 ca        1 JWF     -0.118500
     13 CAX        -1.9110    1.0960    0.1030 ca        1 JWF      0.085600
     14 NAU        -0.6400    1.7160    0.1620 nh        1 JWF     -0.614400
     15 CBA         0.5360    1.0140    0.0240 cc        1 JWF      0.169400
     16 CAM         0.6120   -0.3620   -0.0740 cd        1 JWF     -0.358200
     17 CBD         1.8790   -1.0650   -0.1050 c         1 JWF      0.701700
     18 OAB         2.0090   -2.2970   -0.1670 o         1 JWF     -0.605500
     19 NBG         3.0600   -0.2270   -0.0480 n         1 JWF     -0.110000
     20 CAZ         4.3710   -0.8270   -0.1150 ca        1 JWF      0.046600
     21 CAJ         5.3610   -0.2950   -0.9650 ca        1 JWF     -0.103500
     22 CAD         6.6230   -0.8810   -1.0140 ca        1 JWF     -0.121000
     23 CAW         6.9060   -2.0000   -0.2260 ca        1 JWF      0.019400
     24 CLAC        8.4470   -2.7100   -0.2910 cl        1 JWF     -0.086400
     25 CAE         5.9260   -2.5370    0.6140 ca        1 JWF     -0.121000
     26 CAK         4.6650   -1.9540    0.6770 ca        1 JWF     -0.103500
     27 NAT         3.0030    1.0860    0.0100 nd        1 JWF     -0.400300
     28 CBC         1.8330    1.7220    0.0490 cc        1 JWF      0.259600
     29 CBB         1.8970    3.1890    0.1110 cc        1 JWF      0.401200
     30 NAR         1.0790    4.0970   -0.4910 nd        1 JWF     -0.699000
     31 CAL         1.6200    5.3320   -0.1110 cd        1 JWF      0.507900
     32 NAV         2.7260    5.2050    0.6820 nc        1 JWF     -0.513800
     33 NAS         2.8930    3.8930    0.8250 na        1 JWF     -0.127400
     34 HAP1       -5.9280   -0.9380    2.1220 h1        1 JWF      0.045450
     35 HAP2       -5.6520   -2.3940    1.0490 h1        1 JWF      0.045450
     36 HAN1       -7.8790   -2.5570    1.9170 h1        1 JWF      0.039950
     37 HAN2       -8.2580   -0.8050    1.5860 h1        1 JWF      0.039950
     38 HAA1      -10.2930   -1.4940    0.1910 h1        1 JWF      0.034033
     39 HAA2      -10.0010   -2.8030   -1.0450 h1        1 JWF      0.034033
     40 HAA3       -9.8670   -3.1820    0.7340 h1        1 JWF      0.034033
     41 HAO1       -8.1840   -1.6920   -2.1460 h1        1 JWF      0.039950
     42 HAO2       -8.4610   -0.2370   -1.0830 h1        1 JWF      0.039950
     43 HAQ1       -5.8490   -1.8240   -1.6060 h1        1 JWF      0.045450
     44 HAQ2       -6.2350   -0.0770   -1.9610 h1        1 JWF      0.045450
     45 HAI        -4.9040    1.4520   -1.5120 ha        1 JWF      0.140500
     46 HAH        -3.7560   -1.3260    1.6450 ha        1 JWF      0.140500
     47 HAG        -2.6510    2.3980   -1.4880 ha        1 JWF      0.143000
     48 HAF        -1.5260   -0.3390    1.7000 ha        1 JWF      0.143000
     49 HAU        -0.6400    2.6830   -0.0870 hn        1 JWF      0.464800
     50 HAM        -0.2790   -1.0040   -0.1430 ha        1 JWF      0.182000
     51 HAJ         5.1550    0.5830   -1.5970 ha        1 JWF      0.158000
     52 HAK         3.8930   -2.4000    1.3260 ha        1 JWF      0.158000
     53 HAD         7.3920   -0.4600   -1.6800 ha        1 JWF      0.153000
     54 HAE         6.1460   -3.4240    1.2290 ha        1 JWF      0.153000
     55 HAS         3.6670    3.5160    1.3230 hn        1 JWF      0.339700
     56 HAL         1.1940    6.2900   -0.4270 h5        1 JWF      0.076100
@<TRIPOS>BOND
     1    1    2 1   
     2    1    7 1   
     3    1   34 1   
     4    1   35 1   
     5    2    3 1   
     6    2   36 1   
     7    2   37 1   
     8    3    4 1   
     9    3    5 1   
    10    4   38 1   
    11    4   39 1   
    12    4   40 1   
    13    5    6 1   
    14    5   41 1   
    15    5   42 1   
    16    6    7 1   
    17    6   43 1   
    18    6   44 1   
    19    7    8 1   
    20    8    9 ar  
    21    8   11 ar  
    22    9   10 ar  
    23    9   45 1   
    24   10   13 ar  
    25   10   47 1   
    26   11   12 ar  
    27   11   46 1   
    28   12   13 ar  
    29   12   48 1   
    30   13   14 1   
    31   14   15 1   
    32   14   49 1   
    33   15   16 2   
    34   15   28 1   
    35   16   17 1   
    36   16   50 1   
    37   17   18 2   
    38   17   19 1   
    39   19   20 1   
    40   19   27 1   
    41   20   21 ar  
    42   20   26 ar  
    43   21   22 ar  
    44   21   51 1   
    45   22   23 ar  
    46   22   53 1   
    47   23   24 1   
    48   23   25 ar  
    49   25   26 ar  
    50   25   54 1   
    51   26   52 1   
    52   27   28 2   
    53   28   29 1   
    54   29   30 2   
    55   29   33 1   
    56   30   31 1   
    57   31   32 2   
    58   31   56 1   
    59   32   33 1   
    60   33   55 1   
@<TRIPOS>SUBSTRUCTURE
     1 JWF         1 TEMP              0 ****  ****    0 ROOT
