@<TRIPOS>MOLECULE
JWF
   56    60     1     0     0
SMALL
bcc


@<TRIPOS>ATOM
      1 CAP         0.4280    0.1500   -0.0400 c3        1 JWF      0.185300
      2 CAN         1.9430    0.4360   -0.0460 c3        1 JWF      0.165300
      3 NBE         2.5190    0.4710    1.2900 n3        1 JWF     -0.732600
      4 CAA         3.9370    0.7490    1.2750 c3        1 JWF      0.157100
      5 CAO         1.7860    1.3610    2.1790 c3        1 JWF      0.165300
      6 CAQ         0.2710    1.0810    2.1920 c3        1 JWF      0.185300
      7 NBF        -0.2990    1.0380    0.8530 nh        1 JWF     -0.635000
      8 CAY        -1.7120    0.9740    0.7920 ca        1 JWF      0.138600
      9 CAI        -2.4860    1.9520    1.4620 ca        1 JWF     -0.156500
     10 CAG        -3.8680    1.9660    1.3610 ca        1 JWF     -0.118500
     11 CAH        -2.4000    0.0180    0.0130 ca        1 JWF     -0.156500
     12 CAF        -3.7840    0.0410   -0.1030 ca        1 JWF     -0.118500
     13 CAX        -4.5470    1.0100    0.5750 ca        1 JWF      0.085600
     14 NAU        -5.9510    1.0900    0.4200 nh        1 JWF     -0.614400
     15 CBA        -6.7900    0.0330    0.6940 cc        1 JWF      0.169400
     16 CAM        -6.3570   -1.2320    1.0390 cd        1 JWF     -0.358200
     17 CBD        -7.2740   -2.3420    1.2090 c         1 JWF      0.701700
     18 OAB        -6.9430   -3.5030    1.4940 o         1 JWF     -0.605500
     19 NBG        -8.6760   -2.0300    1.0160 n         1 JWF     -0.110000
     20 CAZ        -9.6740   -3.0540    1.2040 ca        1 JWF      0.046600
     21 CAJ       -10.8370   -2.7960    1.9550 ca        1 JWF     -0.103500
     22 CAD       -11.7930   -3.7930    2.1230 ca        1 JWF     -0.121000
     23 CAW       -11.5970   -5.0530    1.5510 ca        1 JWF      0.019400
     24 CLAC      -12.7680   -6.2660    1.7600 cl        1 JWF     -0.086400
     25 CAE       -10.4420   -5.3200    0.8110 ca        1 JWF     -0.121000
     26 CAK        -9.4840   -4.3270    0.6310 ca        1 JWF     -0.103500
     27 NAT        -9.1060   -0.8210    0.7220 nd        1 JWF     -0.400300
     28 CBC        -8.2540    0.1900    0.5560 cc        1 JWF      0.259600
     29 CBB        -8.8510    1.4920    0.2320 cc        1 JWF      0.401200
     30 NAR        -8.4630    2.7290    0.6520 nd        1 JWF     -0.699000
     31 CAL        -9.4000    3.5880    0.0630 cd        1 JWF      0.507900
     32 NAV       -10.3330    2.9220   -0.6830 nc        1 JWF     -0.513800
     33 NAS        -9.9950    1.6400   -0.5850 na        1 JWF     -0.127400
     34 HAP1        0.2670   -0.9330    0.2330 h1        1 JWF      0.045450
     35 HAP2        0.0470    0.3140   -1.0870 h1        1 JWF      0.045450
     36 HAN1        2.4430   -0.3980   -0.6140 h1        1 JWF      0.039950
     37 HAN2        2.1280    1.3980   -0.6070 h1        1 JWF      0.039950
     38 HAA1        4.4490   -0.0230    0.6420 h1        1 JWF      0.034033
     39 HAA2        4.3300    0.6760    2.3220 h1        1 JWF      0.034033
     40 HAA3        4.1890    1.7680    0.8690 h1        1 JWF      0.034033
     41 HAO1        2.1710    1.1970    3.2240 h1        1 JWF      0.039950
     42 HAO2        1.9520    2.4460    1.9140 h1        1 JWF      0.039950
     43 HAQ1       -0.2220    1.9090    2.7720 h1        1 JWF      0.045450
     44 HAQ2        0.0860    0.1120    2.7410 h1        1 JWF      0.045450
     45 HAI        -1.9960    2.7290    2.0690 ha        1 JWF      0.140500
     46 HAH        -1.8510   -0.7700   -0.5260 ha        1 JWF      0.140500
     47 HAG        -4.4340    2.7450    1.8980 ha        1 JWF      0.143000
     48 HAF        -4.2810   -0.7140   -0.7330 ha        1 JWF      0.143000
     49 HAU        -6.3230    2.0140    0.4900 hn        1 JWF      0.464800
     50 HAM        -5.2980   -1.4730    1.2120 ha        1 JWF      0.182000
     51 HAJ       -11.0070   -1.8100    2.4170 ha        1 JWF      0.158000
     52 HAK        -8.5670   -4.5560    0.0630 ha        1 JWF      0.158000
     53 HAD       -12.7010   -3.5830    2.7110 ha        1 JWF      0.153000
     54 HAE       -10.2830   -6.3160    0.3680 ha        1 JWF      0.153000
     55 HAS       -10.5450    0.9220   -0.9990 hn        1 JWF      0.339700
     56 HAL        -9.3770    4.6740    0.1970 h5        1 JWF      0.076100
@<TRIPOS>BOND
     1    1    2 1   
     2    1    7 1   
     3    1   34 1   
     4    1   35 1   
     5    2    3 1   
     6    2   36 1   
     7    2   37 1   
     8    3    4 1   
     9    3    5 1   
    10    4   38 1   
    11    4   39 1   
    12    4   40 1   
    13    5    6 1   
    14    5   41 1   
    15    5   42 1   
    16    6    7 1   
    17    6   43 1   
    18    6   44 1   
    19    7    8 1   
    20    8    9 ar  
    21    8   11 ar  
    22    9   10 ar  
    23    9   45 1   
    24   10   13 ar  
    25   10   47 1   
    26   11   12 ar  
    27   11   46 1   
    28   12   13 ar  
    29   12   48 1   
    30   13   14 1   
    31   14   15 1   
    32   14   49 1   
    33   15   16 2   
    34   15   28 1   
    35   16   17 1   
    36   16   50 1   
    37   17   18 2   
    38   17   19 1   
    39   19   20 1   
    40   19   27 1   
    41   20   21 ar  
    42   20   26 ar  
    43   21   22 ar  
    44   21   51 1   
    45   22   23 ar  
    46   22   53 1   
    47   23   24 1   
    48   23   25 ar  
    49   25   26 ar  
    50   25   54 1   
    51   26   52 1   
    52   27   28 2   
    53   28   29 1   
    54   29   30 2   
    55   29   33 1   
    56   30   31 1   
    57   31   32 2   
    58   31   56 1   
    59   32   33 1   
    60   33   55 1   
@<TRIPOS>SUBSTRUCTURE
     1 JWF         1 TEMP              0 ****  ****    0 ROOT
