@<TRIPOS>MOLECULE
JWF
   57    61     1     0     0
SMALL
bcc


@<TRIPOS>ATOM
      1 CAP         0.3710    0.3390   -0.1820 c3        1 JWF      0.201800
      2 CAN         1.8990    0.4710   -0.0360 c3        1 JWF      0.157800
      3 NBE         2.3580    0.2120    1.3180 n3        1 JWF     -0.728600
      4 CAA         3.7990    0.2050    1.4360 c3        1 JWF      0.153100
      5 CAO         1.7150    1.1200    2.2520 c3        1 JWF      0.157800
      6 CAQ         0.1780    1.0200    2.2170 c3        1 JWF      0.201800
      7 NBF        -0.4120    0.9180    0.8950 nh        1 JWF     -0.627000
      8 CAY        -1.7810    0.9610    0.7720 ca        1 JWF      0.256600
      9 CAI        -2.6210    1.3380    1.8670 ca        1 JWF     -0.207000
     10 CAG        -3.9860    1.4690    1.7190 ca        1 JWF     -0.040000
     11 CAH        -2.4330    0.6740   -0.4690 ca        1 JWF     -0.207000
     12 CAF        -3.7990    0.8050   -0.6150 ca        1 JWF     -0.040000
     13 CAX        -4.5940    1.2140    0.4740 ca        1 JWF     -0.177400
     14 NAU        -6.0310    1.4100    0.3030 n4        1 JWF     -0.476200
     15 CBA        -6.8520    0.2240    0.5670 cc        1 JWF     -0.049600
     16 CAM        -6.2990   -0.9530    0.9740 cd        1 JWF     -0.160200
     17 CBD        -7.1480   -2.1290    1.2340 c         1 JWF      0.665700
     18 OAB        -6.7020   -3.2270    1.5780 o         1 JWF     -0.523500
     19 NBG        -8.5610   -1.9170    1.0500 n         1 JWF     -0.071000
     20 CAZ        -9.4790   -3.0050    1.3350 ca        1 JWF      0.003600
     21 CAJ       -10.5820   -2.7960    2.1840 ca        1 JWF     -0.091500
     22 CAD       -11.4530   -3.8480    2.4500 ca        1 JWF     -0.116000
     23 CAW       -11.2300   -5.1060    1.8780 ca        1 JWF      0.039400
     24 CLAC      -12.2930   -6.3800    2.2070 cl        1 JWF     -0.046400
     25 CAE       -10.1320   -5.3140    1.0360 ca        1 JWF     -0.116000
     26 CAK        -9.2560   -4.2690    0.7580 ca        1 JWF     -0.091500
     27 NAT        -9.0750   -0.7800    0.6550 nd        1 JWF     -0.366300
     28 CBC        -8.3060    0.2870    0.4000 cc        1 JWF      0.264600
     29 CBB        -8.9840    1.5080   -0.0460 cc        1 JWF      0.365200
     30 NAR        -8.4330    2.7480   -0.2260 nd        1 JWF     -0.759000
     31 CAL        -9.5050    3.5370   -0.6430 cd        1 JWF      0.535900
     32 NAV       -10.6750    2.8280   -0.7210 nc        1 JWF     -0.476800
     33 NAS       -10.3560    1.5920   -0.3590 na        1 JWF     -0.095400
     34 HAP1        0.1090   -0.7550   -0.2790 h1        1 JWF      0.057200
     35 HAP2        0.0960    0.8620   -1.1440 h1        1 JWF      0.057200
     36 HAN1        2.2070    1.4970   -0.3960 h1        1 JWF      0.053700
     37 HAN2        2.3650   -0.2910   -0.7210 h1        1 JWF      0.053700
     38 HAA1        4.2110   -0.5710    0.7390 h1        1 JWF      0.045700
     39 HAA2        4.0710   -0.0740    2.4880 h1        1 JWF      0.045700
     40 HAA3        4.2700    1.1960    1.1920 h1        1 JWF      0.045700
     41 HAO1        2.0420    0.8480    3.2950 h1        1 JWF      0.053700
     42 HAO2        2.0090    2.1950    2.0650 h1        1 JWF      0.053700
     43 HAQ1       -0.1410    0.1280    2.8310 h1        1 JWF      0.057200
     44 HAQ2       -0.2140    1.9560    2.7120 h1        1 JWF      0.057200
     45 HAI        -2.1920    1.5340    2.8630 ha        1 JWF      0.163000
     46 HAH        -1.8530    0.3390   -1.3430 ha        1 JWF      0.163000
     47 HAG        -4.5900    1.7760    2.5900 ha        1 JWF      0.149000
     48 HAF        -4.2540    0.5860   -1.5950 ha        1 JWF      0.149000
     49 HAU        -6.3390    2.1630    0.9410 hn        1 JWF      0.479300
     50 HAM        -5.2170   -1.1100    1.1360 ha        1 JWF      0.207000
     51 HAJ       -10.7700   -1.8140    2.6450 ha        1 JWF      0.155500
     52 HAK        -8.3850   -4.4500    0.1080 ha        1 JWF      0.155500
     53 HAD       -12.3150   -3.6850    3.1160 ha        1 JWF      0.167000
     54 HAE        -9.9530   -6.3060    0.5900 ha        1 JWF      0.167000
     55 HAS       -11.0410    0.8670   -0.3230 hn        1 JWF      0.356700
     56 HAL        -9.4130    4.6050   -0.8770 h5        1 JWF      0.094100
     57 HAU2       -6.2080    1.7150   -0.6680 hn        1 JWF      0.479300
@<TRIPOS>BOND
     1    1    2 1   
     2    1    7 1   
     3    1   34 1   
     4    1   35 1   
     5    2    3 1   
     6    2   36 1   
     7    2   37 1   
     8    3    4 1   
     9    3    5 1   
    10    4   38 1   
    11    4   39 1   
    12    4   40 1   
    13    5    6 1   
    14    5   41 1   
    15    5   42 1   
    16    6    7 1   
    17    6   43 1   
    18    6   44 1   
    19    7    8 1   
    20    8    9 ar  
    21    8   11 ar  
    22    9   10 ar  
    23    9   45 1   
    24   10   13 ar  
    25   10   47 1   
    26   11   12 ar  
    27   11   46 1   
    28   12   13 ar  
    29   12   48 1   
    30   13   14 1   
    31   14   15 1   
    32   14   49 1   
    33   14   57 1   
    34   15   16 2   
    35   15   28 1   
    36   16   17 1   
    37   16   50 1   
    38   17   18 2   
    39   17   19 1   
    40   19   20 1   
    41   19   27 1   
    42   20   21 ar  
    43   20   26 ar  
    44   21   22 ar  
    45   21   51 1   
    46   22   23 ar  
    47   22   53 1   
    48   23   24 1   
    49   23   25 ar  
    50   25   26 ar  
    51   25   54 1   
    52   26   52 1   
    53   27   28 2   
    54   28   29 1   
    55   29   30 2   
    56   29   33 1   
    57   30   31 1   
    58   31   32 2   
    59   31   56 1   
    60   32   33 1   
    61   33   55 1   
@<TRIPOS>SUBSTRUCTURE
     1 JWF         1 TEMP              0 ****  ****    0 ROOT
