@<TRIPOS>MOLECULE
JWS
   28    29     1     0     0
SMALL
bcc


@<TRIPOS>ATOM
      1 N1         -0.0460   -0.0050   -0.0830 nb        1 JWS     -0.845000
      2 C2          1.1630   -0.6530    0.1140 ca        1 JWS      0.918400
      3 N3          1.6450   -1.4460   -0.9230 nv        1 JWS     -0.939500
      4 N4          1.9040   -0.6140    1.2970 nb        1 JWS     -0.798000
      5 C5          1.3280    0.1020    2.3030 cp        1 JWS      0.789500
      6 C6          2.0720    0.1670    3.5920 cp        1 JWS     -0.129500
      7 C7          3.3200    0.8170    3.6720 ca        1 JWS      0.129100
      8 O8          3.7960    1.4230    2.5320 oh        1 JWS     -0.484100
      9 C9          4.0200    0.8550    4.8850 ca        1 JWS     -0.189000
     10 C10         3.4820    0.2540    6.0210 ca        1 JWS     -0.153000
     11 C11         2.2380   -0.3780    5.9420 ca        1 JWS      0.084100
     12 O12         1.6050   -1.0030    7.0020 os        1 JWS     -0.325900
     13 C13         1.5260   -0.4210    4.7290 ca        1 JWS     -0.086000
     14 N14         0.1330    0.7590    2.2540 nb        1 JWS     -0.798000
     15 C15        -0.5140    0.6940    1.0200 ca        1 JWS      0.918400
     16 N16        -1.6880    1.4210    0.8680 nv        1 JWS     -0.939500
     17 C17         2.2880   -0.9620    8.2480 c3        1 JWS      0.113700
     18 HN3         1.2530   -1.3150   -1.8240 hn        1 JWS      0.437300
     19 HN3A        2.5920   -1.7380   -0.8720 hn        1 JWS      0.437300
     20 HO8         4.6810    1.7630    2.7270 ho        1 JWS      0.417000
     21 H9          4.9950    1.3590    4.9410 ha        1 JWS      0.136000
     22 H10         4.0430    0.2880    6.9660 ha        1 JWS      0.139000
     23 H13         0.5450   -0.9190    4.6920 ha        1 JWS      0.163000
     24 HN16       -2.2530    1.2410    0.0740 hn        1 JWS      0.437300
     25 HN1A       -2.1230    1.7790    1.6830 hn        1 JWS      0.437300
     26 H17         1.5980   -1.5080    8.9410 h1        1 JWS      0.043367
     27 H17A        3.2710   -1.4870    8.1780 h1        1 JWS      0.043367
     28 H17B        2.4310    0.0930    8.5870 h1        1 JWS      0.043367
@<TRIPOS>BOND
     1    1    2 ar  
     2    1   15 ar  
     3    2    3 1   
     4    2    4 ar  
     5    3   18 1   
     6    3   19 1   
     7    4    5 ar  
     8    5    6 1   
     9    5   14 ar  
    10    6    7 ar  
    11    6   13 ar  
    12    7    8 1   
    13    7    9 ar  
    14    8   20 1   
    15    9   10 ar  
    16    9   21 1   
    17   10   11 ar  
    18   10   22 1   
    19   11   12 1   
    20   11   13 ar  
    21   12   17 1   
    22   13   23 1   
    23   14   15 ar  
    24   15   16 1   
    25   16   24 1   
    26   16   25 1   
    27   17   26 1   
    28   17   27 1   
    29   17   28 1   
@<TRIPOS>SUBSTRUCTURE
     1 JWS         1 TEMP              0 ****  ****    0 ROOT
