@<TRIPOS>MOLECULE
JWS
   28    29     1     0     0
SMALL
bcc


@<TRIPOS>ATOM
      1 N1         -3.5620    0.6220    0.1200 nb        1 JWS     -0.847000
      2 C2         -3.0470   -0.6070    0.5000 ca        1 JWS      0.926900
      3 N3         -3.9420   -1.5700    0.9510 nh        1 JWS     -0.941000
      4 N4         -1.7010   -0.9640    0.4170 nb        1 JWS     -0.821500
      5 C5         -0.8830   -0.0090   -0.1190 cp        1 JWS      0.782500
      6 C6          0.5690   -0.3320   -0.2110 cp        1 JWS     -0.192500
      7 C7          1.0450   -1.5380   -0.7600 ca        1 JWS      0.144100
      8 O8          0.2650   -2.5260   -1.3070 oh        1 JWS     -0.501100
      9 C9          2.4290   -1.7900   -0.8160 ca        1 JWS     -0.141000
     10 C10         3.3330   -0.8570   -0.3260 ca        1 JWS     -0.150000
     11 C11         2.8570    0.3410    0.2220 ca        1 JWS      0.075100
     12 O12         3.6620    1.3410    0.7440 os        1 JWS     -0.326900
     13 C13         1.4810    0.6090    0.2780 ca        1 JWS     -0.080000
     14 N14        -1.2670    1.2240   -0.5560 nb        1 JWS     -0.821500
     15 C15        -2.6270    1.5050   -0.4010 ca        1 JWS      0.926900
     16 N16        -3.0650    2.7690   -0.7540 nh        1 JWS     -0.941000
     17 C17         5.0620    1.1100    0.6770 c3        1 JWS      0.114700
     18 HN3        -4.8550   -1.2740    1.2010 hn        1 JWS      0.442050
     19 HN3A       -3.5710   -2.3640    1.4150 hn        1 JWS      0.442050
     20 HO8        -0.6650   -2.3490   -1.1110 ho        1 JWS      0.439000
     21 H9          2.7780   -2.7370   -1.2530 ha        1 JWS      0.153000
     22 H10         4.4100   -1.0700   -0.3730 ha        1 JWS      0.140000
     23 H13         1.1360    1.5620    0.7060 ha        1 JWS      0.164000
     24 HN16       -4.0390    2.9440   -0.7970 hn        1 JWS      0.442050
     25 HN1A       -2.4500    3.3620   -1.2560 hn        1 JWS      0.442050
     26 H17         5.3440    0.2060    1.2710 h1        1 JWS      0.042700
     27 H17A        5.3960    1.0000   -0.3840 h1        1 JWS      0.042700
     28 H17B        5.5010    2.0330    1.1340 h1        1 JWS      0.042700
@<TRIPOS>BOND
     1    1    2 ar  
     2    1   15 ar  
     3    2    3 1   
     4    2    4 ar  
     5    3   18 1   
     6    3   19 1   
     7    4    5 ar  
     8    5    6 1   
     9    5   14 ar  
    10    6    7 ar  
    11    6   13 ar  
    12    7    8 1   
    13    7    9 ar  
    14    8   20 1   
    15    9   10 ar  
    16    9   21 1   
    17   10   11 ar  
    18   10   22 1   
    19   11   12 1   
    20   11   13 ar  
    21   12   17 1   
    22   13   23 1   
    23   14   15 ar  
    24   15   16 1   
    25   16   24 1   
    26   16   25 1   
    27   17   26 1   
    28   17   27 1   
    29   17   28 1   
@<TRIPOS>SUBSTRUCTURE
     1 JWS         1 TEMP              0 ****  ****    0 ROOT
