@<TRIPOS>MOLECULE
JWS
   30    31     1     0     0
SMALL
bcc


@<TRIPOS>ATOM
      1 N1         -0.0930    0.0620   -0.0800 nb        1 JWS     -0.747000
      2 C2          1.2600    0.3350    0.0030 ca        1 JWS      0.794900
      3 N3          1.9340    0.7140   -1.2760 n4        1 JWS     -0.824300
      4 N4          2.0370    0.3080    1.1130 nb        1 JWS     -0.672000
      5 C5          1.3990   -0.0610    2.2960 cp        1 JWS      0.877500
      6 C6          2.1500   -0.1300    3.5340 cp        1 JWS     -0.228500
      7 C7          3.5300   -0.4670    3.5860 ca        1 JWS      0.213100
      8 O8          4.1600   -0.8270    2.4320 oh        1 JWS     -0.488100
      9 C9          4.2090   -0.4850    4.8220 ca        1 JWS     -0.197000
     10 C10         3.5480   -0.1850    5.9980 ca        1 JWS     -0.048000
     11 C11         2.1690    0.1290    5.9620 ca        1 JWS      0.110100
     12 O12         1.4100    0.4330    7.0660 os        1 JWS     -0.310900
     13 C13         1.4800    0.1500    4.7520 ca        1 JWS     -0.089000
     14 N14         0.0320   -0.3500    2.3340 nb        1 JWS     -0.672000
     15 C15        -0.6260   -0.2670    1.1530 ca        1 JWS      0.794900
     16 N16        -2.0870   -0.5790    1.1740 n4        1 JWS     -0.824300
     17 C17         2.0810    0.4400    8.3290 c3        1 JWS      0.101700
     18 HN3         1.8370   -0.0570   -1.9550 hn        1 JWS      0.501467
     19 HN3A        2.9380    0.8950   -1.1050 hn        1 JWS      0.501467
     20 HO8         5.0800   -1.0730    2.6380 ho        1 JWS      0.464000
     21 H9          5.2820   -0.7440    4.8440 ha        1 JWS      0.177000
     22 H10         4.0950   -0.1970    6.9570 ha        1 JWS      0.184000
     23 H13         0.4100    0.4130    4.7680 ha        1 JWS      0.172000
     24 HN16       -2.6180    0.2570    0.8860 hn        1 JWS      0.501467
     25 HN1A       -2.3760   -0.8570    2.1280 hn        1 JWS      0.501467
     26 H17         2.8900    1.2100    8.3390 h1        1 JWS      0.067700
     27 H17A        2.4850   -0.5750    8.5620 h1        1 JWS      0.067700
     28 H17B        1.2610    0.7150    9.0430 h1        1 JWS      0.067700
     29 H33         1.4930    1.5640   -1.6590 hn        1 JWS      0.501467
     30 H163       -2.2840   -1.3510    0.5190 hn        1 JWS      0.501467
@<TRIPOS>BOND
     1    1    2 ar  
     2    1   15 ar  
     3    2    3 1   
     4    2    4 ar  
     5    3   18 1   
     6    3   19 1   
     7    3   29 1   
     8    4    5 ar  
     9    5    6 1   
    10    5   14 ar  
    11    6    7 ar  
    12    6   13 ar  
    13    7    8 1   
    14    7    9 ar  
    15    8   20 1   
    16    9   10 ar  
    17    9   21 1   
    18   10   11 ar  
    19   10   22 1   
    20   11   12 1   
    21   11   13 ar  
    22   12   17 1   
    23   13   23 1   
    24   14   15 ar  
    25   15   16 1   
    26   16   24 1   
    27   16   25 1   
    28   16   30 1   
    29   17   26 1   
    30   17   27 1   
    31   17   28 1   
@<TRIPOS>SUBSTRUCTURE
     1 JWS         1 TEMP              0 ****  ****    0 ROOT
