@<TRIPOS>MOLECULE
JWS
   28    29     1     0     0
SMALL
bcc


@<TRIPOS>ATOM
      1 N1         -0.0410    0.0480   -0.0850 nb        1 JWS     -0.845000
      2 C2          1.1690    0.6910    0.1200 ca        1 JWS      0.918400
      3 N3          1.6550    1.4930   -0.9080 nh        1 JWS     -0.939500
      4 N4          1.9090    0.6370    1.3030 nb        1 JWS     -0.798000
      5 C5          1.3300   -0.0880    2.3010 cp        1 JWS      0.789500
      6 C6          2.0710   -0.1690    3.5910 cp        1 JWS     -0.129500
      7 C7          3.3180   -0.8220    3.6650 ca        1 JWS      0.129100
      8 O8          3.7930   -1.4170    2.5190 oh        1 JWS     -0.484100
      9 C9          4.0160   -0.8740    4.8780 ca        1 JWS     -0.189000
     10 C10         3.4780   -0.2850    6.0210 ca        1 JWS     -0.153000
     11 C11         2.2360    0.3510    5.9460 ca        1 JWS      0.084100
     12 O12         1.6020    0.9660    7.0130 os        1 JWS     -0.325900
     13 C13         1.5250    0.4090    4.7320 ca        1 JWS     -0.086000
     14 N14         0.1330   -0.7410    2.2440 nb        1 JWS     -0.798000
     15 C15        -0.5130   -0.6610    1.0100 ca        1 JWS      0.918400
     16 N16        -1.6890   -1.3830    0.8490 nh        1 JWS     -0.939500
     17 C17         2.2830    0.9090    8.2590 c3        1 JWS      0.113700
     18 HN3         2.6030    1.7810   -0.8540 hn        1 JWS      0.437300
     19 HN3A        1.2640    1.3720   -1.8110 hn        1 JWS      0.437300
     20 HO8         4.6780   -1.7610    2.7110 ho        1 JWS      0.417000
     21 H9          4.9900   -1.3810    4.9300 ha        1 JWS      0.136000
     22 H10         4.0380   -0.3300    6.9650 ha        1 JWS      0.139000
     23 H13         0.5460    0.9090    4.7000 ha        1 JWS      0.163000
     24 HN16       -2.2520   -1.1930    0.0570 hn        1 JWS      0.437300
     25 HN1A       -2.1260   -1.7480    1.6600 hn        1 JWS      0.437300
     26 H17         1.5930    1.4490    8.9570 h1        1 JWS      0.043367
     27 H17A        2.4230   -0.1500    8.5860 h1        1 JWS      0.043367
     28 H17B        3.2680    1.4320    8.1970 h1        1 JWS      0.043367
@<TRIPOS>BOND
     1    1    2 ar  
     2    1   15 ar  
     3    2    3 1   
     4    2    4 ar  
     5    3   18 1   
     6    3   19 1   
     7    4    5 ar  
     8    5    6 1   
     9    5   14 ar  
    10    6    7 ar  
    11    6   13 ar  
    12    7    8 1   
    13    7    9 ar  
    14    8   20 1   
    15    9   10 ar  
    16    9   21 1   
    17   10   11 ar  
    18   10   22 1   
    19   11   12 1   
    20   11   13 ar  
    21   12   17 1   
    22   13   23 1   
    23   14   15 ar  
    24   15   16 1   
    25   16   24 1   
    26   16   25 1   
    27   17   26 1   
    28   17   27 1   
    29   17   28 1   
@<TRIPOS>SUBSTRUCTURE
     1 JWS         1 TEMP              0 ****  ****    0 ROOT
