@<TRIPOS>MOLECULE
JWS
   28    22     1     0     0
SMALL
bcc


@<TRIPOS>ATOM
      1 N1         -1.6330   -0.1210   -3.3380 n1        1 JWS     -0.320000
      2 C2         -1.2570    1.0260   -2.7530 c1        1 JWS      0.200000
      3 N3         -1.5600    2.2680   -3.3690 n2        1 JWS     -0.337000
      4 N4         -0.5690    0.9990   -1.6020 n2        1 JWS     -0.279000
      5 C5         -0.2570   -0.1760   -1.0360 c1        1 JWS      0.156000
      6 C6          0.4430   -0.2040    0.1610 c1        1 JWS     -0.022000
      7 C7          1.8290   -0.1880    0.1540 c1        1 JWS      0.082000
      8 O8          2.5250   -0.1330   -1.0670 o         1 JWS     -0.239000
      9 C9          2.5280   -0.2000    1.3510 c2        1 JWS     -0.189000
     10 C10         1.8420   -0.2270    2.5550 c1        1 JWS     -0.154000
     11 C11         0.4560   -0.2430    2.5620 c1        1 JWS      0.039000
     12 O12        -0.2400   -0.2890    3.7810 os        1 JWS     -0.208000
     13 C13        -0.2440   -0.2320    1.3650 c1        1 JWS     -0.085000
     14 N14        -0.6320   -1.3230   -1.6200 n1        1 JWS     -0.265000
     15 C15        -1.3200   -1.2960   -2.7710 c1        1 JWS      0.200000
     16 N16        -1.6900   -2.5100   -3.4050 n3        1 JWS     -0.337000
     17 C17        -0.2830    0.9460    4.4610 c3        1 JWS     -0.076000
     18 HN3        -2.0010    2.2860   -4.1700 hn        1 JWS      0.232500
     19 HN3A       -1.3100    3.0500   -2.9680 hn        1 JWS      0.232500
     20 HO8         3.2380   -0.6640   -1.0260 ho        1 JWS      0.216000
     21 H9          3.5040   -0.1880    1.3460 ha        1 JWS      0.136000
     22 H10         2.3340   -0.2350    3.3970 ha        1 JWS      0.139000
     23 H13        -1.2200   -0.2430    1.3700 ha        1 JWS      0.165000
     24 HN16       -2.2530   -2.4960   -4.1260 hn        1 JWS      0.232500
     25 HN1A       -1.3500   -3.3040   -3.1060 hn        1 JWS      0.232500
     26 H17        -0.3300    1.6770    3.8070 h1        1 JWS      0.082333
     27 H17A        0.5250    1.0470    5.0080 h1        1 JWS      0.082333
     28 H17B       -1.0760    0.9740    5.0390 h1        1 JWS      0.082333
@<TRIPOS>BOND
     1    1    2 1   
     2    2    4 1   
     3    3   18 1   
     4    3   19 1   
     5    4    5 1   
     6    6    7 1   
     7    7    9 1   
     8    8   20 1   
     9    9   10 1   
    10    9   21 1   
    11   10   22 1   
    12   11   12 1   
    13   11   13 1   
    14   12   17 1   
    15   13   23 1   
    16   14   15 1   
    17   15   16 1   
    18   16   24 1   
    19   16   25 1   
    20   17   26 1   
    21   17   27 1   
    22   17   28 1   
@<TRIPOS>SUBSTRUCTURE
     1 JWS         1 TEMP              0 ****  ****    0 ROOT
