@<TRIPOS>MOLECULE
JWT
   47    49     1     0     0
SMALL
bcc


@<TRIPOS>ATOM
      1 CAY         0.2500   -0.4570    0.3540 ca        1 JWT     -0.135000
      2 CAZ         1.6030   -0.1220    0.4310 ca        1 JWT     -0.111000
      3 CBA         2.0130    0.9660    1.2020 ca        1 JWT     -0.077000
      4 CAX         1.0670    1.7210    1.9030 ca        1 JWT     -0.111000
      5 CAW        -0.2830    1.3870    1.8360 ca        1 JWT     -0.135000
      6 CAV        -0.6980    0.2920    1.0600 ca        1 JWT     -0.218300
      7 CAU        -2.1580    0.0370    0.8760 c3        1 JWT      0.110300
      8 NAN        -2.6350   -1.2350    1.4350 n         1 JWT     -0.355400
      9 CAO        -2.3510   -1.6370    2.7330 cc        1 JWT      0.359800
     10 NAP        -1.4830   -0.7700    3.5630 n4        1 JWT     -0.800600
     11 CAM        -3.4670   -2.0560    0.6100 c         1 JWT      0.807500
     12 OAL        -3.7160   -1.7560   -0.5600 o         1 JWT     -0.482500
     13 NAD        -4.0140   -3.2440    1.1740 n         1 JWT     -0.453100
     14 CAE        -3.7450   -3.6370    2.4500 cd        1 JWT      0.489700
     15 OAA        -4.2630   -4.7140    2.9370 os        1 JWT     -0.422800
     16 CAF        -2.8410   -2.8190    3.2910 cc        1 JWT     -0.114600
     17 NAG        -2.5180   -3.1780    4.6190 nh        1 JWT     -0.723000
     18 CAB        -1.6080   -4.2970    4.7570 c3        1 JWT      0.136100
     19 SAH        -5.8120   -5.7690    2.6580 sy        1 JWT      1.737800
     20 OAC        -6.5150   -5.0640    3.5840 o         1 JWT     -0.599300
     21 OAQ        -5.8140   -5.4280    1.3330 o         1 JWT     -0.599300
     22 CAI        -5.3710   -7.2230    3.0260 ca        1 JWT     -0.604500
     23 CAJ        -5.5430   -7.7330    4.3420 ca        1 JWT      0.053500
     24 CAK        -5.2200   -9.0310    4.6700 ca        1 JWT     -0.197000
     25 CAT        -4.6990   -9.8950    3.6740 ca        1 JWT      0.300900
     26 CAS        -4.5150   -9.4150    2.3520 ca        1 JWT     -0.197000
     27 CAR        -4.8460   -8.1120    2.0500 ca        1 JWT      0.053500
     28 FAM        -4.3830  -11.1570    3.9790 f         1 JWT     -0.063900
     29 HAW        -1.0260    2.0340    2.3300 ha        1 JWT      0.146000
     30 HAX         1.3900    2.6000    2.4870 ha        1 JWT      0.173000
     31 HBA         3.0800    1.2460    1.2410 ha        1 JWT      0.177000
     32 HAZ         2.3460   -0.7050   -0.1410 ha        1 JWT      0.173000
     33 HAY        -0.0700   -1.2900   -0.2920 ha        1 JWT      0.146000
     34 HAU1       -2.3870    0.0290   -0.2370 h1        1 JWT      0.120200
     35 HAU2       -2.7740    0.8620    1.3440 h1        1 JWT      0.120200
     36 HAP1       -0.5260   -0.7530    3.1610 hn        1 JWT      0.498133
     37 HAP2       -1.4550   -1.1330    4.5320 hn        1 JWT      0.498133
     38 HAD        -4.6360   -3.7770    0.5700 hn        1 JWT      0.424500
     39 HAB1       -0.6390   -4.0620    4.2450 h1        1 JWT      0.067700
     40 HAB2       -2.0180   -5.2520    4.3320 h1        1 JWT      0.067700
     41 HAB3       -1.4160   -4.4390    5.8560 h1        1 JWT      0.067700
     42 HAJ        -5.9650   -7.0670    5.1220 ha        1 JWT      0.174000
     43 HAR        -4.7150   -7.7490    1.0120 ha        1 JWT      0.174000
     44 HAK        -5.3700   -9.4150    5.6950 ha        1 JWT      0.198500
     45 HAS        -4.1180  -10.0970    1.5790 ha        1 JWT      0.198500
     46 HAP3       -1.8430    0.1970    3.5650 hn        1 JWT      0.498133
     47 HAG1       -3.3620   -3.3250    5.1520 hn        1 JWT      0.425800
@<TRIPOS>BOND
     1    1    2 ar  
     2    1    6 ar  
     3    1   33 1   
     4    2    3 ar  
     5    2   32 1   
     6    3    4 ar  
     7    3   31 1   
     8    4    5 ar  
     9    4   30 1   
    10    5    6 ar  
    11    5   29 1   
    12    6    7 1   
    13    7    8 1   
    14    7   34 1   
    15    7   35 1   
    16    8    9 2   
    17    8   11 1   
    18    9   10 1   
    19    9   16 1   
    20   10   36 1   
    21   10   37 1   
    22   10   46 1   
    23   11   12 2   
    24   11   13 1   
    25   13   14 1   
    26   13   38 1   
    27   14   15 1   
    28   14   16 2   
    29   15   19 1   
    30   16   17 1   
    31   17   18 1   
    32   17   47 1   
    33   18   39 1   
    34   18   40 1   
    35   18   41 1   
    36   19   20 2   
    37   19   21 2   
    38   19   22 1   
    39   22   23 ar  
    40   22   27 ar  
    41   23   24 ar  
    42   23   42 1   
    43   24   25 ar  
    44   24   44 1   
    45   25   26 ar  
    46   25   28 1   
    47   26   27 ar  
    48   26   45 1   
    49   27   43 1   
@<TRIPOS>SUBSTRUCTURE
     1 JWT         1 TEMP              0 ****  ****    0 ROOT
