@<TRIPOS>MOLECULE
JWT
   47    49     1     0     0
SMALL
bcc


@<TRIPOS>ATOM
      1 CAY         0.2300   -0.4170    0.3790 ca        1 JWT     -0.135000
      2 CAZ         1.5820   -0.0780    0.4550 ca        1 JWT     -0.110500
      3 CBA         1.9910    1.0010    1.2380 ca        1 JWT     -0.077000
      4 CAX         1.0460    1.7430    1.9550 ca        1 JWT     -0.110500
      5 CAW        -0.3030    1.4040    1.8890 ca        1 JWT     -0.135000
      6 CAV        -0.7180    0.3190    1.1000 ca        1 JWT     -0.218300
      7 CAU        -2.1780    0.0600    0.9190 c3        1 JWT      0.110300
      8 NAN        -2.6470   -1.2220    1.4630 n         1 JWT     -0.355400
      9 CAO        -2.3560   -1.6390    2.7540 cc        1 JWT      0.359800
     10 NAP        -1.4880   -0.7810    3.5920 nz        1 JWT     -0.800600
     11 CAM        -3.4790   -2.0350    0.6310 c         1 JWT      0.807500
     12 OAL        -3.7350   -1.7210   -0.5340 o         1 JWT     -0.482500
     13 NAD        -4.0190   -3.2330    1.1810 ns        1 JWT     -0.453100
     14 CAE        -3.7430   -3.6410    2.4500 cd        1 JWT      0.489700
     15 OAA        -4.2550   -4.7270    2.9260 os        1 JWT     -0.422800
     16 CAF        -2.8390   -2.8320    3.2980 cc        1 JWT     -0.114600
     17 NAG        -2.5090   -3.2070    4.6200 nu        1 JWT     -0.723000
     18 CAB        -1.5930   -4.3240    4.7390 c3        1 JWT      0.136100
     19 SAH        -5.8020   -5.7830    2.6400 sy        1 JWT      1.737800
     20 OAC        -6.5030   -5.0920    3.5770 o         1 JWT     -0.598800
     21 OAQ        -5.8110   -5.4260    1.3190 o         1 JWT     -0.598800
     22 CAI        -5.3550   -7.2410    2.9870 ca        1 JWT     -0.604500
     23 CAJ        -5.5200   -7.7670    4.2970 ca        1 JWT      0.053500
     24 CAK        -5.1910   -9.0690    4.6070 ca        1 JWT     -0.197000
     25 CAT        -4.6710   -9.9180    3.5980 ca        1 JWT      0.300900
     26 CAS        -4.4940   -9.4210    2.2810 ca        1 JWT     -0.197000
     27 CAR        -4.8310   -8.1150    1.9980 ca        1 JWT      0.053500
     28 FAM        -4.3500  -11.1830    3.8850 f         1 JWT     -0.063900
     29 HAW        -1.0470    2.0410    2.3960 ha        1 JWT      0.146000
     30 HAX         1.3670    2.6150    2.5490 ha        1 JWT      0.173000
     31 HBA         3.0570    1.2850    1.2770 ha        1 JWT      0.177000
     32 HAZ         2.3240   -0.6490   -0.1290 ha        1 JWT      0.173000
     33 HAY        -0.0900   -1.2420   -0.2770 ha        1 JWT      0.146000
     34 HAU1       -2.7950    0.8760    1.4010 h1        1 JWT      0.120200
     35 HAU2       -2.4120    0.0660   -0.1920 h1        1 JWT      0.120200
     36 HAP1       -0.5330   -0.7550    3.1860 hn        1 JWT      0.498133
     37 HAP2       -1.8510    0.1850    3.6090 hn        1 JWT      0.498133
     38 HAD        -4.6410   -3.7600    0.5730 hn        1 JWT      0.424500
     39 HAB1       -2.0030   -5.2740    4.3030 h1        1 JWT      0.067700
     40 HAB2       -0.6280   -4.0790    4.2250 h1        1 JWT      0.067700
     41 HAB3       -1.3960   -4.4800    5.8350 h1        1 JWT      0.067700
     42 HAJ        -5.9400   -7.1130    5.0870 ha        1 JWT      0.174000
     43 HAR        -4.7060   -7.7380    0.9640 ha        1 JWT      0.174000
     44 HAK        -5.3350   -9.4660    5.6280 ha        1 JWT      0.198500
     45 HAS        -4.0980  -10.0910    1.4980 ha        1 JWT      0.198500
     46 HAP3       -1.4530   -1.1570    4.5560 hn        1 JWT      0.498133
     47 HAG1       -3.3490   -3.3640    5.1550 hn        1 JWT      0.425800
@<TRIPOS>BOND
     1    1    2 ar  
     2    1    6 ar  
     3    1   33 1   
     4    2    3 ar  
     5    2   32 1   
     6    3    4 ar  
     7    3   31 1   
     8    4    5 ar  
     9    4   30 1   
    10    5    6 ar  
    11    5   29 1   
    12    6    7 1   
    13    7    8 1   
    14    7   34 1   
    15    7   35 1   
    16    8    9 2   
    17    8   11 1   
    18    9   10 1   
    19    9   16 1   
    20   10   36 1   
    21   10   37 1   
    22   10   46 1   
    23   11   12 2   
    24   11   13 1   
    25   13   14 1   
    26   13   38 1   
    27   14   15 1   
    28   14   16 2   
    29   15   19 1   
    30   16   17 1   
    31   17   18 1   
    32   17   47 1   
    33   18   39 1   
    34   18   40 1   
    35   18   41 1   
    36   19   20 2   
    37   19   21 2   
    38   19   22 1   
    39   22   23 ar  
    40   22   27 ar  
    41   23   24 ar  
    42   23   42 1   
    43   24   25 ar  
    44   24   44 1   
    45   25   26 ar  
    46   25   28 1   
    47   26   27 ar  
    48   26   45 1   
    49   27   43 1   
@<TRIPOS>SUBSTRUCTURE
     1 JWT         1 TEMP              0 ****  ****    0 ROOT
