@<TRIPOS>MOLECULE
JWT
   45    41     1     0     0
SMALL
bcc


@<TRIPOS>ATOM
      1 CAY         0.4100    4.3480   -2.3640 c1        1 JWT     -0.100000
      2 CAZ         0.3880    5.1860   -3.4600 c1        1 JWT     -0.125000
      3 CBA         1.5410    5.3840   -4.2070 c1        1 JWT     -0.125000
      4 CAX         2.7170    4.7390   -3.8540 c1        1 JWT     -0.125000
      5 CAW         2.7410    3.8890   -2.7430 c1        1 JWT     -0.125000
      6 CAV         1.5970    3.6940   -2.0040 c1        1 JWT     -0.129000
      7 CAU         1.6470    2.8540   -0.7090 c3        1 JWT      0.004000
      8 NAN         1.0690    1.5480   -0.9580 n         1 JWT     -0.279000
      9 CAO         0.5540    0.7710    0.1360 c2        1 JWT      0.283000
     10 NAP         0.5870    1.3050    1.4720 nh        1 JWT     -0.354000
     11 CAM         1.0730    0.9910   -2.3200 c2        1 JWT      0.411000
     12 OAL         1.5000    1.6760   -3.2710 o         1 JWT     -0.365000
     13 NAD         0.5950   -0.3880   -2.5600 n         1 JWT     -0.355000
     14 CAE         0.0970   -1.1780   -1.4670 c2        1 JWT      0.382000
     15 OAA        -0.3050   -2.3180   -1.6670 o         1 JWT     -0.369000
     16 CAF         0.0960   -0.6220   -0.0960 c2        1 JWT     -0.256000
     17 NAG        -0.2220   -1.4750    1.0300 nh        1 JWT     -0.744000
     18 CAB         0.7790   -2.3340    1.5820 c3        1 JWT     -0.057000
     19 SAH        -1.7870   -1.5160    1.6360 s4        1 JWT      2.060800
     20 OAC        -2.0300   -0.4170    2.5300 o         1 JWT     -0.544900
     21 OAQ        -2.7560   -1.2550    0.6040 o         1 JWT     -0.544900
     22 CAI        -2.0970   -3.0880    2.4350 c1        1 JWT     -0.850000
     23 CAJ        -2.7940   -4.0910    1.7570 c2        1 JWT      0.020000
     24 CAK        -3.0660   -5.3020    2.3910 c1        1 JWT     -0.196000
     25 CAT        -2.6400   -5.5140    3.7080 c1        1 JWT      0.157000
     26 CAS        -1.9460   -4.5170    4.3830 c1        1 JWT     -0.201000
     27 CAR        -1.6730   -3.3000    3.7470 c1        1 JWT      0.005000
     28 FAM        -2.9270   -6.6760    4.3310 f         1 JWT     -0.096000
     29 HAW         3.5710    3.4320   -2.4930 ha        1 JWT      0.137000
     30 HAX         3.5120    4.8760   -4.3700 ha        1 JWT      0.137000
     31 HBA         1.5250    5.9660   -4.9670 ha        1 JWT      0.137000
     32 HAZ        -0.4560    5.6500   -3.7140 ha        1 JWT      0.137000
     33 HAY        -0.3920    4.2120   -1.8460 ha        1 JWT      0.149000
     34 HAU1        2.5750    2.7500   -0.4200 h1        1 JWT      0.128000
     35 HAU2        1.1380    3.3060   -0.0100 h1        1 JWT      0.128000
     36 HAP1        0.5240    0.7340    2.2010 hn        1 JWT      0.241500
     37 HAP2        0.7090    2.2230    1.6060 hn        1 JWT      0.241500
     38 HAD         0.5980   -0.7320   -3.4090 hn        1 JWT      0.272000
     39 HAB1        0.4500   -3.2530    1.5890 h1        1 JWT      0.083000
     40 HAB2        1.6080   -2.2810    1.0280 h1        1 JWT      0.083000
     41 HAB3        0.9790   -2.0560    2.4900 h1        1 JWT      0.083000
     42 HAJ        -3.0950   -3.9420    0.8190 ha        1 JWT      0.180000
     43 HAR        -1.1940   -2.6100    4.2140 ha        1 JWT      0.165000
     44 HAK        -3.5540   -6.0020    1.9170 ha        1 JWT      0.161000
     45 HAS        -1.6470   -4.6670    5.3040 ha        1 JWT      0.157000
@<TRIPOS>BOND
     1    1    6 1   
     2    1   33 1   
     3    2    3 1   
     4    2   32 1   
     5    3   31 1   
     6    4    5 1   
     7    4   30 1   
     8    5   29 1   
     9    6    7 1   
    10    7    8 1   
    11    7   34 1   
    12    7   35 1   
    13    8    9 1   
    14    8   11 1   
    15    9   10 1   
    16    9   16 1   
    17   10   36 1   
    18   10   37 1   
    19   11   12 1   
    20   11   13 1   
    21   13   14 1   
    22   13   38 1   
    23   14   15 1   
    24   14   16 1   
    25   16   17 1   
    26   17   18 1   
    27   17   19 1   
    28   18   39 1   
    29   18   40 1   
    30   18   41 1   
    31   19   20 1   
    32   19   21 1   
    33   22   23 1   
    34   22   27 1   
    35   23   24 1   
    36   23   42 1   
    37   24   44 1   
    38   25   26 1   
    39   25   28 1   
    40   26   45 1   
    41   27   43 1   
@<TRIPOS>SUBSTRUCTURE
     1 JWT         1 TEMP              0 ****  ****    0 ROOT
