@<TRIPOS>MOLECULE
JWT
   45    47     1     0     0
SMALL
bcc


@<TRIPOS>ATOM
      1 CAY        -5.1610    0.0520    0.9120 ca        1 JWT     -0.119000
      2 CAZ        -6.0280   -0.7600    1.6420 ca        1 JWT     -0.127000
      3 CBA        -6.4270   -1.9950    1.1310 ca        1 JWT     -0.117000
      4 CAX        -5.9600   -2.4180   -0.1140 ca        1 JWT     -0.127000
      5 CAW        -5.0880   -1.6120   -0.8440 ca        1 JWT     -0.119000
      6 CAV        -4.6830   -0.3750   -0.3310 ca        1 JWT     -0.131300
      7 CAU        -3.7880    0.5180   -1.1400 c3        1 JWT      0.128300
      8 NAN        -2.5370    0.8770   -0.4920 n         1 JWT     -0.390000
      9 CAO        -1.4910   -0.0540   -0.3420 cc        1 JWT      0.384600
     10 NAP        -1.6930   -1.3630   -0.7150 nh        1 JWT     -0.864600
     11 CAM        -2.3840    2.2160   -0.0370 c         1 JWT      0.821500
     12 OAL        -3.3570    3.0020   -0.0610 o         1 JWT     -0.642500
     13 NAD        -1.1420    2.6340    0.4320 n         1 JWT     -0.577500
     14 CAE        -0.0230    1.7870    0.5030 c         1 JWT      0.744700
     15 OAA         1.0540    2.2810    0.8880 o         1 JWT     -0.645500
     16 CAF        -0.2300    0.3830    0.1330 cd        1 JWT     -0.204200
     17 NAG         0.8360   -0.5140    0.3080 nh        1 JWT     -0.645300
     18 CAB         1.0770   -0.9740    1.6460 c3        1 JWT      0.219100
     19 SAH         1.8060   -0.8720   -0.9670 sy        1 JWT      1.504200
     20 OAC         1.6340   -2.2470   -1.2640 o         1 JWT     -0.656300
     21 OAQ         1.5780   -0.0050   -2.0500 o         1 JWT     -0.656300
     22 CAI         3.3580   -0.6400   -0.3600 ca        1 JWT     -0.405500
     23 CAJ         4.2750   -1.7000   -0.3370 ca        1 JWT      0.012000
     24 CAK         5.5800   -1.5180    0.0980 ca        1 JWT     -0.198500
     25 CAT         5.9890   -0.2380    0.5260 ca        1 JWT      0.190900
     26 CAS         5.0810    0.8370    0.5150 ca        1 JWT     -0.198500
     27 CAR         3.7800    0.6240    0.0740 ca        1 JWT      0.012000
     28 FAM         7.2570   -0.0470    0.9510 f         1 JWT     -0.130900
     29 HAW        -4.7360   -1.9450   -1.8330 ha        1 JWT      0.141500
     30 HAX        -6.2820   -3.3880   -0.5220 ha        1 JWT      0.139000
     31 HBA        -7.1140   -2.6340    1.7070 ha        1 JWT      0.138000
     32 HAZ        -6.4010   -0.4210    2.6200 ha        1 JWT      0.139000
     33 HAY        -4.8570    1.0370    1.3020 ha        1 JWT      0.141500
     34 HAU1       -3.5480    0.0350   -2.1330 h1        1 JWT      0.089700
     35 HAU2       -4.3550    1.4750   -1.3570 h1        1 JWT      0.089700
     36 HAP1       -2.6050   -1.7100   -0.8960 hn        1 JWT      0.456800
     37 HAP2       -0.9660   -2.0240   -0.5690 hn        1 JWT      0.456800
     38 HAD        -1.0500    3.5940    0.6910 hn        1 JWT      0.357500
     39 HAB1        1.9550   -1.6730    1.6420 h1        1 JWT      0.042700
     40 HAB2        1.2960   -0.1100    2.3300 h1        1 JWT      0.042700
     41 HAB3        0.1780   -1.5220    2.0380 h1        1 JWT      0.042700
     42 HAJ         3.9480   -2.7010   -0.6780 ha        1 JWT      0.172000
     43 HAR         3.0640    1.4700    0.0770 ha        1 JWT      0.172000
     44 HAK         6.2960   -2.3520    0.1090 ha        1 JWT      0.158000
     45 HAS         5.4050    1.8320    0.8530 ha        1 JWT      0.158000
@<TRIPOS>BOND
     1    1    2 ar  
     2    1    6 ar  
     3    1   33 1   
     4    2    3 ar  
     5    2   32 1   
     6    3    4 ar  
     7    3   31 1   
     8    4    5 ar  
     9    4   30 1   
    10    5    6 ar  
    11    5   29 1   
    12    6    7 1   
    13    7    8 1   
    14    7   34 1   
    15    7   35 1   
    16    8    9 1   
    17    8   11 1   
    18    9   10 1   
    19    9   16 2   
    20   10   36 1   
    21   10   37 1   
    22   11   12 2   
    23   11   13 1   
    24   13   14 1   
    25   13   38 1   
    26   14   15 2   
    27   14   16 1   
    28   16   17 1   
    29   17   18 1   
    30   17   19 1   
    31   18   39 1   
    32   18   40 1   
    33   18   41 1   
    34   19   20 2   
    35   19   21 2   
    36   19   22 1   
    37   22   23 ar  
    38   22   27 ar  
    39   23   24 ar  
    40   23   42 1   
    41   24   25 ar  
    42   24   44 1   
    43   25   26 ar  
    44   25   28 1   
    45   26   27 ar  
    46   26   45 1   
    47   27   43 1   
@<TRIPOS>SUBSTRUCTURE
     1 JWT         1 TEMP              0 ****  ****    0 ROOT
