@<TRIPOS>MOLECULE
JWT
   47    49     1     0     0
SMALL
bcc


@<TRIPOS>ATOM
      1 CAY         0.2850   -0.4700    0.3820 ca        1 JWT     -0.135000
      2 CAZ         1.6350   -0.1300    0.4830 ca        1 JWT     -0.110500
      3 CBA         2.0250    0.9680    1.2510 ca        1 JWT     -0.077000
      4 CAX         1.0630    1.7270    1.9250 ca        1 JWT     -0.110500
      5 CAW        -0.2840    1.3870    1.8330 ca        1 JWT     -0.135000
      6 CAV        -0.6790    0.2830    1.0600 ca        1 JWT     -0.218300
      7 CAU        -2.1350    0.0210    0.8490 c3        1 JWT      0.110300
      8 NAN        -2.6200   -1.2470    1.4110 n         1 JWT     -0.355400
      9 CAO        -2.3610   -1.6340    2.7190 cc        1 JWT      0.359800
     10 NAP        -1.5140   -0.7560    3.5580 n4        1 JWT     -0.800600
     11 CAM        -3.4310   -2.0790    0.5780 c         1 JWT      0.807500
     12 OAL        -3.6570   -1.7930   -0.6010 o         1 JWT     -0.482500
     13 NAD        -3.9860   -3.2630    1.1420 n         1 JWT     -0.453100
     14 CAE        -3.7420   -3.6420    2.4280 cd        1 JWT      0.489700
     15 OAA        -4.2670   -4.7160    2.9160 os        1 JWT     -0.422800
     16 CAF        -2.8590   -2.8120    3.2790 cc        1 JWT     -0.114600
     17 NAG        -2.5630   -3.1560    4.6170 nh        1 JWT     -0.723000
     18 CAB        -1.6510   -4.2700    4.7860 c3        1 JWT      0.136100
     19 SAH        -5.8060   -5.7780    2.6160 sy        1 JWT      1.737800
     20 OAC        -6.5300   -5.0660    3.5190 o         1 JWT     -0.599300
     21 OAQ        -5.7820   -5.4520    1.2880 o         1 JWT     -0.599300
     22 CAI        -5.3690   -7.2280    3.0080 ca        1 JWT     -0.604500
     23 CAJ        -5.5660   -7.7230    4.3250 ca        1 JWT      0.053500
     24 CAK        -5.2460   -9.0170    4.6740 ca        1 JWT     -0.197000
     25 CAT        -4.7020   -9.8900    3.6980 ca        1 JWT      0.300900
     26 CAS        -4.4920   -9.4240    2.3750 ca        1 JWT     -0.197000
     27 CAR        -4.8210   -8.1250    2.0530 ca        1 JWT      0.053500
     28 FAM        -4.3890  -11.1480    4.0220 f         1 JWT     -0.063900
     29 HAW        -1.0390    2.0370    2.3050 ha        1 JWT      0.146000
     30 HAX         1.3710    2.6130    2.5060 ha        1 JWT      0.173000
     31 HBA         3.0910    1.2520    1.3100 ha        1 JWT      0.177000
     32 HAZ         2.3910   -0.7160   -0.0680 ha        1 JWT      0.173000
     33 HAY        -0.0190   -1.3110   -0.2620 ha        1 JWT      0.146000
     34 HAU1       -2.7630    0.8490    1.2950 h1        1 JWT      0.120200
     35 HAU2       -2.3410    0.0010   -0.2680 h1        1 JWT      0.120200
     36 HAP1       -1.8770    0.2110    3.5420 hn        1 JWT      0.498133
     37 HAP2       -1.5040   -1.1090    4.5310 hn        1 JWT      0.498133
     38 HAD        -4.5930   -3.8050    0.5320 hn        1 JWT      0.424500
     39 HAB1       -0.6730   -4.0370    4.2920 h1        1 JWT      0.067700
     40 HAB2       -1.4820   -4.3990    5.8900 h1        1 JWT      0.067700
     41 HAB3       -2.0500   -5.2310    4.3620 h1        1 JWT      0.067700
     42 HAJ        -6.0060   -7.0510    5.0890 ha        1 JWT      0.174000
     43 HAR        -4.6700   -7.7720    1.0140 ha        1 JWT      0.174000
     44 HAK        -5.4160   -9.3910    5.7000 ha        1 JWT      0.198500
     45 HAS        -4.0780  -10.1120    1.6170 ha        1 JWT      0.198500
     46 HAP3       -0.5490   -0.7400    3.1760 hn        1 JWT      0.498133
     47 HAG1       -3.4170   -3.3000    5.1350 hn        1 JWT      0.425800
@<TRIPOS>BOND
     1    1    2 ar  
     2    1    6 ar  
     3    1   33 1   
     4    2    3 ar  
     5    2   32 1   
     6    3    4 ar  
     7    3   31 1   
     8    4    5 ar  
     9    4   30 1   
    10    5    6 ar  
    11    5   29 1   
    12    6    7 1   
    13    7    8 1   
    14    7   34 1   
    15    7   35 1   
    16    8    9 2   
    17    8   11 1   
    18    9   10 1   
    19    9   16 1   
    20   10   36 1   
    21   10   37 1   
    22   10   46 1   
    23   11   12 2   
    24   11   13 1   
    25   13   14 1   
    26   13   38 1   
    27   14   15 1   
    28   14   16 2   
    29   15   19 1   
    30   16   17 1   
    31   17   18 1   
    32   17   47 1   
    33   18   39 1   
    34   18   40 1   
    35   18   41 1   
    36   19   20 2   
    37   19   21 2   
    38   19   22 1   
    39   22   23 ar  
    40   22   27 ar  
    41   23   24 ar  
    42   23   42 1   
    43   24   25 ar  
    44   24   44 1   
    45   25   26 ar  
    46   25   28 1   
    47   26   27 ar  
    48   26   45 1   
    49   27   43 1   
@<TRIPOS>SUBSTRUCTURE
     1 JWT         1 TEMP              0 ****  ****    0 ROOT
