@<TRIPOS>MOLECULE
JXM
   53    51     1     0     0
SMALL
bcc


@<TRIPOS>ATOM
      1 C1         -2.5390    2.5570    1.4540 c1        1 JXM     -0.239000
      2 C2          2.3080    1.3940    1.9050 c1        1 JXM     -0.170000
      3 C3         -1.9500    1.6310    1.9320 c1        1 JXM     -0.165000
      4 C4          2.5800    0.4060    2.5270 c1        1 JXM     -0.059000
      5 C5         -1.2450    0.5280    2.5020 c3        1 JXM     -0.134000
      6 C6          2.8850   -0.7080    3.2350 c1        1 JXM     -0.035000
      7 C7          1.9810   -0.2290    8.5280 c2        1 JXM     -0.437000
      8 C8          1.3790   -0.7900    7.3990 c2        1 JXM      0.253000
      9 C9          3.3020   -0.6180    8.9180 c2        1 JXM      0.327000
     10 C10         3.3490   -2.0140    6.8550 c2        1 JXM      0.308000
     11 C11         5.0200   -5.0340    5.9930 c3        1 JXM     -0.230000
     12 C12         5.0580   -2.2800    8.5500 c1        1 JXM     -0.128000
     13 C13        -0.5200   -1.0080    5.8490 c3        1 JXM     -0.087500
     14 C14        -0.6420    0.4910    7.8160 c3        1 JXM     -0.087500
     15 C15        -4.8860    0.3730    4.0530 c3        1 JXM      0.002000
     16 C16        -3.5130    0.9100    5.9520 c1        1 JXM     -0.036000
     17 C17         5.2230   -3.5380    6.1900 c3        1 JXM     -0.098000
     18 C18         3.4560   -2.9150    4.5680 c3        1 JXM      0.092000
     19 C19         3.1530   -1.6990    3.8540 c1        1 JXM     -0.121000
     20 C20         6.5010   -3.1040    5.3610 c3        1 JXM      0.399000
     21 N21         2.0940   -1.6650    6.5590 n2        1 JXM     -0.294000
     22 N22         0.0650   -0.5110    7.0660 nh        1 JXM     -0.244000
     23 N23         3.9780   -1.6550    8.1220 n         1 JXM     -0.192000
     24 N24         4.0730   -2.7210    5.8770 nh        1 JXM     -0.246000
     25 O26        -3.7620    0.1500    4.9550 os        1 JXM     -0.146000
     26 O27        -4.8840    1.7440    3.8150 oh        1 JXM     -0.333000
     27 F28         6.4680   -3.4040    4.0220 f         1 JXM     -0.170333
     28 F29         6.7950   -1.7680    5.4120 f         1 JXM     -0.170333
     29 F30         7.6380   -3.7230    5.8190 f         1 JXM     -0.170333
     30 H1         -4.6780   -0.2640    3.1580 h2        1 JXM      0.122000
     31 H2          2.0730    2.2690    1.3540 ha        1 JXM      0.232000
     32 H3         -3.0490    3.3810    1.0230 ha        1 JXM      0.226000
     33 H4         -1.3410   -0.3790    1.8500 hc        1 JXM      0.104333
     34 H5         -0.1520    0.7700    2.6060 hc        1 JXM      0.104333
     35 H19        -1.6530    0.2810    3.5190 hc        1 JXM      0.104333
     36 H7          1.4960    0.5170    9.1670 ha        1 JXM      0.173000
     37 H111        4.1520   -5.3910    6.5980 hc        1 JXM      0.094333
     38 H112        4.8480   -5.2980    4.9220 hc        1 JXM      0.094333
     39 H121        5.9430   -5.5590    6.3430 hc        1 JXM      0.094333
     40 H122        5.4740   -1.9530    9.5240 ha        1 JXM      0.115000
     41 H17         5.5250   -3.3380    7.3150 h1        1 JXM      0.263000
     42 H132        0.0350   -0.6250    4.9490 h1        1 JXM      0.095167
     43 H151       -1.5930   -0.6740    5.7800 h1        1 JXM      0.095167
     44 H152       -5.8460    0.1210    4.5700 h2        1 JXM      0.122000
     45 H141       -1.6710    0.6410    7.3810 h1        1 JXM      0.095167
     46 H142       -0.7410    0.1630    8.8860 h1        1 JXM      0.095167
     47 H161       -0.0920    1.4710    7.7930 h1        1 JXM      0.095167
     48 H162       -4.1690    1.7870    6.1460 ha        1 JXM      0.044000
     49 H181        2.5010   -3.5170    4.6780 h1        1 JXM      0.122500
     50 H182        4.1790   -3.5180    3.9360 h1        1 JXM      0.122500
     51 H27        -4.1900    1.9430    3.1670 ho        1 JXM      0.229000
     52 O25         3.9340   -0.1900    9.8970 o         1 JXM     -0.330000
     53 H131       -0.4870   -2.1300    5.8390 h1        1 JXM      0.095167
@<TRIPOS>BOND
     1    1    3 1   
     2    1   32 1   
     3    2    4 1   
     4    2   31 1   
     5    3    5 1   
     6    4    6 1   
     7    5   33 1   
     8    5   34 1   
     9    5   35 1   
    10    6   19 1   
    11    7    8 1   
    12    7    9 1   
    13    7   36 1   
    14    8   21 1   
    15    8   22 1   
    16    9   23 1   
    17    9   52 1   
    18   10   21 1   
    19   10   23 1   
    20   10   24 1   
    21   11   17 1   
    22   11   37 1   
    23   11   38 1   
    24   11   39 1   
    25   12   23 1   
    26   12   40 1   
    27   13   22 1   
    28   13   42 1   
    29   13   43 1   
    30   13   53 1   
    31   14   22 1   
    32   14   45 1   
    33   14   46 1   
    34   14   47 1   
    35   15   25 1   
    36   15   26 1   
    37   15   30 1   
    38   15   44 1   
    39   16   25 1   
    40   16   48 1   
    41   17   20 1   
    42   17   24 1   
    43   17   41 1   
    44   18   19 1   
    45   18   24 1   
    46   18   49 1   
    47   18   50 1   
    48   20   27 1   
    49   20   28 1   
    50   20   29 1   
    51   26   51 1   
@<TRIPOS>SUBSTRUCTURE
     1 JXM         1 TEMP              0 ****  ****    0 ROOT
