@<TRIPOS>MOLECULE
JXM
   53    51     1     0     0
SMALL
bcc


@<TRIPOS>ATOM
      1 C1         -0.6920    0.1650    1.0160 c1        1 JXM     -0.078000
      2 C2          3.7060   -0.6220    0.7550 c1        1 JXM     -0.184000
      3 C3         -1.2740    0.1410    2.2270 c1        1 JXM     -0.236000
      4 C4          3.9690    0.1710    1.6150 c1        1 JXM     -0.146000
      5 C5         -1.8920   -0.0180    3.2660 c1        1 JXM     -0.078000
      6 C6          4.2940    1.1210    2.5880 c2        1 JXM     -0.163000
      7 C7          0.9510   -0.8610    8.9040 c2        1 JXM     -0.343000
      8 C8          0.4330   -1.3890    7.7410 c2        1 JXM      0.175000
      9 C9          2.2490   -0.1940    8.9420 c2        1 JXM      0.358000
     10 C10         2.3430   -0.7020    6.5330 c2        1 JXM      0.165000
     11 C11         4.5530   -2.6080    5.8580 c3        1 JXM     -0.228000
     12 C12         4.0290    0.7400    7.6380 c1        1 JXM     -0.042000
     13 C13        -1.1640   -2.8150    6.5280 c3        1 JXM     -0.104000
     14 C14        -1.8870   -1.5430    8.4780 c3        1 JXM     -0.064000
     15 C15        -3.7620   -0.9630    5.7480 c1        1 JXM     -0.082000
     16 C16        -2.7050   -0.4530    7.7760 c3        1 JXM     -0.064000
     17 C17         3.6590   -1.9120    4.8360 c3        1 JXM      0.002000
     18 C18         2.6220    0.2700    4.3070 c3        1 JXM     -0.004000
     19 C19         3.7170    1.1820    3.8090 c2        1 JXM      0.053000
     20 C20         2.6210   -3.0020    4.3100 c3        1 JXM      0.372000
     21 N21         1.1750   -1.3090    6.5340 n2        1 JXM     -0.217000
     22 N22        -0.7830   -2.1080    7.7300 nh        1 JXM     -0.229000
     23 N23         2.9480   -0.0220    7.6730 n         1 JXM     -0.184000
     24 N24         3.1130   -0.6650    5.3070 nh        1 JXM     -0.267000
     25 O26        -3.7860   -1.0980    7.0490 os        1 JXM     -0.175000
     26 O27         4.0410    2.1290    4.7480 oh        1 JXM     -0.251000
     27 F28         2.0680   -3.8020    5.2740 f         1 JXM     -0.166000
     28 F29         1.5580   -2.5040    3.6060 f         1 JXM     -0.166000
     29 F30         3.2210   -3.8830    3.4420 f         1 JXM     -0.166000
     30 H1          1.2740   -1.1000    1.4220 ha        1 JXM      0.009000
     31 H2          3.4690   -1.3250   -0.0040 ha        1 JXM      0.232000
     32 H3          0.0520    0.9030    0.7090 ha        1 JXM      0.181500
     33 H4          0.7600   -1.5480    1.4090 ha        1 JXM      0.009000
     34 H5          5.0650    1.8580    2.2970 ha        1 JXM      0.148000
     35 H19        -2.4520   -0.1910    4.1640 ha        1 JXM      0.181500
     36 H7          0.4560   -0.9360    9.8820 ha        1 JXM      0.175000
     37 H111        3.9740   -2.9030    6.7660 hc        1 JXM      0.104333
     38 H112        4.9750   -3.5310    5.3880 hc        1 JXM      0.104333
     39 H121        5.3920   -1.9370    6.1620 hc        1 JXM      0.104333
     40 H122        4.5480    0.8960    6.6710 ha        1 JXM      0.083000
     41 H17         4.2750   -1.6510    3.9190 h1        1 JXM      0.145000
     42 H132       -1.5560   -2.1210    5.7330 h1        1 JXM      0.095667
     43 H151       -1.9730   -3.5450    6.8020 h1        1 JXM      0.095667
     44 H152       -4.6540   -1.4980    5.3320 ha        1 JXM      0.054000
     45 H141       -2.0950    0.1780    7.0800 h1        1 JXM      0.119000
     46 H142       -2.5790   -2.3980    8.7320 h1        1 JXM      0.119000
     47 H161       -1.5050   -1.1090    9.4440 h1        1 JXM      0.119000
     48 H162       -3.2280    0.1850    8.5360 h1        1 JXM      0.119000
     49 H181        1.8140    0.9180    4.7560 h1        1 JXM      0.125500
     50 H182        2.1850   -0.2750    3.4180 h1        1 JXM      0.125500
     51 H27         4.7470    2.6930    4.3990 ho        1 JXM      0.225000
     52 O25         2.7590    0.2170    9.9880 o         1 JXM     -0.255000
     53 H131       -0.2880   -3.3870    6.1210 h1        1 JXM      0.095667
@<TRIPOS>BOND
     1    1    3 1   
     2    1   32 1   
     3    2    4 1   
     4    2   31 1   
     5    3    5 1   
     6    4    6 1   
     7    5   35 1   
     8    6   19 1   
     9    6   34 1   
    10    7    8 1   
    11    7    9 1   
    12    7   36 1   
    13    8   21 1   
    14    8   22 1   
    15    9   23 1   
    16    9   52 1   
    17   10   21 1   
    18   10   23 1   
    19   10   24 1   
    20   11   17 1   
    21   11   37 1   
    22   11   38 1   
    23   11   39 1   
    24   12   23 1   
    25   12   40 1   
    26   13   22 1   
    27   13   42 1   
    28   13   43 1   
    29   13   53 1   
    30   14   16 1   
    31   14   22 1   
    32   14   46 1   
    33   14   47 1   
    34   15   25 1   
    35   15   44 1   
    36   16   25 1   
    37   16   45 1   
    38   16   48 1   
    39   17   20 1   
    40   17   24 1   
    41   17   41 1   
    42   18   19 1   
    43   18   24 1   
    44   18   49 1   
    45   18   50 1   
    46   19   26 1   
    47   20   27 1   
    48   20   28 1   
    49   20   29 1   
    50   26   51 1   
    51   30   33 1   
@<TRIPOS>SUBSTRUCTURE
     1 JXM         1 TEMP              0 ****  ****    0 ROOT
