@<TRIPOS>MOLECULE
JY
   68    66     1     0     0
SMALL
bcc


@<TRIPOS>ATOM
      1 O2         -3.9220    5.0480   -2.8260 oh        1 JY      -0.328000
      2 C1         -6.6480    3.0160   -1.2160 c3        1 JY      -0.119000
      3 C2         -5.7880    4.0450   -2.1300 c3        1 JY      -0.189000
      4 C3         -4.5580    4.0930   -1.8740 c3        1 JY       0.034000
      5 C4         -3.7360    2.6110   -1.9850 c3        1 JY      -0.120000
      6 C5         -4.3990    1.6040   -1.2590 c2        1 JY      -0.072000
      7 C6         -3.6920    0.5690   -0.6300 c1        1 JY      -0.119000
      8 C7         -2.1060    0.5140   -0.7260 c1        1 JY      -0.150000
      9 C8         -1.3770   -0.2740    0.1870 c1        1 JY      -0.067000
     10 C9         -2.2120   -1.1760    1.4020 c2        1 JY      -0.128000
     11 C10        -6.0500    1.6920   -1.1760 c2        1 JY      -0.072000
     12 C11        -1.4280   -2.1270    1.8130 c3        1 JY      -0.152000
     13 C12        -0.2630   -1.6820    2.1110 c3        1 JY      -0.146000
     14 C13         0.3330   -0.8520    0.9360 c3        1 JY      -0.039000
     15 C14        -0.4120    0.0350    0.5120 c3        1 JY      -0.081000
     16 C15         0.3130    0.9190   -0.2090 c3        1 JY      -0.152000
     17 C16         1.6050    1.0780    0.5510 c3        1 JY      -0.158000
     18 C17         1.7490   -0.1250    1.1850 c3        1 JY      -0.095000
     19 C18         0.5480   -1.8660   -0.2560 c3        1 JY      -0.201000
     20 C19        -6.8030    0.5900   -1.0740 c1        1 JY      -0.216000
     21 C20         2.9000   -0.9330    0.5610 c3        1 JY      -0.091000
     22 C21         2.9750   -2.2930    1.2100 c3        1 JY      -0.212000
     23 C22         4.2080   -0.1940    0.7780 c3        1 JY      -0.128000
     24 C23         6.6980   -2.2830   -1.1850 c1        1 JY      -0.089000
     25 C24         7.4940   -2.8060   -0.1560 c1        1 JY      -0.217000
     26 C25         7.2210   -2.4780    1.1760 c1        1 JY       0.080000
     27 C26         6.1590   -1.6310    1.4780 c1        1 JY      -0.157000
     28 C27         5.3630   -1.1070    0.4500 c2        1 JY      -0.034000
     29 C28         5.6340   -1.4330   -0.8790 c2        1 JY      -0.165000
     30 O1          7.9060   -3.1830    2.2480 oh        1 JY      -0.254000
     31 HO21       -4.0690    5.8630   -2.5610 ho        1 JY       0.198000
     32 H11        -6.8150    3.4120   -0.3100 hc        1 JY       0.088500
     33 H12        -7.5490    2.9380   -1.5450 hc        1 JY       0.088500
     34 H21        -6.1600    4.9370   -2.0170 hc        1 JY       0.088000
     35 H22        -5.8940    3.7880   -3.0500 hc        1 JY       0.088000
     36 H31        -4.4460    4.4380   -0.9760 h1        1 JY       0.076000
     37 H41        -2.7360    2.5750   -1.8090 hc        1 JY       0.104000
     38 H42        -3.7470    2.3930   -2.9370 hc        1 JY       0.104000
     39 H61        -4.1980   -0.1520   -0.1060 ha        1 JY       0.125000
     40 H71        -1.6250    1.0410   -1.4330 ha        1 JY       0.129000
     41 H91        -2.5030   -0.5350    2.0900 ha        1 JY       0.088000
     42 H92        -3.1060   -1.5720    1.0990 ha        1 JY       0.088000
     43 H111       -1.8320   -2.5500    2.6300 hc        1 JY       0.080000
     44 H112       -1.3430   -2.8080    1.1030 hc        1 JY       0.080000
     45 H121        0.3140   -2.4200    2.2930 hc        1 JY       0.082500
     46 H122       -0.3260   -1.1060    2.9270 hc        1 JY       0.082500
     47 H141       -0.6260    0.5500    1.3250 hc        1 JY       0.095000
     48 H151        0.4910    0.5600   -1.1190 hc        1 JY       0.085500
     49 H152       -0.1640    1.7920   -0.2670 hc        1 JY       0.085500
     50 H161        1.5370    1.7900    1.1850 hc        1 JY       0.081000
     51 H162        2.3590    1.2360   -0.0750 hc        1 JY       0.081000
     52 H171        1.9000    0.0080    2.1350 hc        1 JY       0.087000
     53 H181        1.1290   -1.4370   -0.9610 hc        1 JY       0.077000
     54 H182       -0.3480   -2.1100   -0.6580 hc        1 JY       0.077000
     55 H183        0.9730   -2.6500    0.0680 hc        1 JY       0.077000
     56 H191       -6.3710   -0.3090   -1.0470 DU        1 JY       0.117000
     57 H192       -7.7610    0.6660   -1.0260 ha        1 JY       0.113000
     58 H201        2.7440   -1.0380   -0.3900 hc        1 JY       0.096000
     59 H211        3.9310   -2.5180    1.4070 hc        1 JY       0.076333
     60 H212        2.5900   -2.9830    0.5840 hc        1 JY       0.076333
     61 H213        2.4690   -2.2860    2.0350 hc        1 JY       0.076333
     62 H221        4.2380    0.5700    0.2080 hc        1 JY       0.091500
     63 H222        4.2720    0.0970    1.7310 hc        1 JY       0.091500
     64 H231        6.8840   -2.5080   -2.0940 ha        1 JY       0.132000
     65 H241        8.2480   -3.4050   -0.3700 ha        1 JY       0.133000
     66 H261        5.9620   -1.3910    2.4430 ha        1 JY       0.150000
     67 H281        5.0620   -1.0600   -1.6120 ha        1 JY       0.134000
     68 HO11        8.8010   -3.1890    2.0870 ho        1 JY       0.217000
@<TRIPOS>BOND
     1    1    4 1   
     2    1   31 1   
     3    2    3 1   
     4    2   11 1   
     5    2   32 1   
     6    2   33 1   
     7    3    4 1   
     8    3   34 1   
     9    3   35 1   
    10    4    5 1   
    11    4   36 1   
    12    5    6 1   
    13    5   37 1   
    14    5   38 1   
    15    6    7 1   
    16    6   11 1   
    17    7   39 1   
    18    8    9 1   
    19    8   40 1   
    20    9   15 1   
    21   10   12 1   
    22   10   41 1   
    23   10   42 1   
    24   11   20 1   
    25   12   13 1   
    26   12   43 1   
    27   12   44 1   
    28   13   14 1   
    29   13   45 1   
    30   13   46 1   
    31   14   15 1   
    32   14   18 1   
    33   14   19 1   
    34   15   16 1   
    35   15   47 1   
    36   16   17 1   
    37   16   48 1   
    38   16   49 1   
    39   17   18 1   
    40   17   50 1   
    41   17   51 1   
    42   18   21 1   
    43   18   52 1   
    44   19   53 1   
    45   19   54 1   
    46   19   55 1   
    47   20   57 1   
    48   21   22 1   
    49   21   23 1   
    50   21   58 1   
    51   22   59 1   
    52   22   60 1   
    53   22   61 1   
    54   23   28 1   
    55   23   62 1   
    56   23   63 1   
    57   24   29 1   
    58   24   64 1   
    59   25   26 1   
    60   25   65 1   
    61   26   30 1   
    62   27   28 1   
    63   27   66 1   
    64   28   29 1   
    65   29   67 1   
    66   30   68 1   
@<TRIPOS>SUBSTRUCTURE
     1 JY          1 TEMP              0 ****  ****    0 ROOT
