@<TRIPOS>MOLECULE
JY
   68    71     1     0     0
SMALL
bcc


@<TRIPOS>ATOM
      1 O2         -1.1720    1.5780   -8.3950 oh        1 JY      -0.599800
      2 C1         -2.2380   -1.0140   -5.9620 c3        1 JY      -0.041200
      3 C2         -2.0750   -0.3050   -7.2900 c3        1 JY      -0.072400
      4 C3         -1.3230    1.0070   -7.1010 c3        1 JY       0.144100
      5 C4          0.0400    0.7670   -6.4530 c3        1 JY      -0.075200
      6 C5         -0.0880   -0.0010   -5.1790 ce        1 JY      -0.073200
      7 C6          0.5590    0.4080   -4.0680 cf        1 JY      -0.119000
      8 C7          0.4820   -0.2400   -2.7800 cf        1 JY      -0.148000
      9 C8          1.3690   -0.1090   -1.7790 c2        1 JY      -0.081400
     10 C9          2.6470    0.6620   -1.8600 c3        1 JY      -0.044200
     11 C10        -0.9340   -1.1940   -5.2550 ce        1 JY      -0.077200
     12 C11         2.9120    1.5360   -0.6460 c3        1 JY      -0.073400
     13 C12         2.6600    0.8470    0.6840 c3        1 JY      -0.067400
     14 C13         1.2800    0.2090    0.7080 c3        1 JY      -0.039000
     15 C14         1.2300   -0.8030   -0.4720 c3        1 JY      -0.036500
     16 C15         0.0130   -1.6630   -0.1650 c3        1 JY      -0.073400
     17 C16        -0.0290   -1.7360    1.3630 c3        1 JY      -0.079400
     18 C17         0.9920   -0.7190    1.9110 c3        1 JY      -0.055700
     19 C18         0.1970    1.2650    0.5700 c3        1 JY      -0.083100
     20 C19        -0.5730   -2.3730   -4.7350 c2        1 JY      -0.211000
     21 C20         0.4990   -0.0460    3.1880 c3        1 JY      -0.051700
     22 C21         1.4930    0.9710    3.7160 c3        1 JY      -0.093100
     23 C22         0.2400   -1.1010    4.2670 c3        1 JY      -0.042100
     24 C23        -2.7530    0.1290    6.2340 ca        1 JY      -0.095000
     25 C24        -2.1980    0.3990    7.4810 ca        1 JY      -0.160000
     26 C25        -0.8240    0.1780    7.6690 ca        1 JY       0.125100
     27 C26        -0.0190   -0.3030    6.6280 ca        1 JY      -0.213000
     28 C27        -0.5930   -0.5700    5.3820 ca        1 JY      -0.036300
     29 C28        -1.9620   -0.3510    5.1910 ca        1 JY      -0.165000
     30 HO21       -0.6590    2.3870   -8.2830 ho        1 JY       0.399000
     31 H11        -2.9210   -0.4160   -5.2990 hc        1 JY       0.049700
     32 H12        -2.7270   -2.0100   -6.1350 hc        1 JY       0.049700
     33 H21        -3.0790   -0.0950   -7.7390 hc        1 JY       0.057700
     34 H22        -1.5100   -0.9510   -8.0110 hc        1 JY       0.057700
     35 H31        -1.9290    1.7070   -6.4570 h1        1 JY       0.036700
     36 H41         0.5440    1.7530   -6.2760 hc        1 JY       0.054200
     37 H42         0.6830    0.1850   -7.1680 hc        1 JY       0.054200
     38 H61         1.1770    1.3230   -4.1200 ha        1 JY       0.122000
     39 H71        -0.4020   -0.8910   -2.6360 ha        1 JY       0.132000
     40 H91         3.4850   -0.0830   -1.9660 hc        1 JY       0.047200
     41 H92         2.6680    1.3100   -2.7750 hc        1 JY       0.047200
     42 H111        3.9810    1.8780   -0.6800 hc        1 JY       0.040700
     43 H112        2.2690    2.4530   -0.7080 hc        1 JY       0.040700
     44 H121        3.4390    0.0580    0.8560 hc        1 JY       0.042700
     45 H122        2.7570    1.5990    1.5090 hc        1 JY       0.042700
     46 H141        2.1380   -1.4740   -0.3760 hc        1 JY       0.054700
     47 H151        0.1050   -2.6780   -0.6220 hc        1 JY       0.045700
     48 H152       -0.9220   -1.1920   -0.5580 hc        1 JY       0.045700
     49 H161        0.2280   -2.7650    1.7150 hc        1 JY       0.042200
     50 H162       -1.0590   -1.4960    1.7290 hc        1 JY       0.042200
     51 H171        1.9460   -1.2630    2.1580 hc        1 JY       0.046700
     52 H181        0.2270    1.7260   -0.4470 hc        1 JY       0.038033
     53 H182       -0.8120    0.8080    0.7150 hc        1 JY       0.038033
     54 H183        0.3380    2.0700    1.3310 hc        1 JY       0.038033
     55 H191        0.3810   -2.5180   -4.2130 ha        1 JY       0.117000
     56 H192       -1.2100   -3.2640   -4.8100 ha        1 JY       0.117000
     57 H201       -0.4740    0.4780    2.9690 hc        1 JY       0.057700
     58 H211        2.5330    0.5670    3.6730 hc        1 JY       0.036700
     59 H212        1.4500    1.9130    3.1180 hc        1 JY       0.036700
     60 H213        1.2530    1.2220    4.7790 hc        1 JY       0.036700
     61 H221       -0.2910   -1.9830    3.8180 hc        1 JY       0.050700
     62 H222        1.2250   -1.4710    4.6590 hc        1 JY       0.050700
     63 H231       -3.8290    0.2970    6.0720 ha        1 JY       0.134000
     64 H241       -2.8080    0.7770    8.3130 ha        1 JY       0.150000
     65 H261        1.0560   -0.4700    6.7920 ha        1 JY       0.133000
     66 H281       -2.4130   -0.5610    4.2100 ha        1 JY       0.133000
     67 HO11        0.6240    0.2610    8.9150 ho        1 JY       0.418000
     68 O1         -0.3240    0.4610    8.9210 oh        1 JY      -0.499100
@<TRIPOS>BOND
     1    1    4 1   
     2    1   30 1   
     3    2    3 1   
     4    2   11 1   
     5    2   31 1   
     6    2   32 1   
     7    3    4 1   
     8    3   33 1   
     9    3   34 1   
    10    4    5 1   
    11    4   35 1   
    12    5    6 1   
    13    5   36 1   
    14    5   37 1   
    15    6    7 2   
    16    6   11 1   
    17    7    8 1   
    18    7   38 1   
    19    8    9 2   
    20    8   39 1   
    21    9   10 1   
    22    9   15 1   
    23   10   12 1   
    24   10   40 1   
    25   10   41 1   
    26   11   20 2   
    27   12   13 1   
    28   12   42 1   
    29   12   43 1   
    30   13   14 1   
    31   13   44 1   
    32   13   45 1   
    33   14   15 1   
    34   14   18 1   
    35   14   19 1   
    36   15   16 1   
    37   15   46 1   
    38   16   17 1   
    39   16   47 1   
    40   16   48 1   
    41   17   18 1   
    42   17   49 1   
    43   17   50 1   
    44   18   21 1   
    45   18   51 1   
    46   19   52 1   
    47   19   53 1   
    48   19   54 1   
    49   20   55 1   
    50   20   56 1   
    51   21   22 1   
    52   21   23 1   
    53   21   57 1   
    54   22   58 1   
    55   22   59 1   
    56   22   60 1   
    57   23   28 1   
    58   23   61 1   
    59   23   62 1   
    60   24   25 ar  
    61   24   29 ar  
    62   24   63 1   
    63   25   26 ar  
    64   25   64 1   
    65   26   27 ar  
    66   26   68 1   
    67   27   28 ar  
    68   27   65 1   
    69   28   29 ar  
    70   29   66 1   
    71   67   68 1   
@<TRIPOS>SUBSTRUCTURE
     1 JY          1 TEMP              0 ****  ****    0 ROOT
