@<TRIPOS>MOLECULE
JYH
   44    47     1     0     0
SMALL
bcc


@<TRIPOS>ATOM
      1 CAJ        -0.1000    0.4210    0.1040 ca        1 JYH     -0.185500
      2 CAM         1.2700    0.4050   -0.1270 ca        1 JYH     -0.090500
      3 CAW         2.1690    0.0960    0.8990 ca        1 JYH     -0.135600
      4 CAT         3.6660    0.0780    0.6270 c         1 JYH      0.909200
      5 OAC         4.4380   -0.2080    1.5850 o         1 JYH     -0.830800
      6 OAA         4.0560    0.3490   -0.5440 o         1 JYH     -0.830800
      7 CAN         1.6670   -0.1950    2.1680 ca        1 JYH     -0.090500
      8 CAK         0.2970   -0.1880    2.4250 ca        1 JYH     -0.185500
      9 CAV        -0.6070    0.1190    1.3910 ca        1 JYH      0.014600
     10 NAS        -2.0110    0.1170    1.5640 ns        1 JYH     -0.451100
     11 CAU        -2.7150    0.0810    2.7460 c         1 JYH      0.666700
     12 OAB        -2.1990    0.0040    3.8790 o         1 JYH     -0.598100
     13 CAX        -4.2100    0.1380    2.6090 ca        1 JYH     -0.136600
     14 CAR        -4.9220    0.9800    3.4340 ca        1 JYH     -0.069000
     15 CBB        -6.3410    1.0450    3.3590 ca        1 JYH     -0.032000
     16 CAO        -4.8820   -0.6870    1.6720 ca        1 JYH     -0.105000
     17 CAQ        -6.2500   -0.6360    1.5740 ca        1 JYH     -0.132000
     18 CBA        -7.0090    0.2340    2.4040 ca        1 JYH     -0.029000
     19 CAP        -8.4240    0.3020    2.2900 ca        1 JYH     -0.121000
     20 CAG        -9.1440    1.1490    3.0940 ca        1 JYH     -0.128000
     21 CAL        -8.4880    1.9540    4.0510 ca        1 JYH     -0.128000
     22 CAZ        -7.1140    1.9050    4.2000 cp        1 JYH     -0.014000
     23 CAY        -6.4800    2.7400    5.2230 cp        1 JYH     -0.047000
     24 CAH        -6.7040    4.1250    5.2270 ca        1 JYH     -0.115000
     25 CAE        -6.1230    4.9270    6.2070 ca        1 JYH     -0.131000
     26 CAD        -5.3190    4.3570    7.1940 ca        1 JYH     -0.126000
     27 CAF        -5.0980    2.9800    7.1990 ca        1 JYH     -0.131000
     28 CAI        -5.6740    2.1730    6.2200 ca        1 JYH     -0.115000
     29 H1         -0.7820    0.6690   -0.7220 ha        1 JYH      0.125000
     30 H2          1.6780    0.6360   -1.1240 ha        1 JYH      0.154500
     31 H4          2.3840   -0.4340    2.9710 ha        1 JYH      0.154500
     32 H5         -0.0680   -0.4190    3.4370 ha        1 JYH      0.125000
     33 H6         -2.5370    0.2570    0.7300 hn        1 JYH      0.307500
     34 H7         -4.3880    1.6100    4.1660 ha        1 JYH      0.163000
     35 H8         -4.3010   -1.3740    1.0380 ha        1 JYH      0.144000
     36 H9         -6.7840   -1.2690    0.8500 ha        1 JYH      0.131000
     37 H10        -8.9250   -0.3340    1.5450 ha        1 JYH      0.130000
     38 H11       -10.2390    1.2110    3.0080 ha        1 JYH      0.128000
     39 H12        -9.0860    2.6210    4.6900 ha        1 JYH      0.133000
     40 H13        -7.3350    4.5750    4.4470 ha        1 JYH      0.140000
     41 H14        -6.2950    6.0130    6.1970 ha        1 JYH      0.132500
     42 H15        -4.8570    4.9920    7.9630 ha        1 JYH      0.130000
     43 H16        -4.4600    2.5270    7.9730 ha        1 JYH      0.132500
     44 H17        -5.4940    1.0870    6.2240 ha        1 JYH      0.140000
@<TRIPOS>BOND
     1    1    2 ar  
     2    1    9 ar  
     3    1   29 1   
     4    2    3 ar  
     5    2   30 1   
     6    3    4 1   
     7    3    7 ar  
     8    4    5 1   
     9    4    6 1   
    10    7    8 ar  
    11    7   31 1   
    12    8    9 ar  
    13    8   32 1   
    14    9   10 1   
    15   10   11 1   
    16   10   33 1   
    17   11   12 2   
    18   11   13 1   
    19   13   14 ar  
    20   13   16 ar  
    21   14   15 ar  
    22   14   34 1   
    23   15   18 ar  
    24   15   22 ar  
    25   16   17 ar  
    26   16   35 1   
    27   17   18 ar  
    28   17   36 1   
    29   18   19 ar  
    30   19   20 ar  
    31   19   37 1   
    32   20   21 ar  
    33   20   38 1   
    34   21   22 ar  
    35   21   39 1   
    36   22   23 1   
    37   23   24 ar  
    38   23   28 ar  
    39   24   25 ar  
    40   24   40 1   
    41   25   26 ar  
    42   25   41 1   
    43   26   27 ar  
    44   26   42 1   
    45   27   28 ar  
    46   27   43 1   
    47   28   44 1   
@<TRIPOS>SUBSTRUCTURE
     1 JYH         1 TEMP              0 ****  ****    0 ROOT
