@<TRIPOS>MOLECULE
JYH
   45    48     1     0     0
SMALL
bcc


@<TRIPOS>ATOM
      1 CAJ        -1.0050    1.6510    1.2830 ca        1 JYH     -0.124500
      2 CAM        -0.2850    1.7780    2.4630 ca        1 JYH     -0.094500
      3 CAW        -0.1100    0.6810    3.3160 ca        1 JYH     -0.076600
      4 CAT         0.5840    0.8630    4.6750 c         1 JYH      0.911200
      5 OAC         1.1360   -0.1480    5.1700 o         1 JYH     -0.787300
      6 OAA         0.5060    2.0140    5.1810 o         1 JYH     -0.787300
      7 CAN        -0.6190   -0.5710    2.9510 ca        1 JYH     -0.094500
      8 CAK        -1.3560   -0.7240    1.7820 ca        1 JYH     -0.124500
      9 CAV        -1.5650    0.3990    0.9600 ca        1 JYH     -0.110400
     10 NAS        -2.3960    0.2750   -0.2400 n4        1 JYH     -0.535200
     11 CAU        -3.6240    1.1690   -0.1390 c         1 JYH      0.594700
     12 OAB        -3.6050    2.1580   -0.8550 o         1 JYH     -0.426100
     13 CAX        -4.6540    0.6950    0.7930 ca        1 JYH     -0.207600
     14 CAR        -4.7350    1.2170    2.0670 ca        1 JYH     -0.004000
     15 CBB        -5.7560    0.7800    2.9550 ca        1 JYH     -0.046000
     16 CAO        -5.5790   -0.2840    0.3390 ca        1 JYH     -0.125000
     17 CAQ        -6.5780   -0.7040    1.1770 ca        1 JYH     -0.097000
     18 CBA        -6.6960   -0.1830    2.4980 ca        1 JYH     -0.010000
     19 CAP        -7.7390   -0.6070    3.3600 ca        1 JYH     -0.138000
     20 CAG        -7.8410   -0.0850    4.6280 ca        1 JYH     -0.089000
     21 CAL        -6.9060    0.8660    5.0900 ca        1 JYH     -0.117000
     22 CAZ        -5.8670    1.2940    4.2840 cp        1 JYH      0.017000
     23 CAY        -4.8970    2.2610    4.8030 cp        1 JYH     -0.090000
     24 CAH        -5.3290    3.5280    5.2180 ca        1 JYH     -0.124500
     25 CAE        -4.4130    4.4410    5.7380 ca        1 JYH     -0.127000
     26 CAD        -3.0670    4.0970    5.8540 ca        1 JYH     -0.114000
     27 CAF        -2.6290    2.8340    5.4520 ca        1 JYH     -0.127000
     28 CAI        -3.5430    1.9200    4.9280 ca        1 JYH     -0.124500
     29 H1         -1.1470    2.5210    0.6230 ha        1 JYH      0.134000
     30 H2          0.1410    2.7510    2.7670 ha        1 JYH      0.183500
     31 H4         -0.4220   -1.4300    3.6170 ha        1 JYH      0.183500
     32 H5         -1.7710   -1.7090    1.5200 ha        1 JYH      0.134000
     33 H6         -2.6990   -0.6990   -0.3400 hn        1 JYH      0.448800
     34 H7         -4.0140    1.9750    2.4250 ha        1 JYH      0.175000
     35 H8         -5.4990   -0.6780   -0.6840 ha        1 JYH      0.132000
     36 H9         -7.3120   -1.4540    0.8410 ha        1 JYH      0.148000
     37 H10        -8.4600   -1.3540    2.9970 ha        1 JYH      0.141000
     38 H11        -8.6510   -0.4070    5.3020 ha        1 JYH      0.145000
     39 H12        -7.0030    1.2640    6.1140 ha        1 JYH      0.155000
     40 H13        -6.3910    3.7990    5.1320 ha        1 JYH      0.133000
     41 H14        -4.7580    5.4350    6.0590 ha        1 JYH      0.171000
     42 H15        -2.3450    4.8160    6.2690 ha        1 JYH      0.145000
     43 H16        -1.5560    2.5570    5.5430 ha        1 JYH      0.171000
     44 H17        -3.2000    0.9180    4.6300 ha        1 JYH      0.133000
     45 HAS2       -1.8370    0.5470   -1.0580 hn        1 JYH      0.448800
@<TRIPOS>BOND
     1    1    2 ar  
     2    1    9 ar  
     3    1   29 1   
     4    2    3 ar  
     5    2   30 1   
     6    3    4 1   
     7    3    7 ar  
     8    4    5 1   
     9    4    6 1   
    10    7    8 ar  
    11    7   31 1   
    12    8    9 ar  
    13    8   32 1   
    14    9   10 1   
    15   10   11 1   
    16   10   33 1   
    17   10   45 1   
    18   11   12 2   
    19   11   13 1   
    20   13   14 ar  
    21   13   16 ar  
    22   14   15 ar  
    23   14   34 1   
    24   15   18 ar  
    25   15   22 ar  
    26   16   17 ar  
    27   16   35 1   
    28   17   18 ar  
    29   17   36 1   
    30   18   19 ar  
    31   19   20 ar  
    32   19   37 1   
    33   20   21 ar  
    34   20   38 1   
    35   21   22 ar  
    36   21   39 1   
    37   22   23 1   
    38   23   24 ar  
    39   23   28 ar  
    40   24   25 ar  
    41   24   40 1   
    42   25   26 ar  
    43   25   41 1   
    44   26   27 ar  
    45   26   42 1   
    46   27   28 ar  
    47   27   43 1   
    48   28   44 1   
@<TRIPOS>SUBSTRUCTURE
     1 JYH         1 TEMP              0 ****  ****    0 ROOT
