@<TRIPOS>MOLECULE
JYH
   44    47     1     0     0
SMALL
bcc


@<TRIPOS>ATOM
      1 CAJ        -0.0890    0.4450    0.1150 ca        1 JYH     -0.185500
      2 CAM         1.2810    0.4280   -0.1090 ca        1 JYH     -0.090500
      3 CAW         2.1750    0.1020    0.9160 ca        1 JYH     -0.135600
      4 CAT         3.6730    0.0840    0.6520 c         1 JYH      0.909200
      5 OAC         4.4400   -0.2190    1.6080 o         1 JYH     -0.830800
      6 OAA         4.0690    0.3730   -0.5140 o         1 JYH     -0.830800
      7 CAN         1.6660   -0.2070    2.1780 ca        1 JYH     -0.090500
      8 CAK         0.2940   -0.2000    2.4290 ca        1 JYH     -0.185500
      9 CAV        -0.6040    0.1250    1.3950 ca        1 JYH      0.014600
     10 NAS        -2.0080    0.1240    1.5620 n         1 JYH     -0.451100
     11 CAU        -2.7170    0.0780    2.7410 c         1 JYH      0.666700
     12 OAB        -2.2070   -0.0130    3.8750 o         1 JYH     -0.598100
     13 CAX        -4.2110    0.1410    2.5980 ca        1 JYH     -0.136600
     14 CAR        -4.9240    0.9780    3.4270 ca        1 JYH     -0.069000
     15 CBB        -6.3420    1.0490    3.3460 ca        1 JYH     -0.032000
     16 CAO        -4.8830   -0.6720    1.6510 ca        1 JYH     -0.105000
     17 CAQ        -6.2500   -0.6160    1.5460 ca        1 JYH     -0.132000
     18 CBA        -7.0100    0.2490    2.3810 ca        1 JYH     -0.029000
     19 CAP        -8.4240    0.3240    2.2610 ca        1 JYH     -0.121000
     20 CAG        -9.1440    1.1660    3.0700 ca        1 JYH     -0.128000
     21 CAL        -8.4890    1.9600    4.0370 ca        1 JYH     -0.128000
     22 CAZ        -7.1170    1.9050    4.1920 cp        1 JYH     -0.014000
     23 CAY        -6.4830    2.7290    5.2250 cp        1 JYH     -0.047000
     24 CAH        -6.7020    4.1140    5.2410 ca        1 JYH     -0.115000
     25 CAE        -6.1230    4.9050    6.2300 ca        1 JYH     -0.131000
     26 CAD        -5.3260    4.3230    7.2160 ca        1 JYH     -0.126000
     27 CAF        -5.1100    2.9450    7.2100 ca        1 JYH     -0.131000
     28 CAI        -5.6840    2.1490    6.2200 ca        1 JYH     -0.115000
     29 H1         -0.7670    0.7060   -0.7100 ha        1 JYH      0.125000
     30 H2          1.6950    0.6730   -1.1010 ha        1 JYH      0.154500
     31 H4          2.3790   -0.4600    2.9810 ha        1 JYH      0.154500
     32 H5         -0.0750   -0.4450    3.4360 ha        1 JYH      0.125000
     33 H6         -2.5300    0.2750    0.7270 hn        1 JYH      0.307500
     34 H7         -4.3910    1.6000    4.1670 ha        1 JYH      0.163000
     35 H8         -4.3010   -1.3560    1.0130 ha        1 JYH      0.144000
     36 H9         -6.7830   -1.2410    0.8140 ha        1 JYH      0.131000
     37 H10        -8.9230   -0.3040    1.5090 ha        1 JYH      0.130000
     38 H11       -10.2390    1.2330    2.9800 ha        1 JYH      0.128000
     39 H12        -9.0880    2.6240    4.6790 ha        1 JYH      0.133000
     40 H13        -7.3280    4.5730    4.4620 ha        1 JYH      0.140000
     41 H14        -6.2910    5.9920    6.2290 ha        1 JYH      0.132500
     42 H15        -4.8650    4.9500    7.9930 ha        1 JYH      0.130000
     43 H16        -4.4770    2.4830    7.9820 ha        1 JYH      0.132500
     44 H17        -5.5080    1.0620    6.2160 ha        1 JYH      0.140000
@<TRIPOS>BOND
     1    1    2 ar  
     2    1    9 ar  
     3    1   29 1   
     4    2    3 ar  
     5    2   30 1   
     6    3    4 1   
     7    3    7 ar  
     8    4    5 1   
     9    4    6 1   
    10    7    8 ar  
    11    7   31 1   
    12    8    9 ar  
    13    8   32 1   
    14    9   10 1   
    15   10   11 1   
    16   10   33 1   
    17   11   12 2   
    18   11   13 1   
    19   13   14 ar  
    20   13   16 ar  
    21   14   15 ar  
    22   14   34 1   
    23   15   18 ar  
    24   15   22 ar  
    25   16   17 ar  
    26   16   35 1   
    27   17   18 ar  
    28   17   36 1   
    29   18   19 ar  
    30   19   20 ar  
    31   19   37 1   
    32   20   21 ar  
    33   20   38 1   
    34   21   22 ar  
    35   21   39 1   
    36   22   23 1   
    37   23   24 ar  
    38   23   28 ar  
    39   24   25 ar  
    40   24   40 1   
    41   25   26 ar  
    42   25   41 1   
    43   26   27 ar  
    44   26   42 1   
    45   27   28 ar  
    46   27   43 1   
    47   28   44 1   
@<TRIPOS>SUBSTRUCTURE
     1 JYH         1 TEMP              0 ****  ****    0 ROOT
