@<TRIPOS>MOLECULE
JYI
   52    55     1     0     0
SMALL
bcc


@<TRIPOS>ATOM
      1 CAM        -0.4930   -0.6320   -0.7050 ca        1 JYI     -0.119000
      2 CAJ         0.7660   -0.7330   -1.2940 ca        1 JYI     -0.135000
      3 CAI         1.8500   -0.0400   -0.7550 ca        1 JYI     -0.135000
      4 CAK         1.6700    0.7580    0.3740 ca        1 JYI     -0.135000
      5 CAN         0.4120    0.8660    0.9640 ca        1 JYI     -0.119000
      6 CAY        -0.6820    0.1700    0.4290 ca        1 JYI     -0.041800
      7 CAV        -2.0000    0.2470    1.0640 ce        1 JYI     -0.006400
      8 CBB        -2.5540    1.5500    1.4320 ca        1 JYI     -0.058800
      9 CAS        -2.0440    2.7320    0.8840 ca        1 JYI     -0.118000
     10 CAH        -2.7040   -0.8750    1.3230 c2        1 JYI     -0.158200
     11 CAT        -4.0290   -0.8370    1.9790 c3        1 JYI     -0.039200
     12 CBD        -4.2020    0.3510    2.9360 c3        1 JYI     -0.001700
     13 CAA        -3.4690    0.0620    4.2440 c3        1 JYI     -0.086100
     14 CAB        -5.6920    0.4920    3.2290 c3        1 JYI     -0.086100
     15 CBC        -3.6380    1.6100    2.3340 ca        1 JYI     -0.064300
     16 CAQ        -4.1520    2.8610    2.6880 ca        1 JYI     -0.130000
     17 CAL        -3.6290    4.0330    2.1500 ca        1 JYI     -0.100000
     18 CAW        -2.5680    3.9840    1.2370 ca        1 JYI     -0.043800
     19 CAF        -2.0210    5.1760    0.6130 ce        1 JYI     -0.144200
     20 CAG        -1.9730    6.4290    1.0880 cf        1 JYI     -0.058200
     21 CBA        -2.3960    6.9280    2.3850 ca        1 JYI     -0.105800
     22 CAP        -2.0040    6.2830    3.5690 ca        1 JYI     -0.134000
     23 CAO        -2.3550    6.7980    4.8120 ca        1 JYI     -0.112000
     24 CAZ        -3.1140    7.9690    4.9100 ca        1 JYI     -0.108600
     25 CAU        -3.5050    8.5240    6.2750 c         1 JYI      0.908200
     26 OAD        -4.1890    9.5840    6.3040 o         1 JYI     -0.822300
     27 OAC        -3.1230    7.8880    7.2960 o         1 JYI     -0.822300
     28 CAR        -3.5130    8.6240    3.7410 ca        1 JYI     -0.106000
     29 CAX        -3.1510    8.1100    2.4960 ca        1 JYI      0.013400
     30 Cl         -3.6580    8.9410    1.0850 cl        1 JYI     -0.150400
     31 H1         -1.3470   -1.1780   -1.1320 ha        1 JYI      0.140000
     32 H2          0.9030   -1.3610   -2.1860 ha        1 JYI      0.127500
     33 H3          2.8420   -0.1210   -1.2200 ha        1 JYI      0.125000
     34 H4          2.5220    1.3070    0.8010 ha        1 JYI      0.127500
     35 H5          0.2680    1.5020    1.8520 ha        1 JYI      0.140000
     36 H6         -1.2140    2.6790    0.1620 ha        1 JYI      0.134000
     37 H7         -2.3220   -1.8680    1.0430 ha        1 JYI      0.122000
     38 H8         -4.1980   -1.7870    2.5530 hc        1 JYI      0.047700
     39 H9         -4.8200   -0.7830    1.1810 hc        1 JYI      0.047700
     40 H10        -3.5410    0.9430    4.9260 hc        1 JYI      0.037700
     41 H11        -3.9240   -0.8230    4.7500 hc        1 JYI      0.037700
     42 H12        -2.3930   -0.1500    4.0420 hc        1 JYI      0.037700
     43 H13        -6.2240    0.9280    2.3510 hc        1 JYI      0.037700
     44 H14        -6.1310   -0.5100    3.4550 hc        1 JYI      0.037700
     45 H15        -5.8600    1.1510    4.1150 hc        1 JYI      0.037700
     46 H16        -4.9810    2.9340    3.4090 ha        1 JYI      0.137000
     47 H17        -4.0430    5.0100    2.4510 ha        1 JYI      0.162000
     48 H18        -1.5990    4.9890   -0.3940 ha        1 JYI      0.112000
     49 H19        -1.5510    7.2150    0.4300 ha        1 JYI      0.122000
     50 H20        -1.4140    5.3580    3.4970 ha        1 JYI      0.122000
     51 H21        -2.0480    6.2980    5.7460 ha        1 JYI      0.159000
     52 H23        -4.1120    9.5450    3.8370 ha        1 JYI      0.170000
@<TRIPOS>BOND
     1    1    2 ar  
     2    1    6 ar  
     3    1   31 1   
     4    2    3 ar  
     5    2   32 1   
     6    3    4 ar  
     7    3   33 1   
     8    4    5 ar  
     9    4   34 1   
    10    5    6 ar  
    11    5   35 1   
    12    6    7 1   
    13    7    8 1   
    14    7   10 2   
    15    8    9 ar  
    16    8   15 ar  
    17    9   18 ar  
    18    9   36 1   
    19   10   11 1   
    20   10   37 1   
    21   11   12 1   
    22   11   38 1   
    23   11   39 1   
    24   12   13 1   
    25   12   14 1   
    26   12   15 1   
    27   13   40 1   
    28   13   41 1   
    29   13   42 1   
    30   14   43 1   
    31   14   44 1   
    32   14   45 1   
    33   15   16 ar  
    34   16   17 ar  
    35   16   46 1   
    36   17   18 ar  
    37   17   47 1   
    38   18   19 1   
    39   19   20 2   
    40   19   48 1   
    41   20   21 1   
    42   20   49 1   
    43   21   22 ar  
    44   21   29 ar  
    45   22   23 ar  
    46   22   50 1   
    47   23   24 ar  
    48   23   51 1   
    49   24   25 1   
    50   24   28 ar  
    51   25   26 1   
    52   25   27 1   
    53   28   29 ar  
    54   28   52 1   
    55   29   30 1   
@<TRIPOS>SUBSTRUCTURE
     1 JYI         1 TEMP              0 ****  ****    0 ROOT
