@<TRIPOS>MOLECULE
JYI
   52    55     1     0     0
SMALL
bcc


@<TRIPOS>ATOM
      1 CAM        -0.4960   -0.6370   -0.7040 ca        1 JYI     -0.119000
      2 CAJ         0.7490   -0.7220   -1.3230 ca        1 JYI     -0.135000
      3 CAI         1.8310    0.0010   -0.8230 ca        1 JYI     -0.135000
      4 CAK         1.6630    0.8130    0.2990 ca        1 JYI     -0.135000
      5 CAN         0.4190    0.9050    0.9190 ca        1 JYI     -0.119000
      6 CAY        -0.6740    0.1790    0.4230 ca        1 JYI     -0.041800
      7 CAV        -1.9770    0.2390    1.0900 ce        1 JYI     -0.006400
      8 CBB        -2.5470    1.5370    1.4520 ca        1 JYI     -0.058800
      9 CAS        -2.0760    2.7190    0.8740 ca        1 JYI     -0.118000
     10 CAH        -2.6510   -0.8920    1.3830 c2        1 JYI     -0.158200
     11 CAT        -3.9590   -0.8710    2.0730 c3        1 JYI     -0.039200
     12 CBD        -4.1320    0.3280    3.0150 c3        1 JYI     -0.001700
     13 CAA        -3.3610    0.0750    4.3090 c3        1 JYI     -0.086100
     14 CAB        -5.6170    0.4430    3.3440 c3        1 JYI     -0.086100
     15 CBC        -3.6090    1.5890    2.3800 ca        1 JYI     -0.064300
     16 CAQ        -4.1400    2.8340    2.7280 ca        1 JYI     -0.130000
     17 CAL        -3.6550    4.0080    2.1590 ca        1 JYI     -0.100000
     18 CAW        -2.6160    3.9660    1.2210 ca        1 JYI     -0.043800
     19 CAF        -2.1100    5.1590    0.5640 ce        1 JYI     -0.144200
     20 CAG        -2.0770    6.4200    1.0190 cf        1 JYI     -0.058200
     21 CBA        -2.4780    6.9320    2.3180 ca        1 JYI     -0.105800
     22 CAP        -2.0440    6.3150    3.5010 ca        1 JYI     -0.134000
     23 CAO        -2.3760    6.8420    4.7450 ca        1 JYI     -0.112000
     24 CAZ        -3.1570    7.9980    4.8420 ca        1 JYI     -0.108600
     25 CAU        -3.5270    8.5670    6.2080 c         1 JYI      0.908200
     26 OAD        -4.2330    9.6130    6.2370 o         1 JYI     -0.822300
     27 OAC        -3.1060    7.9560    7.2290 o         1 JYI     -0.822300
     28 CAR        -3.5990    8.6250    3.6740 ca        1 JYI     -0.106000
     29 CAX        -3.2560    8.0980    2.4280 ca        1 JYI      0.013400
     30 CL         -3.8160    8.8950    1.0180 cl        1 JYI     -0.150400
     31 H1         -1.3500   -1.2070   -1.1010 ha        1 JYI      0.140000
     32 H2          0.8760   -1.3600   -2.2090 ha        1 JYI      0.127500
     33 H3          2.8130   -0.0670   -1.3120 ha        1 JYI      0.125000
     34 H4          2.5140    1.3860    0.6960 ha        1 JYI      0.127500
     35 H5          0.2840    1.5510    1.8000 ha        1 JYI      0.140000
     36 H6         -1.2630    2.6720    0.1310 ha        1 JYI      0.134000
     37 H7         -2.2560   -1.8820    1.1090 ha        1 JYI      0.122000
     38 H8         -4.0940   -1.8150    2.6650 hc        1 JYI      0.047700
     39 H9         -4.7710   -0.8460    1.2940 hc        1 JYI      0.047700
     40 H10        -3.7840   -0.8110    4.8400 hc        1 JYI      0.037700
     41 H11        -3.4340    0.9650    4.9790 hc        1 JYI      0.037700
     42 H12        -2.2860   -0.1190    4.0830 hc        1 JYI      0.037700
     43 H13        -5.7760    1.1120    4.2240 hc        1 JYI      0.037700
     44 H14        -6.1800    0.8550    2.4730 hc        1 JYI      0.037700
     45 H15        -6.0300   -0.5640    3.5960 hc        1 JYI      0.037700
     46 H16        -4.9520    2.9020    3.4690 ha        1 JYI      0.137000
     47 H17        -4.0820    4.9810    2.4550 ha        1 JYI      0.162000
     48 H18        -1.7090    4.9650   -0.4500 ha        1 JYI      0.112000
     49 H19        -1.6870    7.2040    0.3380 ha        1 JYI      0.122000
     50 H20        -1.4360    5.4010    3.4300 ha        1 JYI      0.122000
     51 H21        -2.0340    6.3640    5.6780 ha        1 JYI      0.159000
     52 H23        -4.2150    9.5350    3.7700 ha        1 JYI      0.170000
@<TRIPOS>BOND
     1    1    2 ar  
     2    1    6 ar  
     3    1   31 1   
     4    2    3 ar  
     5    2   32 1   
     6    3    4 ar  
     7    3   33 1   
     8    4    5 ar  
     9    4   34 1   
    10    5    6 ar  
    11    5   35 1   
    12    6    7 1   
    13    7    8 1   
    14    7   10 2   
    15    8    9 ar  
    16    8   15 ar  
    17    9   18 ar  
    18    9   36 1   
    19   10   11 1   
    20   10   37 1   
    21   11   12 1   
    22   11   38 1   
    23   11   39 1   
    24   12   13 1   
    25   12   14 1   
    26   12   15 1   
    27   13   40 1   
    28   13   41 1   
    29   13   42 1   
    30   14   43 1   
    31   14   44 1   
    32   14   45 1   
    33   15   16 ar  
    34   16   17 ar  
    35   16   46 1   
    36   17   18 ar  
    37   17   47 1   
    38   18   19 1   
    39   19   20 2   
    40   19   48 1   
    41   20   21 1   
    42   20   49 1   
    43   21   22 ar  
    44   21   29 ar  
    45   22   23 ar  
    46   22   50 1   
    47   23   24 ar  
    48   23   51 1   
    49   24   25 1   
    50   24   28 ar  
    51   25   26 1   
    52   25   27 1   
    53   28   29 ar  
    54   28   52 1   
    55   29   30 1   
@<TRIPOS>SUBSTRUCTURE
     1 JYI         1 TEMP              0 ****  ****    0 ROOT
