@<TRIPOS>MOLECULE
JYM
   38    36     1     0     0
SMALL
bcc


@<TRIPOS>ATOM
      1 FAT        -0.1890   -5.4420    0.0470 f         1 JYM     -0.221967
      2 CAS         1.1450   -5.5400    0.0940 c3        1 JYM      0.654600
      3 FAU         1.5020   -6.2790    1.1520 f         1 JYM     -0.221967
      4 FAV         1.5890   -6.1220   -1.0280 f         1 JYM     -0.221967
      5 C8          1.7480   -4.1590    0.2170 ce        1 JYM      0.455300
      6 N9          3.0270   -3.7320    0.3140 ne        1 JYM     -0.638700
      7 N7          0.9380   -3.0810    0.3130 nf        1 JYM     -0.340700
      8 C5          1.7200   -1.9790    0.4700 ch        1 JYM     -0.192000
      9 C4          3.0080   -2.3810    0.4700 c1        1 JYM      0.331400
     10 N3          4.0070   -1.4630    0.6090 n1        1 JYM     -0.263000
     11 C2          3.7040   -0.1410    0.7460 c1        1 JYM      0.605600
     12 N2          4.9010    0.5760    1.0030 n3        1 JYM     -0.802400
     13 N1          2.4010    0.2670    0.7450 n1        1 JYM     -0.642800
     14 C6          1.4150   -0.6350    0.6090 c1        1 JYM      0.306600
     15 O6          0.0710   -0.2660    0.4320 os        1 JYM     -0.274400
     16 CAL        -0.1210    1.1160    0.2380 c3        1 JYM      0.136400
     17 CAM        -1.4230    1.3590    0.0010 c3        1 JYM     -0.070700
     18 CAN        -1.6890    1.7290   -1.5210 c3        1 JYM     -0.072900
     19 CAO        -3.1490    2.0380   -1.8130 c3        1 JYM     -0.074400
     20 CAP        -3.8280    2.3390   -0.6830 c3        1 JYM     -0.077400
     21 CAQ        -3.3440    3.0780    0.3500 c3        1 JYM     -0.074400
     22 CAR        -1.8940    2.7680    0.6220 c3        1 JYM     -0.072900
     23 H9          3.7720   -4.2570    0.2780 DU        1 JYM      0.282000
     24 H21N        5.7100    0.1550    0.9350 hn        1 JYM      0.443300
     25 H22N        4.8630    1.4570    1.2430 hn        1 JYM      0.443300
     26 HAL1        0.4130    1.4150   -0.5290 h1        1 JYM      0.056700
     27 HAL2        0.1610    1.6010    1.0420 h1        1 JYM      0.056700
     28 HAM        -1.9940    0.6230    0.2990 hc        1 JYM      0.072700
     29 HAN1       -1.1500    2.5120   -1.7530 hc        1 JYM      0.043700
     30 HAN2       -1.4090    0.9780   -2.0810 hc        1 JYM      0.043700
     31 HAR1       -1.7540    2.7470    1.5900 hc        1 JYM      0.043700
     32 HAR2       -1.3430    3.4800    0.2390 hc        1 JYM      0.043700
     33 HAO1       -3.5620    1.2570   -2.2370 hc        1 JYM      0.040700
     34 HAO2       -3.1980    2.7990   -2.4280 hc        1 JYM      0.040700
     35 HAP1       -4.0990    1.4790   -0.2950 hc        1 JYM      0.040200
     36 HAP2       -4.6500    2.7890   -0.9750 hc        1 JYM      0.040200
     37 HAQ1       -3.4320    4.0290    0.1310 hc        1 JYM      0.040700
     38 HAQ2       -3.8690    2.8860    1.1540 hc        1 JYM      0.040700
@<TRIPOS>BOND
     1    1    2 1   
     2    2    3 1   
     3    2    4 1   
     4    2    5 1   
     5    5    6 1   
     6    5    7 2   
     7    6    9 2   
     8    7    8 1   
     9    8   14 3   
    10    9   10 2   
    11   11   12 1   
    12   11   13 3   
    13   12   24 1   
    14   12   25 1   
    15   14   15 1   
    16   15   16 1   
    17   16   17 1   
    18   16   26 1   
    19   16   27 1   
    20   17   18 1   
    21   17   22 1   
    22   17   28 1   
    23   18   19 1   
    24   18   29 1   
    25   18   30 1   
    26   19   20 1   
    27   19   33 1   
    28   19   34 1   
    29   20   21 1   
    30   20   35 1   
    31   20   36 1   
    32   21   22 1   
    33   21   37 1   
    34   21   38 1   
    35   22   31 1   
    36   22   32 1   
@<TRIPOS>SUBSTRUCTURE
     1 JYM         1 TEMP              0 ****  ****    0 ROOT
