@<TRIPOS>MOLECULE
JYM
   38    40     1     0     0
SMALL
bcc


@<TRIPOS>ATOM
      1 FAT         0.2250   -0.5820   -0.8080 f         1 JYM     -0.221967
      2 CAS         1.2490    0.0190   -0.1260 c3        1 JYM      0.654600
      3 FAU         0.7610    0.2470    1.1330 f         1 JYM     -0.221967
      4 FAV         2.1880   -0.9710    0.0380 f         1 JYM     -0.221967
      5 C8          1.7850    1.2740   -0.8100 cc        1 JYM      0.274800
      6 N9          3.1320    1.3800   -1.2390 na        1 JYM     -0.351000
      7 N7          1.0430    2.3700   -1.0640 nd        1 JYM     -0.428100
      8 C5          1.9230    3.2530   -1.6890 ca        1 JYM     -0.235200
      9 C4          3.2520    2.6480   -1.8090 ca        1 JYM      0.502800
     10 N3          4.3360    3.2450   -2.3730 nb        1 JYM     -0.789000
     11 C2          4.0790    4.5290   -2.8270 ca        1 JYM      0.942900
     12 N2          5.1530    5.2440   -3.3390 nv        1 JYM     -0.939500
     13 N1          2.8480    5.2040   -2.7880 nb        1 JYM     -0.843000
     14 C6          1.8040    4.5720   -2.2230 ca        1 JYM      0.776600
     15 O6          0.5680    5.1420   -2.1320 os        1 JYM     -0.416100
     16 CAL         0.4060    6.4820   -2.6490 c3        1 JYM      0.136400
     17 CAM        -1.0550    6.8400   -2.3910 c3        1 JYM     -0.072700
     18 CAN        -1.4360    8.0380   -3.2490 c3        1 JYM     -0.074400
     19 CAO        -2.8710    8.4500   -2.9940 c3        1 JYM     -0.075900
     20 CAP        -3.1150    8.7310   -1.5250 c3        1 JYM     -0.078400
     21 CAQ        -2.7240    7.5460   -0.6660 c3        1 JYM     -0.075900
     22 CAR        -1.2880    7.1350   -0.9170 c3        1 JYM     -0.074400
     23 H9          3.8360    0.6950   -1.1410 hn        1 JYM      0.331700
     24 H21N        4.9690    6.0860   -3.8290 hn        1 JYM      0.443300
     25 H22N        5.9900    4.7540   -3.5430 hn        1 JYM      0.443300
     26 HAL1        1.1010    7.1750   -2.1110 h1        1 JYM      0.056700
     27 HAL2        0.6330    6.4800   -3.7460 h1        1 JYM      0.056700
     28 HAM        -1.6950    5.9600   -2.6840 hc        1 JYM      0.071700
     29 HAN1       -1.3060    7.7830   -4.3330 hc        1 JYM      0.044700
     30 HAN2       -0.7510    8.8950   -3.0170 hc        1 JYM      0.044700
     31 HAR1       -1.0410    6.2200   -0.3180 hc        1 JYM      0.044700
     32 HAR2       -0.5990    7.9560   -0.5860 hc        1 JYM      0.044700
     33 HAO1       -3.1070    9.3650   -3.5960 hc        1 JYM      0.042200
     34 HAO2       -3.5600    7.6330   -3.3360 hc        1 JYM      0.042200
     35 HAP1       -4.1980    8.9710   -1.3640 hc        1 JYM      0.039700
     36 HAP2       -2.5210    9.6310   -1.2140 hc        1 JYM      0.039700
     37 HAQ1       -2.8530    7.8070    0.4160 hc        1 JYM      0.042200
     38 HAQ2       -3.4040    6.6820   -0.8880 hc        1 JYM      0.042200
@<TRIPOS>BOND
     1    1    2 1   
     2    2    3 1   
     3    2    4 1   
     4    2    5 1   
     5    5    6 1   
     6    5    7 2   
     7    6    9 1   
     8    6   23 1   
     9    7    8 1   
    10    8    9 ar  
    11    8   14 ar  
    12    9   10 ar  
    13   10   11 ar  
    14   11   12 1   
    15   11   13 ar  
    16   12   24 1   
    17   12   25 1   
    18   13   14 ar  
    19   14   15 1   
    20   15   16 1   
    21   16   17 1   
    22   16   26 1   
    23   16   27 1   
    24   17   18 1   
    25   17   22 1   
    26   17   28 1   
    27   18   19 1   
    28   18   29 1   
    29   18   30 1   
    30   19   20 1   
    31   19   33 1   
    32   19   34 1   
    33   20   21 1   
    34   20   35 1   
    35   20   36 1   
    36   21   22 1   
    37   21   37 1   
    38   21   38 1   
    39   22   31 1   
    40   22   32 1   
@<TRIPOS>SUBSTRUCTURE
     1 JYM         1 TEMP              0 ****  ****    0 ROOT
