@<TRIPOS>MOLECULE
JYM
   38    40     1     0     0
SMALL
bcc


@<TRIPOS>ATOM
      1 FAT         0.2190   -0.5850   -0.8320 f         1 JYM     -0.221967
      2 CAS         1.2410    0.0120   -0.1450 c3        1 JYM      0.654600
      3 FAU         0.7500    0.2360    1.1130 f         1 JYM     -0.221967
      4 FAV         2.1790   -0.9790    0.0170 f         1 JYM     -0.221967
      5 C8          1.7800    1.2700   -0.8230 cc        1 JYM      0.274800
      6 N9          3.1270    1.3770   -1.2470 na        1 JYM     -0.351000
      7 N7          1.0380    2.3670   -1.0750 nd        1 JYM     -0.428100
      8 C5          1.9210    3.2520   -1.6940 ca        1 JYM     -0.235200
      9 C4          3.2500    2.6470   -1.8120 ca        1 JYM      0.502800
     10 N3          4.3360    3.2460   -2.3700 nb        1 JYM     -0.789000
     11 C2          4.0810    4.5320   -2.8200 ca        1 JYM      0.942900
     12 N2          5.1570    5.2490   -3.3260 nh        1 JYM     -0.939500
     13 N1          2.8500    5.2070   -2.7820 nb        1 JYM     -0.843000
     14 C6          1.8040    4.5730   -2.2230 ca        1 JYM      0.776600
     15 O6          0.5670    5.1440   -2.1340 os        1 JYM     -0.416100
     16 CAL         0.4070    6.4850   -2.6450 c3        1 JYM      0.136400
     17 CAM        -1.0530    6.8430   -2.3900 c3        1 JYM     -0.072700
     18 CAN        -1.4310    8.0460   -3.2430 c3        1 JYM     -0.074400
     19 CAO        -2.8670    8.4570   -2.9900 c3        1 JYM     -0.075900
     20 CAP        -3.1150    8.7320   -1.5210 c3        1 JYM     -0.078400
     21 CAQ        -2.7280    7.5420   -0.6670 c3        1 JYM     -0.075900
     22 CAR        -1.2920    7.1310   -0.9160 c3        1 JYM     -0.074400
     23 H9          3.8310    0.6910   -1.1490 hn        1 JYM      0.331700
     24 H21N        5.9940    4.7590   -3.5300 hn        1 JYM      0.443300
     25 H22N        4.9740    6.0920   -3.8140 hn        1 JYM      0.443300
     26 HAL1        1.1020    7.1760   -2.1020 h1        1 JYM      0.056700
     27 HAL2        0.6390    6.4880   -3.7410 h1        1 JYM      0.056700
     28 HAM        -1.6930    5.9650   -2.6910 hc        1 JYM      0.071700
     29 HAN1       -1.2970    7.7960   -4.3280 hc        1 JYM      0.044700
     30 HAN2       -0.7460    8.9020   -3.0040 hc        1 JYM      0.044700
     31 HAR1       -0.6030    7.9490   -0.5770 hc        1 JYM      0.044700
     32 HAR2       -1.0470    6.2120   -0.3200 hc        1 JYM      0.044700
     33 HAO1       -3.5540    7.6430   -3.3400 hc        1 JYM      0.042200
     34 HAO2       -3.1000    9.3760   -3.5890 hc        1 JYM      0.042200
     35 HAP1       -2.5220    9.6290   -1.2030 hc        1 JYM      0.039700
     36 HAP2       -4.1990    8.9710   -1.3630 hc        1 JYM      0.039700
     37 HAQ1       -2.8600    7.7970    0.4160 hc        1 JYM      0.042200
     38 HAQ2       -3.4080    6.6790   -0.8960 hc        1 JYM      0.042200
@<TRIPOS>BOND
     1    1    2 1   
     2    2    3 1   
     3    2    4 1   
     4    2    5 1   
     5    5    6 1   
     6    5    7 2   
     7    6    9 1   
     8    6   23 1   
     9    7    8 1   
    10    8    9 ar  
    11    8   14 ar  
    12    9   10 ar  
    13   10   11 ar  
    14   11   12 1   
    15   11   13 ar  
    16   12   24 1   
    17   12   25 1   
    18   13   14 ar  
    19   14   15 1   
    20   15   16 1   
    21   16   17 1   
    22   16   26 1   
    23   16   27 1   
    24   17   18 1   
    25   17   22 1   
    26   17   28 1   
    27   18   19 1   
    28   18   29 1   
    29   18   30 1   
    30   19   20 1   
    31   19   33 1   
    32   19   34 1   
    33   20   21 1   
    34   20   35 1   
    35   20   36 1   
    36   21   22 1   
    37   21   37 1   
    38   21   38 1   
    39   22   31 1   
    40   22   32 1   
@<TRIPOS>SUBSTRUCTURE
     1 JYM         1 TEMP              0 ****  ****    0 ROOT
