@<TRIPOS>MOLECULE
JYM
   39    41     1     0     0
SMALL
bcc


@<TRIPOS>ATOM
      1 FAT         0.1700   -0.5580   -0.8550 f         1 JYM     -0.199300
      2 CAS         1.1920    0.0040   -0.1450 c3        1 JYM      0.657600
      3 FAU         0.7040    0.2580    1.1050 f         1 JYM     -0.199300
      4 FAV         2.1250   -0.9880    0.0140 f         1 JYM     -0.199300
      5 C8          1.7630    1.2650   -0.8260 cc        1 JYM      0.337800
      6 N9          3.1110    1.3580   -1.2320 na        1 JYM     -0.309000
      7 N7          1.0320    2.3720   -1.0880 nd        1 JYM     -0.425100
      8 C5          1.9260    3.2490   -1.6970 ca        1 JYM     -0.136200
      9 C4          3.2490    2.6240   -1.7970 ca        1 JYM      0.438800
     10 N3          4.3450    3.2360   -2.3510 nb        1 JYM     -0.673000
     11 C2          4.0610    4.4870   -2.7950 ca        1 JYM      0.751900
     12 N2          5.2100    5.2220   -3.4140 n4        1 JYM     -0.816300
     13 N1          2.8810    5.2010   -2.7710 nb        1 JYM     -0.798000
     14 C6          1.8050    4.5780   -2.2180 ca        1 JYM      0.788600
     15 O6          0.5910    5.1550   -2.1290 os        1 JYM     -0.380100
     16 CAL         0.4140    6.5050   -2.6430 c3        1 JYM      0.135400
     17 CAM        -1.0480    6.8390   -2.3680 c3        1 JYM     -0.074700
     18 CAN        -1.4730    7.9860   -3.2760 c3        1 JYM     -0.073900
     19 CAO        -2.9140    8.3710   -3.0100 c3        1 JYM     -0.076900
     20 CAP        -3.1370    8.7170   -1.5530 c3        1 JYM     -0.081400
     21 CAQ        -2.6980    7.5860   -0.6450 c3        1 JYM     -0.076900
     22 CAR        -1.2560    7.2010   -0.9050 c3        1 JYM     -0.073900
     23 H9          3.8110    0.6610   -1.1330 hn        1 JYM      0.355700
     24 H21N        5.3770    6.0850   -2.8830 hn        1 JYM      0.481467
     25 H22N        4.9680    5.4590   -4.3840 hn        1 JYM      0.481467
     26 HAL1        0.6360    6.4980   -3.7400 h1        1 JYM      0.062700
     27 HAL2        1.1110    7.1930   -2.1000 h1        1 JYM      0.062700
     28 HAM        -1.6740    5.9330   -2.6060 hc        1 JYM      0.081700
     29 HAN1       -1.3570    7.6820   -4.3480 hc        1 JYM      0.043450
     30 HAN2       -0.8070    8.8700   -3.0970 hc        1 JYM      0.043450
     31 HAR1       -0.5850    8.0570   -0.6300 hc        1 JYM      0.043450
     32 HAR2       -0.9750    6.3250   -0.2640 hc        1 JYM      0.043450
     33 HAO1       -3.1840    9.2510   -3.6520 hc        1 JYM      0.050950
     34 HAO2       -3.5870    7.5220   -3.3010 hc        1 JYM      0.050950
     35 HAP1       -2.5650    9.6470   -1.2960 hc        1 JYM      0.049700
     36 HAP2       -4.2240    8.9330   -1.3830 hc        1 JYM      0.049700
     37 HAQ1       -3.3590    6.6950   -0.8090 hc        1 JYM      0.050950
     38 HAQ2       -2.8110    7.8970    0.4260 hc        1 JYM      0.050950
     39 H23         6.0550    4.6360   -3.4000 hn        1 JYM      0.481467
@<TRIPOS>BOND
     1    1    2 1   
     2    2    3 1   
     3    2    4 1   
     4    2    5 1   
     5    5    6 1   
     6    5    7 2   
     7    6    9 1   
     8    6   23 1   
     9    7    8 1   
    10    8    9 ar  
    11    8   14 ar  
    12    9   10 ar  
    13   10   11 ar  
    14   11   12 1   
    15   11   13 ar  
    16   12   24 1   
    17   12   25 1   
    18   12   39 1   
    19   13   14 ar  
    20   14   15 1   
    21   15   16 1   
    22   16   17 1   
    23   16   26 1   
    24   16   27 1   
    25   17   18 1   
    26   17   22 1   
    27   17   28 1   
    28   18   19 1   
    29   18   29 1   
    30   18   30 1   
    31   19   20 1   
    32   19   33 1   
    33   19   34 1   
    34   20   21 1   
    35   20   35 1   
    36   20   36 1   
    37   21   22 1   
    38   21   37 1   
    39   21   38 1   
    40   22   31 1   
    41   22   32 1   
@<TRIPOS>SUBSTRUCTURE
     1 JYM         1 TEMP              0 ****  ****    0 ROOT
