@<TRIPOS>MOLECULE
JYM
   38    40     1     0     0
SMALL
bcc


@<TRIPOS>ATOM
      1 FAT        -3.7040   -2.4850    1.3840 f         1 JYM     -0.221967
      2 CAS        -3.7990   -1.7790    0.2150 c3        1 JYM      0.654600
      3 FAU        -3.6320   -2.7030   -0.7810 f         1 JYM     -0.221967
      4 FAV        -5.1200   -1.4110    0.1340 f         1 JYM     -0.221967
      5 C8         -2.8240   -0.6070    0.1300 cc        1 JYM      0.274800
      6 N9         -3.2670    0.7320   -0.0090 na        1 JYM     -0.351000
      7 N7         -1.4820   -0.7360    0.1790 nd        1 JYM     -0.428100
      8 C5         -1.0000    0.5690    0.0680 ca        1 JYM     -0.235200
      9 C4         -2.1130    1.5140   -0.0540 ca        1 JYM      0.502800
     10 N3         -1.9840    2.8630   -0.1760 nb        1 JYM     -0.789000
     11 C2         -0.6640    3.2870   -0.1960 ca        1 JYM      0.942900
     12 N2         -0.4390    4.6400   -0.4060 nh        1 JYM     -0.939500
     13 N1          0.4790    2.4820   -0.0660 nb        1 JYM     -0.843000
     14 C6          0.3020    1.1540    0.0550 ca        1 JYM      0.776600
     15 O6          1.3470    0.2860    0.1830 os        1 JYM     -0.416100
     16 CAL         2.6830    0.8360    0.1620 c3        1 JYM      0.136400
     17 CAM         3.6150   -0.3630    0.3070 c3        1 JYM     -0.072700
     18 CAN         5.0000    0.1230    0.7070 c3        1 JYM     -0.074400
     19 CAO         5.9670   -1.0360    0.8240 c3        1 JYM     -0.075900
     20 CAP         6.0230   -1.8440   -0.4560 c3        1 JYM     -0.078400
     21 CAQ         4.6440   -2.3190   -0.8660 c3        1 JYM     -0.075900
     22 CAR         3.6760   -1.1610   -0.9880 c3        1 JYM     -0.074400
     23 H9         -4.2040    1.0380   -0.0700 hn        1 JYM      0.331700
     24 H21N       -1.2080    5.2620   -0.3300 hn        1 JYM      0.443300
     25 H22N        0.4720    4.9970   -0.2480 hn        1 JYM      0.443300
     26 HAL1        2.8490    1.3730   -0.8060 h1        1 JYM      0.056700
     27 HAL2        2.8000    1.5440    1.0230 h1        1 JYM      0.056700
     28 HAM         3.2120   -1.0320    1.1190 hc        1 JYM      0.071700
     29 HAN1        5.3750    0.8510   -0.0590 hc        1 JYM      0.044700
     30 HAN2        4.9410    0.6630    1.6880 hc        1 JYM      0.044700
     31 HAR1        2.6500   -1.5420   -1.2300 hc        1 JYM      0.044700
     32 HAR2        3.9980   -0.4890   -1.8270 hc        1 JYM      0.044700
     33 HAO1        6.9890   -0.6450    1.0670 hc        1 JYM      0.042200
     34 HAO2        5.6510   -1.7010    1.6710 hc        1 JYM      0.042200
     35 HAP1        6.4600   -1.2150   -1.2760 hc        1 JYM      0.039700
     36 HAP2        6.6980   -2.7280   -0.3130 hc        1 JYM      0.039700
     37 HAQ1        4.7070   -2.8560   -1.8490 hc        1 JYM      0.042200
     38 HAQ2        4.2590   -3.0500   -0.1080 hc        1 JYM      0.042200
@<TRIPOS>BOND
     1    1    2 1   
     2    2    3 1   
     3    2    4 1   
     4    2    5 1   
     5    5    6 1   
     6    5    7 2   
     7    6    9 1   
     8    6   23 1   
     9    7    8 1   
    10    8    9 ar  
    11    8   14 ar  
    12    9   10 ar  
    13   10   11 ar  
    14   11   12 1   
    15   11   13 ar  
    16   12   24 1   
    17   12   25 1   
    18   13   14 ar  
    19   14   15 1   
    20   15   16 1   
    21   16   17 1   
    22   16   26 1   
    23   16   27 1   
    24   17   18 1   
    25   17   22 1   
    26   17   28 1   
    27   18   19 1   
    28   18   29 1   
    29   18   30 1   
    30   19   20 1   
    31   19   33 1   
    32   19   34 1   
    33   20   21 1   
    34   20   35 1   
    35   20   36 1   
    36   21   22 1   
    37   21   37 1   
    38   21   38 1   
    39   22   31 1   
    40   22   32 1   
@<TRIPOS>SUBSTRUCTURE
     1 JYM         1 TEMP              0 ****  ****    0 ROOT
