@<TRIPOS>MOLECULE
JZ0
   16    16     1     0     0
SMALL
bcc


@<TRIPOS>ATOM
      1 C9         -0.0020    0.0450   -0.0230 ca        1 JZ0     -0.101000
      2 C10         1.3930    0.0200   -0.0110 ca        1 JZ0     -0.161000
      3 C11         2.0820   -0.0690    1.1970 ca        1 JZ0     -0.097000
      4 C12         1.3810   -0.1330    2.3990 ca        1 JZ0     -0.209000
      5 C13        -0.0190   -0.1080    2.3800 ca        1 JZ0      0.119100
      6 C14        -0.7320   -0.0180    1.1650 ca        1 JZ0     -0.098300
      7 C15        -2.2100    0.0050    1.1710 c3        1 JZ0     -0.042800
      8 OAB        -0.7710   -0.1680    3.5330 oh        1 JZ0     -0.498100
      9 H9         -0.5390    0.1160   -0.9810 ha        1 JZ0      0.134000
     10 H10         1.9490    0.0710   -0.9590 ha        1 JZ0      0.133000
     11 H11         3.1820   -0.0880    1.2050 ha        1 JZ0      0.132000
     12 H12         1.9200   -0.2030    3.3550 ha        1 JZ0      0.132000
     13 H15        -2.6200    0.1360    0.1410 hc        1 JZ0      0.046700
     14 H15A       -2.6050   -0.9520    1.5980 hc        1 JZ0      0.046700
     15 H15B       -2.5780    0.8420    1.8170 hc        1 JZ0      0.046700
     16 HOAB       -0.1600   -0.2230    4.2820 ho        1 JZ0      0.417000
@<TRIPOS>BOND
     1    1    2 ar  
     2    1    6 ar  
     3    1    9 1   
     4    2    3 ar  
     5    2   10 1   
     6    3    4 ar  
     7    3   11 1   
     8    4    5 ar  
     9    4   12 1   
    10    5    6 ar  
    11    5    8 1   
    12    6    7 1   
    13    7   13 1   
    14    7   14 1   
    15    7   15 1   
    16    8   16 1   
@<TRIPOS>SUBSTRUCTURE
     1 JZ0         1 TEMP              0 ****  ****    0 ROOT
