@<TRIPOS>MOLECULE
JZ0
   16    16     1     0     0
SMALL
bcc


@<TRIPOS>ATOM
      1 C9         -0.6690   -1.3880    0.0760 ca        1 JZ0     -0.092000
      2 C10        -1.9010   -0.7410    0.0280 ca        1 JZ0     -0.163000
      3 C11        -1.9580    0.6530   -0.0230 ca        1 JZ0     -0.100000
      4 C12        -0.7890    1.4040   -0.0260 ca        1 JZ0     -0.155000
      5 C13         0.4510    0.7440    0.0230 ca        1 JZ0      0.125100
      6 C14         0.5270   -0.6610    0.0740 ca        1 JZ0     -0.159300
      7 C15         1.8310   -1.3580    0.1250 c3        1 JZ0     -0.054800
      8 OAB         1.5590    1.5620    0.0160 oh        1 JZ0     -0.500100
      9 H9         -0.6300   -2.4870    0.1160 ha        1 JZ0      0.131000
     10 H10        -2.8290   -1.3300    0.0300 ha        1 JZ0      0.133000
     11 H11        -2.9330    1.1620   -0.0610 ha        1 JZ0      0.134000
     12 H12        -0.8130    2.5020   -0.0650 ha        1 JZ0      0.149000
     13 H15         2.4440   -1.1140   -0.7790 hc        1 JZ0      0.044367
     14 H15A        2.4070   -1.0490    1.0350 hc        1 JZ0      0.044367
     15 H15B        1.6940   -2.4660    0.1620 hc        1 JZ0      0.044367
     16 HOAB        2.3500    1.0060    0.0520 ho        1 JZ0      0.420000
@<TRIPOS>BOND
     1    1    2 ar  
     2    1    6 ar  
     3    1    9 1   
     4    2    3 ar  
     5    2   10 1   
     6    3    4 ar  
     7    3   11 1   
     8    4    5 ar  
     9    4   12 1   
    10    5    6 ar  
    11    5    8 1   
    12    6    7 1   
    13    7   13 1   
    14    7   14 1   
    15    7   15 1   
    16    8   16 1   
@<TRIPOS>SUBSTRUCTURE
     1 JZ0         1 TEMP              0 ****  ****    0 ROOT
