@<TRIPOS>MOLECULE
JZ0
   16    16     1     0     0
SMALL
bcc


@<TRIPOS>ATOM
      1 C9          0.0020    0.0580   -0.0220 ca        1 JZ0     -0.101000
      2 C10         1.3970    0.0480   -0.0060 ca        1 JZ0     -0.161000
      3 C11         2.0830   -0.0450    1.2030 ca        1 JZ0     -0.097000
      4 C12         1.3790   -0.1270    2.4030 ca        1 JZ0     -0.209000
      5 C13        -0.0220   -0.1170    2.3800 ca        1 JZ0      0.119100
      6 C14        -0.7310   -0.0240    1.1630 ca        1 JZ0     -0.098300
      7 C15        -2.2100   -0.0160    1.1650 c3        1 JZ0     -0.042800
      8 OAB        -0.7760   -0.1960    3.5300 oh        1 JZ0     -0.498100
      9 H9         -0.5330    0.1310   -0.9810 ha        1 JZ0      0.134000
     10 H10         1.9550    0.1130   -0.9510 ha        1 JZ0      0.133000
     11 H11         3.1830   -0.0520    1.2150 ha        1 JZ0      0.132000
     12 H12         1.9150   -0.2000    3.3590 ha        1 JZ0      0.132000
     13 H15        -2.6180    0.1020    0.1320 hc        1 JZ0      0.046700
     14 H15A       -2.5970   -0.9730    1.5990 hc        1 JZ0      0.046700
     15 H15B       -2.5880    0.8230    1.8020 hc        1 JZ0      0.046700
     16 HOAB       -0.1670   -0.2520    4.2800 ho        1 JZ0      0.417000
@<TRIPOS>BOND
     1    1    2 ar  
     2    1    6 ar  
     3    1    9 1   
     4    2    3 ar  
     5    2   10 1   
     6    3    4 ar  
     7    3   11 1   
     8    4    5 ar  
     9    4   12 1   
    10    5    6 ar  
    11    5    8 1   
    12    6    7 1   
    13    7   13 1   
    14    7   14 1   
    15    7   15 1   
    16    8   16 1   
@<TRIPOS>SUBSTRUCTURE
     1 JZ0         1 TEMP              0 ****  ****    0 ROOT
