@<TRIPOS>MOLECULE
JZ1
   19    19     1     0     0
SMALL
bcc


@<TRIPOS>ATOM
      1 C7         -1.8730    1.2900    0.0350 ca        1 JZ1     -0.164000
      2 C8         -2.3880    0.0190   -0.2230 ca        1 JZ1     -0.099000
      3 C9         -1.5440   -1.0840   -0.2650 ca        1 JZ1     -0.157000
      4 C10        -0.1660   -0.9060   -0.0450 ca        1 JZ1      0.129100
      5 C11        -0.5090    1.4590    0.2550 ca        1 JZ1     -0.091000
      6 C12         0.3690    0.3680    0.2190 ca        1 JZ1     -0.159300
      7 C13         1.8210    0.5760    0.4700 c3        1 JZ1     -0.038100
      8 C14         2.6370    0.5270   -0.8000 c3        1 JZ1     -0.096100
      9 OAB         0.5900   -2.0550   -0.1050 oh        1 JZ1     -0.502100
     10 H7         -2.5450    2.1590    0.0670 ha        1 JZ1      0.133000
     11 H8         -3.4660   -0.1140   -0.3950 ha        1 JZ1      0.134000
     12 H9         -1.9290   -2.0940   -0.4660 ha        1 JZ1      0.149000
     13 H11        -0.1090    2.4640    0.4600 ha        1 JZ1      0.131000
     14 H13         1.9770    1.5710    0.9670 hc        1 JZ1      0.047200
     15 H13A        2.1950   -0.2020    1.1900 hc        1 JZ1      0.047200
     16 H14         2.4960   -0.4460   -1.3300 hc        1 JZ1      0.038367
     17 H14A        2.3310    1.3470   -1.4940 hc        1 JZ1      0.038367
     18 H14B        3.7220    0.6490   -0.5640 hc        1 JZ1      0.038367
     19 HOAB        1.5180   -1.8210    0.0410 ho        1 JZ1      0.422000
@<TRIPOS>BOND
     1    1    2 ar  
     2    1    5 ar  
     3    1   10 1   
     4    2    3 ar  
     5    2   11 1   
     6    3    4 ar  
     7    3   12 1   
     8    4    6 ar  
     9    4    9 1   
    10    5    6 ar  
    11    5   13 1   
    12    6    7 1   
    13    7    8 1   
    14    7   14 1   
    15    7   15 1   
    16    8   16 1   
    17    8   17 1   
    18    8   18 1   
    19    9   19 1   
@<TRIPOS>SUBSTRUCTURE
     1 JZ1         1 TEMP              0 ****  ****    0 ROOT
