@<TRIPOS>MOLECULE
JZ1
   19    19     1     0     0
SMALL
bcc


@<TRIPOS>ATOM
      1 C7          0.0310   -0.0190   -0.0430 ca        1 JZ1     -0.162000
      2 C8          1.4230   -0.0840   -0.0020 ca        1 JZ1     -0.096000
      3 C9          2.0860   -0.1110    1.2230 ca        1 JZ1     -0.211000
      4 C10         1.3420   -0.0700    2.4100 ca        1 JZ1      0.123100
      5 C11        -0.7030    0.0200    1.1430 ca        1 JZ1     -0.098000
      6 C12        -0.0670   -0.0040    2.3860 ca        1 JZ1     -0.099300
      7 C13        -0.8500    0.0310    3.6500 c3        1 JZ1     -0.027100
      8 C14        -0.8810    1.4130    4.2580 c3        1 JZ1     -0.088100
      9 OAB         1.9450   -0.0930    3.6490 oh        1 JZ1     -0.498100
     10 H7         -0.4900    0.0010   -1.0100 ha        1 JZ1      0.133000
     11 H8          2.0020   -0.1160   -0.9360 ha        1 JZ1      0.132000
     12 H9          3.1830   -0.1640    1.2610 ha        1 JZ1      0.132000
     13 H11        -1.8020    0.0690    1.1030 ha        1 JZ1      0.134000
     14 H13        -1.8990   -0.3180    3.4540 hc        1 JZ1      0.049700
     15 H13A       -0.3870   -0.6830    4.3850 hc        1 JZ1      0.049700
     16 H14         0.1580    1.7580    4.4800 hc        1 JZ1      0.036033
     17 H14A       -1.3560    2.1440    3.5600 hc        1 JZ1      0.036033
     18 H14B       -1.4640    1.4000    5.2090 hc        1 JZ1      0.036033
     19 HOAB        2.9000   -0.1740    3.5120 ho        1 JZ1      0.417000
@<TRIPOS>BOND
     1    1    2 ar  
     2    1    5 ar  
     3    1   10 1   
     4    2    3 ar  
     5    2   11 1   
     6    3    4 ar  
     7    3   12 1   
     8    4    6 ar  
     9    4    9 1   
    10    5    6 ar  
    11    5   13 1   
    12    6    7 1   
    13    7    8 1   
    14    7   14 1   
    15    7   15 1   
    16    8   16 1   
    17    8   17 1   
    18    8   18 1   
    19    9   19 1   
@<TRIPOS>SUBSTRUCTURE
     1 JZ1         1 TEMP              0 ****  ****    0 ROOT
