@<TRIPOS>MOLECULE
JZ1
   19    19     1     0     0
SMALL
bcc


@<TRIPOS>ATOM
      1 C7          0.0280   -0.0070   -0.0440 ca        1 JZ1     -0.162000
      2 C8          1.4200   -0.0680   -0.0050 ca        1 JZ1     -0.096000
      3 C9          2.0850   -0.1000    1.2180 ca        1 JZ1     -0.211000
      4 C10         1.3430   -0.0680    2.4060 ca        1 JZ1      0.123100
      5 C11        -0.7040    0.0230    1.1430 ca        1 JZ1     -0.098000
      6 C12        -0.0660   -0.0060    2.3850 ca        1 JZ1     -0.099300
      7 C13        -0.8480    0.0200    3.6500 c3        1 JZ1     -0.027100
      8 C14        -0.8800    1.3990    4.2670 c3        1 JZ1     -0.088100
      9 OAB         1.9480   -0.0960    3.6440 oh        1 JZ1     -0.498100
     10 H7         -0.4950    0.0170   -1.0100 ha        1 JZ1      0.133000
     11 H8          1.9980   -0.0920   -0.9410 ha        1 JZ1      0.132000
     12 H9          3.1830   -0.1490    1.2540 ha        1 JZ1      0.132000
     13 H11        -1.8030    0.0700    1.1050 ha        1 JZ1      0.134000
     14 H13        -1.8970   -0.3290    3.4540 hc        1 JZ1      0.049700
     15 H13A       -0.3820   -0.6980    4.3800 hc        1 JZ1      0.049700
     16 H14         0.1590    1.7440    4.4890 hc        1 JZ1      0.036033
     17 H14A       -1.3580    2.1320    3.5740 hc        1 JZ1      0.036033
     18 H14B       -1.4620    1.3780    5.2190 hc        1 JZ1      0.036033
     19 HOAB        2.9030   -0.1720    3.5050 ho        1 JZ1      0.417000
@<TRIPOS>BOND
     1    1    2 ar  
     2    1    5 ar  
     3    1   10 1   
     4    2    3 ar  
     5    2   11 1   
     6    3    4 ar  
     7    3   12 1   
     8    4    6 ar  
     9    4    9 1   
    10    5    6 ar  
    11    5   13 1   
    12    6    7 1   
    13    7    8 1   
    14    7   14 1   
    15    7   15 1   
    16    8   16 1   
    17    8   17 1   
    18    8   18 1   
    19    9   19 1   
@<TRIPOS>SUBSTRUCTURE
     1 JZ1         1 TEMP              0 ****  ****    0 ROOT
