@<TRIPOS>MOLECULE
JZ2
   16    16     1     0     0
SMALL
bcc


@<TRIPOS>ATOM
      1 CL          0.0310   -0.0480    0.0270 cl        1 JZ2     -0.093400
      2 C14         1.7310   -0.0400    0.0050 ca        1 JZ2      0.049400
      3 C5          2.4310   -0.1230    1.2110 ca        1 JZ2     -0.208000
      4 C6          3.8310   -0.1160    1.1800 ca        1 JZ2      0.129100
      5 C11         4.5400   -0.0280   -0.0380 ca        1 JZ2     -0.096300
      6 C7          6.0180   -0.0230   -0.0380 c3        1 JZ2     -0.043800
      7 C12         3.8050    0.0540   -1.2220 ca        1 JZ2     -0.094000
      8 C13         2.4100    0.0480   -1.2120 ca        1 JZ2     -0.155000
      9 OAB         4.5870   -0.1950    2.3280 oh        1 JZ2     -0.494100
     10 H5          1.8960   -0.1930    2.1680 ha        1 JZ2      0.148000
     11 H7          6.3980    0.8370    0.5700 hc        1 JZ2      0.049033
     12 H7A         6.4030   -0.9650    0.4280 hc        1 JZ2      0.049033
     13 H7B         6.4260    0.0600   -1.0750 hc        1 JZ2      0.049033
     14 H12         4.3380    0.1240   -2.1830 ha        1 JZ2      0.140000
     15 H13         1.8530    0.1130   -2.1580 ha        1 JZ2      0.149000
     16 HOAB        3.9810   -0.2500    3.0810 ho        1 JZ2      0.421000
@<TRIPOS>BOND
     1    1    2 1   
     2    2    3 ar  
     3    2    8 ar  
     4    3    4 ar  
     5    3   10 1   
     6    4    5 ar  
     7    4    9 1   
     8    5    6 1   
     9    5    7 ar  
    10    6   11 1   
    11    6   12 1   
    12    6   13 1   
    13    7    8 ar  
    14    7   14 1   
    15    8   15 1   
    16    9   16 1   
@<TRIPOS>SUBSTRUCTURE
     1 JZ2         1 TEMP              0 ****  ****    0 ROOT
