@<TRIPOS>MOLECULE
JZ2
   16    16     1     0     0
SMALL
bcc


@<TRIPOS>ATOM
      1 Cl          0.0320   -0.0910    0.0110 cl        1 JZ2     -0.093400
      2 C14         1.7320   -0.0650   -0.0040 ca        1 JZ2      0.049400
      3 C5          2.4280   -0.1290    1.2060 ca        1 JZ2     -0.208000
      4 C6          3.8280   -0.1060    1.1810 ca        1 JZ2      0.129100
      5 C11         4.5400   -0.0210   -0.0350 ca        1 JZ2     -0.096300
      6 C7          6.0190   -0.0020   -0.0290 c3        1 JZ2     -0.043800
      7 C12         3.8100    0.0410   -1.2230 ca        1 JZ2     -0.094000
      8 C13         2.4160    0.0200   -1.2190 ca        1 JZ2     -0.155000
      9 OAB         4.5800   -0.1660    2.3320 oh        1 JZ2     -0.494100
     10 H5          1.8890   -0.1950    2.1620 ha        1 JZ2      0.148000
     11 H7          6.3880    0.8420    0.6070 hc        1 JZ2      0.049367
     12 H7A         6.4110   -0.9540    0.4080 hc        1 JZ2      0.049367
     13 H7B         6.4290    0.1180   -1.0610 hc        1 JZ2      0.049367
     14 H12         4.3460    0.1080   -2.1830 ha        1 JZ2      0.140000
     15 H13         1.8610    0.0700   -2.1670 ha        1 JZ2      0.149000
     16 HOAB        3.9710   -0.2170    3.0840 ho        1 JZ2      0.421000
@<TRIPOS>BOND
     1    1    2 1   
     2    2    3 ar  
     3    2    8 ar  
     4    3    4 ar  
     5    3   10 1   
     6    4    5 ar  
     7    4    9 1   
     8    5    6 1   
     9    5    7 ar  
    10    6   11 1   
    11    6   12 1   
    12    6   13 1   
    13    7    8 ar  
    14    7   14 1   
    15    8   15 1   
    16    9   16 1   
@<TRIPOS>SUBSTRUCTURE
     1 JZ2         1 TEMP              0 ****  ****    0 ROOT
