@<TRIPOS>MOLECULE
JZ2
   16    16     1     0     0
SMALL
bcc


@<TRIPOS>ATOM
      1 CL         -2.8410    0.1260   -0.0650 cl        1 JZ2     -0.090400
      2 C14        -1.1580   -0.1050   -0.0200 ca        1 JZ2      0.046400
      3 C5         -0.3190    1.0020    0.0960 ca        1 JZ2     -0.152000
      4 C6          1.0710    0.7950    0.1320 ca        1 JZ2      0.134100
      5 C11         1.6210   -0.4980    0.0530 ca        1 JZ2     -0.158300
      6 C7          3.0840   -0.7130    0.0910 c3        1 JZ2     -0.055800
      7 C12         0.7460   -1.5840   -0.0620 ca        1 JZ2     -0.085000
      8 C13        -0.6330   -1.4000   -0.1000 ca        1 JZ2     -0.158000
      9 OAB         1.8310    1.9370    0.2470 oh        1 JZ2     -0.495100
     10 H5         -0.7150    2.0260    0.1600 ha        1 JZ2      0.165000
     11 H7          3.5140   -0.3220    1.0480 hc        1 JZ2      0.046367
     12 H7A         3.3340   -1.8000    0.0170 hc        1 JZ2      0.046367
     13 H7B         3.5820   -0.1840   -0.7610 hc        1 JZ2      0.046367
     14 H12         1.1560   -2.6040   -0.1250 ha        1 JZ2      0.138000
     15 H13        -1.3040   -2.2660   -0.1910 ha        1 JZ2      0.149000
     16 HOAB        2.7650    1.6820    0.2630 ho        1 JZ2      0.423000
@<TRIPOS>BOND
     1    1    2 1   
     2    2    3 ar  
     3    2    8 ar  
     4    3    4 ar  
     5    3   10 1   
     6    4    5 ar  
     7    4    9 1   
     8    5    6 1   
     9    5    7 ar  
    10    6   11 1   
    11    6   12 1   
    12    6   13 1   
    13    7    8 ar  
    14    7   14 1   
    15    8   15 1   
    16    9   16 1   
@<TRIPOS>SUBSTRUCTURE
     1 JZ2         1 TEMP              0 ****  ****    0 ROOT
