@<TRIPOS>MOLECULE
JZ3
   17    17     1     0     0
SMALL
bcc


@<TRIPOS>ATOM
      1 CAA         0.1100   -0.0860   -0.0840 c3        1 JZ3      0.122700
      2 OAG         1.5280   -0.1250    0.0150 os        1 JZ3     -0.349900
      3 CAI         2.0480   -0.0720    1.2990 ca        1 JZ3      0.041100
      4 CAF         1.2920    0.0140    2.4690 ca        1 JZ3     -0.161000
      5 CAD         1.9420    0.0610    3.7040 ca        1 JZ3     -0.135000
      6 CAC         3.3320    0.0220    3.7740 ca        1 JZ3     -0.126000
      7 CAE         4.0990   -0.0640    2.6130 ca        1 JZ3     -0.137000
      8 CAH         3.4610   -0.1110    1.3680 ca        1 JZ3      0.110100
      9 OAB         4.2600   -0.1960    0.2530 oh        1 JZ3     -0.496100
     10 HAA        -0.2880    0.8690    0.3380 h1        1 JZ3      0.045033
     11 HAAA       -0.0750   -0.1400   -1.1870 h1        1 JZ3      0.045033
     12 HAAB       -0.3450   -0.9640    0.4360 h1        1 JZ3      0.045033
     13 HAF         0.1950    0.0450    2.4280 ha        1 JZ3      0.137000
     14 HAD         1.3460    0.1290    4.6250 ha        1 JZ3      0.134000
     15 HAC         3.8350    0.0590    4.7520 ha        1 JZ3      0.135000
     16 HAE         5.1970   -0.0950    2.6540 ha        1 JZ3      0.152000
     17 HOAB        3.6870   -0.2200   -0.5280 ho        1 JZ3      0.436000
@<TRIPOS>BOND
     1    1    2 1   
     2    1   10 1   
     3    1   11 1   
     4    1   12 1   
     5    2    3 1   
     6    3    4 ar  
     7    3    8 ar  
     8    4    5 ar  
     9    4   13 1   
    10    5    6 ar  
    11    5   14 1   
    12    6    7 ar  
    13    6   15 1   
    14    7    8 ar  
    15    7   16 1   
    16    8    9 1   
    17    9   17 1   
@<TRIPOS>SUBSTRUCTURE
     1 JZ3         1 TEMP              0 ****  ****    0 ROOT
