@<TRIPOS>MOLECULE
JZ3
   17    17     1     0     0
SMALL
bcc


@<TRIPOS>ATOM
      1 CAA         0.0890   -0.2000   -0.0550 c3        1 JZ3      0.122700
      2 OAG         1.5090   -0.1790    0.0250 os        1 JZ3     -0.349900
      3 CAI         2.0430   -0.0820    1.3010 ca        1 JZ3      0.041100
      4 CAF         1.3000   -0.0130    2.4800 ca        1 JZ3     -0.161000
      5 CAD         1.9640    0.0820    3.7040 ca        1 JZ3     -0.135000
      6 CAC         3.3560    0.1080    3.7550 ca        1 JZ3     -0.126000
      7 CAE         4.1100    0.0400    2.5840 ca        1 JZ3     -0.137000
      8 CAH         3.4570   -0.0550    1.3490 ca        1 JZ3      0.110100
      9 OAB         4.2450   -0.1190    0.2240 oh        1 JZ3     -0.496100
     10 HAA        -0.3420    0.7440    0.3590 h1        1 JZ3      0.045033
     11 HAAA       -0.1080   -0.2760   -1.1540 h1        1 JZ3      0.045033
     12 HAAB       -0.3220   -1.0880    0.4840 h1        1 JZ3      0.045033
     13 HAF         0.2020   -0.0330    2.4530 ha        1 JZ3      0.137000
     14 HAD         1.3780    0.1360    4.6330 ha        1 JZ3      0.134000
     15 HAC         3.8690    0.1830    4.7250 ha        1 JZ3      0.135000
     16 HAE         5.2080    0.0600    2.6100 ha        1 JZ3      0.152000
     17 HOAB        3.6620   -0.1810   -0.5480 ho        1 JZ3      0.436000
@<TRIPOS>BOND
     1    1    2 1   
     2    1   10 1   
     3    1   11 1   
     4    1   12 1   
     5    2    3 1   
     6    3    4 ar  
     7    3    8 ar  
     8    4    5 ar  
     9    4   13 1   
    10    5    6 ar  
    11    5   14 1   
    12    6    7 ar  
    13    6   15 1   
    14    7    8 ar  
    15    7   16 1   
    16    8    9 1   
    17    9   17 1   
@<TRIPOS>SUBSTRUCTURE
     1 JZ3         1 TEMP              0 ****  ****    0 ROOT
