@<TRIPOS>MOLECULE
JZ3
   17    17     1     0     0
SMALL
bcc


@<TRIPOS>ATOM
      1 CAA         2.7720    0.5340    0.0950 c3        1 JZ3      0.122700
      2 OAG         1.7270   -0.4310    0.1160 os        1 JZ3     -0.349900
      3 CAI         0.4360    0.0710    0.0660 ca        1 JZ3      0.041100
      4 CAF         0.1030    1.4250   -0.0020 ca        1 JZ3     -0.161000
      5 CAD        -1.2410    1.7990   -0.0470 ca        1 JZ3     -0.135000
      6 CAC        -2.2460    0.8340   -0.0250 ca        1 JZ3     -0.126000
      7 CAE        -1.9260   -0.5210    0.0430 ca        1 JZ3     -0.137000
      8 CAH        -0.5820   -0.9110    0.0890 ca        1 JZ3      0.110100
      9 OAB        -0.3190   -2.2580    0.1550 oh        1 JZ3     -0.496100
     10 HAA         2.7410    1.1270   -0.8520 h1        1 JZ3      0.045033
     11 HAAA        2.7010    1.2090    0.9820 h1        1 JZ3      0.045033
     12 HAAB        3.7010   -0.0880    0.1420 h1        1 JZ3      0.045033
     13 HAF         0.8860    2.1960   -0.0200 ha        1 JZ3      0.137000
     14 HAD        -1.5030    2.8650   -0.1010 ha        1 JZ3      0.134000
     15 HAC        -3.3020    1.1390   -0.0610 ha        1 JZ3      0.135000
     16 HAE        -2.7090   -1.2920    0.0610 ha        1 JZ3      0.152000
     17 HOAB        0.6430   -2.3760    0.1800 ho        1 JZ3      0.436000
@<TRIPOS>BOND
     1    1    2 1   
     2    1   10 1   
     3    1   11 1   
     4    1   12 1   
     5    2    3 1   
     6    3    4 ar  
     7    3    8 ar  
     8    4    5 ar  
     9    4   13 1   
    10    5    6 ar  
    11    5   14 1   
    12    6    7 ar  
    13    6   15 1   
    14    7    8 ar  
    15    7   16 1   
    16    8    9 1   
    17    9   17 1   
@<TRIPOS>SUBSTRUCTURE
     1 JZ3         1 TEMP              0 ****  ****    0 ROOT
