@<TRIPOS>MOLECULE
JZ4
   22    21     1     0     0
SMALL
bcc


@<TRIPOS>ATOM
      1 C4          0.1320    1.2840   -0.8290 c3        1 JZ4     -0.313000
      2 C7          6.3060   -0.1430    1.7890 c2        1 JZ4     -0.084000
      3 C8          6.1180    1.1440    1.4190 c2        1 JZ4     -0.215000
      4 C9          4.8410    1.6570    1.0360 c1        1 JZ4     -0.027000
      5 C10         3.7090    0.8030    1.3080 c2        1 JZ4      0.000000
      6 C11         5.1820   -1.0980    1.8940 c3        1 JZ4     -0.131000
      7 C12         3.8370   -0.5150    1.6590 c2        1 JZ4     -0.154000
      8 C13         2.6910   -1.4350    1.8090 c3        1 JZ4     -0.207000
      9 C14         0.4160   -0.0670   -0.4380 c1        1 JZ4     -0.100000
     10 H4         -0.4330    1.7870    0.0040 hc        1 JZ4      0.125667
     11 H4A        -0.4220    1.4400   -1.7880 hc        1 JZ4      0.125667
     12 H4B         1.1280    1.8190   -0.8880 hc        1 JZ4      0.125667
     13 H7          5.1970   -1.5590    2.9240 hc        1 JZ4      0.128000
     14 H8          7.3050   -0.5530    2.0080 ha        1 JZ4      0.128000
     15 H9          6.9650    1.8470    1.3540 ha        1 JZ4      0.148000
     16 H11         5.3500   -1.9400    1.1610 hc        1 JZ4      0.128000
     17 H13         3.0240   -2.5020    1.8260 hc        1 JZ4      0.097333
     18 H13A        2.1520   -1.2210    2.7670 hc        1 JZ4      0.097333
     19 H14         1.9570   -1.3060    0.9670 hc        1 JZ4      0.097333
     20 H14A        0.1400   -0.8740   -1.1310 ha        1 JZ4      0.048000
     21 HOAB        1.7910    0.7500    1.1490 ho        1 JZ4      0.233000
     22 OAB         2.4950    1.4250    1.1420 oh        1 JZ4     -0.251000
@<TRIPOS>BOND
     1    1    9 1   
     2    1   10 1   
     3    1   11 1   
     4    1   12 1   
     5    2    3 1   
     6    2    6 1   
     7    2   14 1   
     8    3    4 1   
     9    3   15 1   
    10    4    5 1   
    11    5    7 1   
    12    5   22 1   
    13    6    7 1   
    14    6   13 1   
    15    6   16 1   
    16    7    8 1   
    17    8   17 1   
    18    8   18 1   
    19    8   19 1   
    20    9   20 1   
    21   21   22 1   
@<TRIPOS>SUBSTRUCTURE
     1 JZ4         1 TEMP              0 ****  ****    0 ROOT
