@<TRIPOS>MOLECULE
JZ4
   22    22     1     0     0
SMALL
bcc


@<TRIPOS>ATOM
      1 C4          3.7400   -0.2210    0.2870 c3        1 JZ4     -0.095100
      2 C7         -2.1580   -1.4630   -0.0050 ca        1 JZ4     -0.165000
      3 C8         -2.7960   -0.2600    0.3010 ca        1 JZ4     -0.099000
      4 C9         -2.0770    0.9290    0.3240 ca        1 JZ4     -0.157000
      5 C10        -0.7010    0.9070    0.0360 ca        1 JZ4      0.129100
      6 C11        -0.7960   -1.4770   -0.2910 ca        1 JZ4     -0.091000
      7 C12        -0.0430   -0.2970   -0.2770 ca        1 JZ4     -0.159300
      8 C13         1.4090   -0.3400   -0.6000 c3        1 JZ4     -0.037100
      9 C14         2.2760   -0.2290    0.6410 c3        1 JZ4     -0.083400
     10 H4          4.3610   -0.1450    1.2120 hc        1 JZ4      0.035033
     11 H4A         4.0210   -1.1600   -0.2500 hc        1 JZ4      0.035033
     12 H4B         3.9840    0.6450   -0.3730 hc        1 JZ4      0.035033
     13 H7         -2.7320   -2.4010   -0.0200 ha        1 JZ4      0.133000
     14 H8         -3.8730   -0.2490    0.5260 ha        1 JZ4      0.134000
     15 H9         -2.5600    1.8870    0.5610 ha        1 JZ4      0.149000
     16 H11        -0.2990   -2.4290   -0.5330 ha        1 JZ4      0.131000
     17 H13         1.6490   -1.3030   -1.1270 hc        1 JZ4      0.047700
     18 H13A        1.6650    0.4880   -1.3150 hc        1 JZ4      0.047700
     19 H14         2.0550   -1.0900    1.3250 hc        1 JZ4      0.045200
     20 H14A        2.0150    0.7090    1.2020 hc        1 JZ4      0.045200
     21 HOAB        0.8660    2.0040   -0.1190 ho        1 JZ4      0.422000
     22 OAB        -0.0730    2.1320    0.0830 oh        1 JZ4     -0.502100
@<TRIPOS>BOND
     1    1    9 1   
     2    1   10 1   
     3    1   11 1   
     4    1   12 1   
     5    2    3 ar  
     6    2    6 ar  
     7    2   13 1   
     8    3    4 ar  
     9    3   14 1   
    10    4    5 ar  
    11    4   15 1   
    12    5    7 ar  
    13    5   22 1   
    14    6    7 ar  
    15    6   16 1   
    16    7    8 1   
    17    8    9 1   
    18    8   17 1   
    19    8   18 1   
    20    9   19 1   
    21    9   20 1   
    22   21   22 1   
@<TRIPOS>SUBSTRUCTURE
     1 JZ4         1 TEMP              0 ****  ****    0 ROOT
