@<TRIPOS>MOLECULE
JZ4
   22    21     1     0     0
SMALL
bcc


@<TRIPOS>ATOM
      1 C4          0.1300    1.2230   -0.8670 c3        1 JZ4     -0.313000
      2 C7          6.3030   -0.1010    1.8040 c2        1 JZ4     -0.084000
      3 C8          6.1060    1.1770    1.4090 c2        1 JZ4     -0.215000
      4 C9          4.8260    1.6720    1.0110 c1        1 JZ4     -0.027000
      5 C10         3.7000    0.8140    1.2960 c2        1 JZ4      0.000000
      6 C11         5.1870   -1.0630    1.9240 c3        1 JZ4     -0.131000
      7 C12         3.8380   -0.4960    1.6730 c2        1 JZ4     -0.154000
      8 C13         2.6990   -1.4220    1.8360 c3        1 JZ4     -0.207000
      9 C14         0.4250   -0.1180   -0.4480 c1        1 JZ4     -0.100000
     10 H4         -0.4440    1.7370   -0.0460 hc        1 JZ4      0.125667
     11 H4A        -0.4190    1.3550   -1.8320 hc        1 JZ4      0.125667
     12 H4B         1.1220    1.7660   -0.9300 hc        1 JZ4      0.125667
     13 H7          5.2020   -1.5040    2.9630 hc        1 JZ4      0.128000
     14 H8          7.3050   -0.4970    2.0360 ha        1 JZ4      0.128000
     15 H9          6.9480    1.8860    1.3330 ha        1 JZ4      0.148000
     16 H11         5.3650   -1.9170    1.2080 hc        1 JZ4      0.128000
     17 H13         3.0410   -2.4850    1.8760 hc        1 JZ4      0.097333
     18 H13A        2.1550   -1.1930    2.7880 hc        1 JZ4      0.097333
     19 H14         1.9680   -1.3150    0.9890 hc        1 JZ4      0.097333
     20 H14A        0.1600   -0.9400   -1.1270 ha        1 JZ4      0.048000
     21 HOAB        1.7840    0.7410    1.1310 ho        1 JZ4      0.233000
     22 OAB         2.4820    1.4230    1.1130 oh        1 JZ4     -0.251000
@<TRIPOS>BOND
     1    1    9 1   
     2    1   10 1   
     3    1   11 1   
     4    1   12 1   
     5    2    3 1   
     6    2    6 1   
     7    2   14 1   
     8    3    4 1   
     9    3   15 1   
    10    4    5 1   
    11    5    7 1   
    12    5   22 1   
    13    6    7 1   
    14    6   13 1   
    15    6   16 1   
    16    7    8 1   
    17    8   17 1   
    18    8   18 1   
    19    8   19 1   
    20    9   20 1   
    21   21   22 1   
@<TRIPOS>SUBSTRUCTURE
     1 JZ4         1 TEMP              0 ****  ****    0 ROOT
