@<TRIPOS>MOLECULE
JZ4
   22    19     1     0     0
SMALL
bcc


@<TRIPOS>ATOM
      1 C4         -3.1430    0.6010   -0.8700 c3        1 JZ4     -0.093100
      2 C7          1.7670   -1.9440    0.9970 c1        1 JZ4     -0.084250
      3 C8          2.8680   -1.2370    0.5420 c1        1 JZ4     -0.084250
      4 C9          2.7090    0.0410    0.0300 c1        1 JZ4     -0.084250
      5 C10         1.4470    0.6120   -0.0270 c1        1 JZ4      0.107600
      6 C11         0.5050   -1.3730    0.9400 c1        1 JZ4     -0.084250
      7 C12         0.3450   -0.0950    0.4280 c1        1 JZ4     -0.064100
      8 C13        -1.0260    0.5430    0.4020 c3        1 JZ4     -0.066300
      9 C14        -1.6580    0.3250   -0.9550 c3        1 JZ4     -0.075400
     10 OAB         1.2810    1.8990   -0.5720 oh        1 JZ4     -0.482600
     11 H4         -3.5550   -0.0230   -0.2360 hc        1 JZ4      0.032700
     12 H4A        -3.5480    0.4830   -1.7550 hc        1 JZ4      0.032700
     13 H4B        -3.2880    1.5210   -0.5650 hc        1 JZ4      0.032700
     14 H7          1.8790   -2.8440    1.3570 ha        1 JZ4      0.075250
     15 H8          3.7570   -1.6390    0.5820 ha        1 JZ4      0.075250
     16 H9          3.4850    0.5390   -0.2910 ha        1 JZ4      0.075250
     17 H11        -0.2710   -1.8710    1.2610 ha        1 JZ4      0.075250
     18 H13        -0.9430    1.5030    0.5720 hc        1 JZ4      0.055200
     19 H13A       -1.5880    0.1370    1.0920 hc        1 JZ4      0.055200
     20 H14        -1.5140   -0.6000   -1.2370 hc        1 JZ4      0.041700
     21 H14A       -1.2500    0.9320   -1.6050 hc        1 JZ4      0.041700
     22 HOAB        1.7420    2.4870   -0.0900 ho        1 JZ4      0.418000
@<TRIPOS>BOND
     1    1    9 1   
     2    1   11 1   
     3    1   12 1   
     4    1   13 1   
     5    2    6 3   
     6    2   14 1   
     7    3    4 3   
     8    3   15 1   
     9    4   16 1   
    10    5    7 3   
    11    5   10 1   
    12    6   17 1   
    13    7    8 1   
    14    8    9 1   
    15    8   18 1   
    16    8   19 1   
    17    9   20 1   
    18    9   21 1   
    19   10   22 1   
@<TRIPOS>SUBSTRUCTURE
     1 JZ4         1 TEMP              0 ****  ****    0 ROOT
