@<TRIPOS>MOLECULE
JZ5
   13    13     1     0     0
SMALL
bcc


@<TRIPOS>ATOM
      1 OAB         2.4510    0.8300   -0.0000 oh        1 JZ5     -0.363500
      2 CAC        -2.4400   -0.6180    0.0010 cc        1 JZ5     -0.162000
      3 CAD        -2.1860    0.7410    0.0000 cd        1 JZ5     -0.189100
      4 CAE        -1.2330   -1.3700    0.0010 cc        1 JZ5     -0.135000
      5 NAF         2.4010   -0.4830   -0.0000 n2        1 JZ5     -0.455200
      6 SAG        -0.5610    1.0690    0.0000 ss        1 JZ5      0.114200
      7 CAH         1.2380   -1.0650    0.0000 cf        1 JZ5      0.450800
      8 CAI        -0.1100   -0.5480    0.0000 cd        1 JZ5     -0.215000
      9 HOAB        3.4070    1.0400   -0.0010 ho        1 JZ5      0.441000
     10 HAD        -2.9490    1.5190    0.0000 h4        1 JZ5      0.172000
     11 HAE        -1.2030   -2.4620    0.0010 ha        1 JZ5      0.153000
     12 HAH         1.3130   -2.1750    0.0010 h4        1 JZ5      0.033800
     13 HAC        -3.4320   -1.0730    0.0010 ha        1 JZ5      0.154000
@<TRIPOS>BOND
     1    1    5 1   
     2    1    9 1   
     3    2    3 2   
     4    2    4 1   
     5    2   13 1   
     6    3    6 1   
     7    3   10 1   
     8    4    8 2   
     9    4   11 1   
    10    5    7 2   
    11    6    8 1   
    12    7    8 1   
    13    7   12 1   
@<TRIPOS>SUBSTRUCTURE
     1 JZ5         1 TEMP              0 ****  ****    0 ROOT
