@<TRIPOS>MOLECULE
JZ5
   13    13     1     0     0
SMALL
bcc


@<TRIPOS>ATOM
      1 OAB         0.0760    0.0000   -0.2350 oh        1 JZ5     -0.363500
      2 CAC         1.0560   -0.0000    4.7710 cc        1 JZ5     -0.162000
      3 CAD        -0.2740   -0.0000    4.3900 cd        1 JZ5     -0.189100
      4 CAE         1.9190   -0.0000    3.6410 cc        1 JZ5     -0.135000
      5 NAF         1.3780    0.0000   -0.0610 n2        1 JZ5     -0.455200
      6 SAG        -0.4470   -0.0000    2.7420 ss        1 JZ5      0.114200
      7 CAH         1.8480    0.0000    1.1520 cf        1 JZ5      0.450800
      8 CAI         1.2060   -0.0000    2.4450 cd        1 JZ5     -0.215000
      9 HOAB       -0.0430    0.0000   -1.2060 ho        1 JZ5      0.441000
     10 HAD        -1.1190   -0.0000    5.0760 h4        1 JZ5      0.172000
     11 HAE         3.0080   -0.0000    3.7140 ha        1 JZ5      0.153000
     12 HAH         2.9600   -0.0000    1.1820 h4        1 JZ5      0.033800
     13 HAC         1.4150    0.0000    5.8020 ha        1 JZ5      0.154000
@<TRIPOS>BOND
     1    1    5 1   
     2    1    9 1   
     3    2    3 2   
     4    2    4 1   
     5    2   13 1   
     6    3    6 1   
     7    3   10 1   
     8    4    8 2   
     9    4   11 1   
    10    5    7 2   
    11    6    8 1   
    12    7    8 1   
    13    7   12 1   
@<TRIPOS>SUBSTRUCTURE
     1 JZ5         1 TEMP              0 ****  ****    0 ROOT
