@<TRIPOS>MOLECULE
JZ5
   13     9     1     0     0
SMALL
bcc


@<TRIPOS>ATOM
      1 OAB        -0.9440   -0.1320   -2.6000 oh        1 JZ5     -0.462000
      2 CAC        -0.4260   -0.1710    2.1940 cg        1 JZ5     -0.148500
      3 CAD        -0.2220    1.2290    1.8720 c1        1 JZ5     -0.204900
      4 CAE        -0.0810   -1.0370    0.9030 cg        1 JZ5     -0.148500
      5 NAF         0.4240   -0.1320   -2.6000 n1        1 JZ5     -0.394800
      6 SAG         0.2500    1.3150    0.3970 ss        1 JZ5      0.203800
      7 CAH         1.0770   -0.1320   -1.4690 c1        1 JZ5      0.333300
      8 CAI         0.3210   -0.1320   -0.1580 c1        1 JZ5     -0.204900
      9 HOAB       -1.2400   -0.1260   -3.4370 ho        1 JZ5      0.441000
     10 HAC        -0.7230   -0.5230    3.0550 DU        1 JZ5      0.159667
     11 HAD        -0.3580    1.9830    2.4770 DU        1 JZ5      0.159667
     12 HAE        -0.1300   -2.0090    0.8360 DU        1 JZ5      0.159667
     13 HAH         2.0530   -0.1320   -1.4690 ha        1 JZ5      0.105500
@<TRIPOS>BOND
     1    1    5 1   
     2    1    9 1   
     3    2    3 3   
     4    2    4 1   
     5    3    6 1   
     6    4    8 3   
     7    5    7 3   
     8    6    8 1   
     9    7   13 1   
@<TRIPOS>SUBSTRUCTURE
     1 JZ5         1 TEMP              0 ****  ****    0 ROOT
