@<TRIPOS>MOLECULE
JZ6
    9     6     1     0     0
SMALL
bcc


@<TRIPOS>ATOM
      1 CLAA       -2.5990   -0.0000    0.3280 cl        1 JZ6     -0.044400
      2 CAB         0.1010   -0.0000    0.9650 cg        1 JZ6      0.158000
      3 CAC        -0.2890   -0.0000   -1.2070 c1        1 JZ6      0.149000
      4 NAD         1.2900   -0.0000    0.3280 n1        1 JZ6     -0.548600
      5 NAE         1.0480   -0.0000   -1.0230 ne        1 JZ6     -0.234600
      6 CAF        -0.8840   -0.0000    0.0210 ce        1 JZ6     -0.132400
      7 HAB        -0.0310   -0.0000    1.9330 DU        1 JZ6      0.217333
      8 HAC        -0.7490    0.0000   -2.0680 DU        1 JZ6      0.217333
      9 HNAD        2.1120    0.0000    0.7250 DU        1 JZ6      0.217333
@<TRIPOS>BOND
     1    1    6 1   
     2    2    4 3   
     3    2    6 1   
     4    3    5 2   
     5    3    6 2   
     6    4    5 1   
@<TRIPOS>SUBSTRUCTURE
     1 JZ6         1 TEMP              0 ****  ****    0 ROOT
