@<TRIPOS>MOLECULE
JZ6
    9     9     1     0     0
SMALL
bcc


@<TRIPOS>ATOM
      1 CLAA        1.9420    0.0220    0.0010 cl        1 JZ6     -0.038400
      2 CAB        -0.5640   -1.1330    0.0010 cc        1 JZ6     -0.137300
      3 CAC        -0.6140    1.1340   -0.0000 cd        1 JZ6      0.309200
      4 NAD        -1.8650   -0.6300    0.0010 na        1 JZ6     -0.017600
      5 NAE        -1.9010    0.7030   -0.0000 nc        1 JZ6     -0.507800
      6 CAF         0.2800   -0.0070    0.0010 cd        1 JZ6     -0.173900
      7 HAB        -0.3400   -2.1980    0.0020 h4        1 JZ6      0.186000
      8 HAC        -0.3450    2.1910   -0.0010 h4        1 JZ6      0.053100
      9 HNAD       -2.7070   -1.1550    0.0010 hn        1 JZ6      0.325700
@<TRIPOS>BOND
     1    1    6 1   
     2    2    4 1   
     3    2    6 2   
     4    2    7 1   
     5    3    5 2   
     6    3    6 1   
     7    3    8 1   
     8    4    5 1   
     9    4    9 1   
@<TRIPOS>SUBSTRUCTURE
     1 JZ6         1 TEMP              0 ****  ****    0 ROOT
