@<TRIPOS>MOLECULE
JZ7
   21    21     1     0     0
SMALL
bcc


@<TRIPOS>ATOM
      1 CAA         3.5960   -0.0380    0.2780 c3        1 JZ7     -0.098100
      2 CAB        -2.6290   -0.4070    0.0630 c2        1 JZ7     -0.289200
      3 CAC        -1.6530   -1.3260    0.0650 c2        1 JZ7      0.049100
      4 CAD         2.3140   -0.3610   -0.4530 c3        1 JZ7      0.133400
      5 CAE        -2.3450    1.0310   -0.1470 c3        1 JZ7     -0.032200
      6 CAF        -0.8950    1.3440    0.1590 c3        1 JZ7     -0.102400
      7 OAG        -0.3220   -1.0630   -0.1550 os        1 JZ7     -0.368900
      8 OAH         1.2870    0.4260    0.1610 os        1 JZ7     -0.419600
      9 CAI         0.0260    0.2950   -0.4570 c3        1 JZ7      0.334900
     10 HAA         3.8350    1.0490    0.1890 hc        1 JZ7      0.045367
     11 HAAA        3.4990   -0.2870    1.3610 hc        1 JZ7      0.045367
     12 HAAB        4.4310   -0.6340   -0.1620 hc        1 JZ7      0.045367
     13 HAC        -1.7810   -2.4070    0.2360 h4        1 JZ7      0.161000
     14 HAD         2.3870   -0.0910   -1.5410 h1        1 JZ7      0.035200
     15 HADA        2.0540   -1.4480   -0.3590 h1        1 JZ7      0.035200
     16 HAE        -2.5840    1.3080   -1.2100 hc        1 JZ7      0.050200
     17 HAEA       -3.0050    1.6550    0.5130 hc        1 JZ7      0.050200
     18 HAF        -0.6120    2.3480   -0.2450 hc        1 JZ7      0.067200
     19 HAFA       -0.7300    1.3610    1.2680 hc        1 JZ7      0.067200
     20 HAI         0.0900    0.3830   -1.5780 h2        1 JZ7      0.049700
     21 HAB        -3.6760   -0.6940    0.2230 ha        1 JZ7      0.140000
@<TRIPOS>BOND
     1    1    4 1   
     2    1   10 1   
     3    1   11 1   
     4    1   12 1   
     5    2    3 2   
     6    2    5 1   
     7    2   21 1   
     8    3    7 1   
     9    3   13 1   
    10    4    8 1   
    11    4   14 1   
    12    4   15 1   
    13    5    6 1   
    14    5   16 1   
    15    5   17 1   
    16    6    9 1   
    17    6   18 1   
    18    6   19 1   
    19    7    9 1   
    20    8    9 1   
    21    9   20 1   
@<TRIPOS>SUBSTRUCTURE
     1 JZ7         1 TEMP              0 ****  ****    0 ROOT
