@<TRIPOS>MOLECULE
JZ7
   21    21     1     0     0
SMALL
bcc


@<TRIPOS>ATOM
      1 CAA         0.0750    0.1500    0.1110 c3        1 JZ7     -0.098100
      2 CAB         5.8560    0.9620    2.3150 c2        1 JZ7     -0.289200
      3 CAC         5.1790    1.4990    1.2890 c2        1 JZ7      0.049100
      4 CAD         1.5730    0.0090   -0.0210 c3        1 JZ7      0.133400
      5 CAE         5.3570   -0.2280    3.0400 c3        1 JZ7     -0.032200
      6 CAF         3.8650   -0.3960    2.8370 c3        1 JZ7     -0.102400
      7 OAG         4.0000    1.0090    0.7800 os        1 JZ7     -0.368900
      8 OAH         2.0990    0.0030    1.3110 os        1 JZ7     -0.419600
      9 CAI         3.4940   -0.1960    1.3710 c3        1 JZ7      0.334900
     10 HAA        -0.3840    0.1660   -0.9070 hc        1 JZ7      0.045367
     11 HAAA       -0.3500   -0.7020    0.6920 hc        1 JZ7      0.045367
     12 HAAB       -0.1800    1.0980    0.6420 hc        1 JZ7      0.045367
     13 HAC         5.4720    2.3930    0.7150 h4        1 JZ7      0.161000
     14 HAD         1.8470   -0.9530   -0.5310 h1        1 JZ7      0.035200
     15 HADA        2.0160    0.8670   -0.5900 h1        1 JZ7      0.035200
     16 HAE         5.5700   -0.1270    4.1380 hc        1 JZ7      0.050200
     17 HAEA        5.9020   -1.1420    2.6800 hc        1 JZ7      0.050200
     18 HAF         3.5340   -1.4170    3.1520 hc        1 JZ7      0.067200
     19 HAFA        3.3040    0.3530    3.4550 hc        1 JZ7      0.067200
     20 HAI         3.8290   -1.0530    0.7200 h2        1 JZ7      0.049700
     21 HAB         6.8060    1.3950    2.6520 ha        1 JZ7      0.140000
@<TRIPOS>BOND
     1    1    4 1   
     2    1   10 1   
     3    1   11 1   
     4    1   12 1   
     5    2    3 2   
     6    2    5 1   
     7    2   21 1   
     8    3    7 1   
     9    3   13 1   
    10    4    8 1   
    11    4   14 1   
    12    4   15 1   
    13    5    6 1   
    14    5   16 1   
    15    5   17 1   
    16    6    9 1   
    17    6   18 1   
    18    6   19 1   
    19    7    9 1   
    20    8    9 1   
    21    9   20 1   
@<TRIPOS>SUBSTRUCTURE
     1 JZ7         1 TEMP              0 ****  ****    0 ROOT
