@<TRIPOS>MOLECULE
JZ7
   21    21     1     0     0
SMALL
bcc


@<TRIPOS>ATOM
      1 CAA         0.0670    0.1610    0.1200 c3        1 JZ7     -0.098100
      2 CAB         5.8580    0.9610    2.3030 c2        1 JZ7     -0.289200
      3 CAC         5.1780    1.5010    1.2810 c2        1 JZ7      0.049100
      4 CAD         1.5650    0.0200   -0.0180 c3        1 JZ7      0.133400
      5 CAE         5.3600   -0.2300    3.0280 c3        1 JZ7     -0.032200
      6 CAF         3.8670   -0.3950    2.8300 c3        1 JZ7     -0.102400
      7 OAG         3.9970    1.0140    0.7760 os        1 JZ7     -0.368900
      8 OAH         2.0960    0.0100    1.3120 os        1 JZ7     -0.419600
      9 CAI         3.4910   -0.1920    1.3660 c3        1 JZ7      0.334900
     10 HAA        -0.3560   -0.6940    0.6990 hc        1 JZ7      0.045367
     11 HAAA       -0.1860    1.1070    0.6560 hc        1 JZ7      0.045367
     12 HAAB       -0.3950    0.1800   -0.8960 hc        1 JZ7      0.045367
     13 HAC         5.4710    2.3950    0.7080 h4        1 JZ7      0.161000
     14 HAD         1.8370   -0.9400   -0.5320 h1        1 JZ7      0.035200
     15 HADA        2.0050    0.8800   -0.5860 h1        1 JZ7      0.035200
     16 HAE         5.9020   -1.1450    2.6640 hc        1 JZ7      0.050200
     17 HAEA        5.5770   -0.1310    4.1250 hc        1 JZ7      0.050200
     18 HAF         3.5350   -1.4160    3.1450 hc        1 JZ7      0.067200
     19 HAFA        3.3100    0.3540    3.4520 hc        1 JZ7      0.067200
     20 HAI         3.8210   -1.0480    0.7130 h2        1 JZ7      0.049700
     21 HAB         6.8110    1.3910    2.6380 ha        1 JZ7      0.140000
@<TRIPOS>BOND
     1    1    4 1   
     2    1   10 1   
     3    1   11 1   
     4    1   12 1   
     5    2    3 2   
     6    2    5 1   
     7    2   21 1   
     8    3    7 1   
     9    3   13 1   
    10    4    8 1   
    11    4   14 1   
    12    4   15 1   
    13    5    6 1   
    14    5   16 1   
    15    5   17 1   
    16    6    9 1   
    17    6   18 1   
    18    6   19 1   
    19    7    9 1   
    20    8    9 1   
    21    9   20 1   
@<TRIPOS>SUBSTRUCTURE
     1 JZ7         1 TEMP              0 ****  ****    0 ROOT
