@<TRIPOS>MOLECULE
JZ7
   21    19     1     0     0
SMALL
bcc


@<TRIPOS>ATOM
      1 CAA        -3.2540   -0.2470   -1.4150 c3        1 JZ7     -0.216000
      2 CAB         2.6520    0.8230    1.2730 c1        1 JZ7     -0.140000
      3 CAC         1.8830    1.7140    0.0670 c1        1 JZ7     -0.140000
      4 CAD        -1.7410   -0.2470   -1.4150 c3        1 JZ7     -0.017000
      5 CAE         2.1500   -0.5250    1.4520 c2        1 JZ7     -0.115000
      6 CAF         0.5760   -0.6140    1.1240 c3        1 JZ7     -0.181000
      7 OAG         0.6060    1.3680   -0.1680 o         1 JZ7     -0.253000
      8 OAH        -1.2710   -0.2470   -0.0870 os        1 JZ7     -0.276000
      9 CAI         0.2290   -0.1210    0.0310 c3        1 JZ7      0.152000
     10 HAA        -3.5790   -0.2850   -2.3350 hc        1 JZ7      0.084667
     11 HAAA       -3.5790    0.5690   -0.9880 hc        1 JZ7      0.084667
     12 HAAB       -3.5790   -1.0240   -0.9220 hc        1 JZ7      0.084667
     13 HAB         3.5670    1.0410    1.5330 ha        1 JZ7      0.150500
     14 HAC         2.1920    2.6160   -0.1450 ha        1 JZ7      0.150500
     15 HAD        -1.4160    0.5500   -1.8750 h1        1 JZ7      0.074500
     16 HADA       -1.4160   -1.0440   -1.8750 h1        1 JZ7      0.074500
     17 HAE         2.6640   -1.2580    1.0650 ha        1 JZ7      0.089500
     18 HAEA        2.2710   -0.7210    2.4010 ha        1 JZ7      0.089500
     19 HAF         0.3150   -1.5540    1.1310 hc        1 JZ7      0.106500
     20 HAFA        0.0890   -0.1550    1.8340 hc        1 JZ7      0.106500
     21 HAI         0.6410   -0.6410   -0.6850 h2        1 JZ7      0.089000
@<TRIPOS>BOND
     1    1    4 1   
     2    1   10 1   
     3    1   11 1   
     4    1   12 1   
     5    2    3 1   
     6    2   13 1   
     7    3   14 1   
     8    4    8 1   
     9    4   15 1   
    10    4   16 1   
    11    5    6 1   
    12    5   17 1   
    13    5   18 1   
    14    6    9 1   
    15    6   19 1   
    16    6   20 1   
    17    7    9 1   
    18    8    9 1   
    19    9   21 1   
@<TRIPOS>SUBSTRUCTURE
     1 JZ7         1 TEMP              0 ****  ****    0 ROOT
