@<TRIPOS>MOLECULE
JZ8
   37    40     1     0     0
SMALL
bcc


@<TRIPOS>ATOM
      1 C1          0.4780   -0.7340    0.2340 ca        1 JZ8     -0.173000
      2 N1          2.3540    0.3640   -0.9740 n4        1 JZ8     -0.498800
      3 C2          1.6580    0.0760    0.2810 ca        1 JZ8     -0.162400
      4 N2          4.0920   -0.5870   -2.5540 na        1 JZ8     -0.191200
      5 C3          2.0930    0.6620    1.4740 ca        1 JZ8     -0.014000
      6 N3          4.2090    0.3710   -3.5260 na        1 JZ8     -0.250400
      7 C4          1.3220    0.5060    2.6420 ca        1 JZ8     -0.062000
      8 N4          5.6440   -1.2710   -4.0910 na        1 JZ8     -0.300000
      9 C5          1.7050    1.1270    3.8650 ca        1 JZ8     -0.092000
     10 N5          5.1660   -2.7820   -2.1490 nb        1 JZ8     -0.582000
     11 C6          0.9270    0.9780    4.9910 ca        1 JZ8     -0.080000
     12 C7         -0.2590    0.2070    4.9480 ca        1 JZ8     -0.018000
     13 C8         -0.6530   -0.4120    3.7750 ca        1 JZ8     -0.121000
     14 C9          0.1220   -0.2750    2.6030 ca        1 JZ8      0.009000
     15 C10        -0.2650   -0.8870    1.3740 ca        1 JZ8     -0.033000
     16 C11         3.3150   -0.7010   -1.3800 ca        1 JZ8      0.123300
     17 C12         3.4820   -1.8610   -0.6290 ca        1 JZ8     -0.185300
     18 C13         4.4130   -2.9040   -1.0180 ca        1 JZ8      0.655600
     19 C14         4.5440   -4.1090   -0.1780 c3        1 JZ8     -0.228400
     20 C15         5.0050   -1.6670   -2.8800 ca        1 JZ8      0.660000
     21 C16         5.1440   -0.0460   -4.4550 cc        1 JZ8      0.492700
     22 H1          0.1420   -1.1940   -0.7080 ha        1 JZ8      0.155000
     23 HN1         2.8610    1.2580   -0.8630 hn        1 JZ8      0.490300
     24 H3          3.0110    1.2740    1.5310 ha        1 JZ8      0.159000
     25 H5          2.6250    1.7340    3.8980 ha        1 JZ8      0.164000
     26 H6          1.2180    1.4650    5.9410 ha        1 JZ8      0.193000
     27 H7         -0.8720    0.1070    5.8640 ha        1 JZ8      0.195000
     28 H8         -1.5800   -1.0110    3.7450 ha        1 JZ8      0.183000
     29 H10        -1.1970   -1.4840    1.3510 ha        1 JZ8      0.195000
     30 H12         2.8810   -2.0100    0.3020 ha        1 JZ8      0.268000
     31 H14         3.8840   -4.0590    0.7250 hc        1 JZ8      0.156367
     32 H14A        4.2870   -5.0420   -0.7680 hc        1 JZ8      0.156367
     33 H14B        5.6150   -4.2600    0.1560 hc        1 JZ8      0.156367
     34 H16         5.4410    0.5470   -5.3700 h5        1 JZ8      0.217800
     35 HN3         3.6610    1.2220   -3.5410 hn        1 JZ8      0.420700
     36 H121        1.6260    0.4540   -1.7070 hn        1 JZ8      0.490300
     37 HN4         6.3450   -1.8290   -4.5760 hn        1 JZ8      0.447700
@<TRIPOS>BOND
     1    1    3 ar  
     2    1   15 ar  
     3    1   22 1   
     4    2    3 1   
     5    2   16 1   
     6    2   23 1   
     7    2   36 1   
     8    3    5 ar  
     9    4    6 1   
    10    4   16 1   
    11    4   20 2   
    12    5    7 ar  
    13    5   24 1   
    14    6   21 2   
    15    6   35 1   
    16    7    9 ar  
    17    7   14 ar  
    18    8   20 1   
    19    8   21 1   
    20    8   37 1   
    21    9   11 ar  
    22    9   25 1   
    23   10   18 ar  
    24   10   20 ar  
    25   11   12 ar  
    26   11   26 1   
    27   12   13 ar  
    28   12   27 1   
    29   13   14 ar  
    30   13   28 1   
    31   14   15 ar  
    32   15   29 1   
    33   16   17 ar  
    34   17   18 ar  
    35   17   30 1   
    36   18   19 1   
    37   19   31 1   
    38   19   32 1   
    39   19   33 1   
    40   21   34 1   
@<TRIPOS>SUBSTRUCTURE
     1 JZ8         1 TEMP              0 ****  ****    0 ROOT
