@<TRIPOS>MOLECULE
JZ8
   36    39     1     0     0
SMALL
bcc


@<TRIPOS>ATOM
      1 C1          1.5930   -1.8910   -0.9610 ca        1 JZ8     -0.145000
      2 N1         -0.5310   -1.2720    0.0840 nh        1 JZ8     -0.189200
      3 C2          0.8700   -1.0290   -0.0760 ca        1 JZ8     -0.124200
      4 N2         -2.8040   -0.5140    0.4430 na        1 JZ8     -0.189500
      5 C3          1.5240   -0.0400    0.6490 ca        1 JZ8     -0.074000
      6 N3         -3.4800   -1.6980    0.6720 na        1 JZ8     -0.175400
      7 C4          2.9240    0.1220    0.5150 ca        1 JZ8     -0.045000
      8 N4         -5.0770   -0.1620    0.2270 na        1 JZ8     -0.164100
      9 C5          3.6240    1.1160    1.2550 ca        1 JZ8     -0.119000
     10 N5         -3.5410    1.6960   -0.4060 nc        1 JZ8     -0.200600
     11 C6          4.9850    1.2520    1.1140 ca        1 JZ8     -0.087000
     12 C7          5.7050    0.4090    0.2330 ca        1 JZ8     -0.071000
     13 C8          5.0530   -0.5620   -0.4930 ca        1 JZ8     -0.116000
     14 C9          3.6490   -0.7280   -0.3660 ca        1 JZ8     -0.010000
     15 C10         2.9480   -1.7300   -1.0930 ca        1 JZ8     -0.056000
     16 C11        -1.4660   -0.3150   -0.0120 cd        1 JZ8      0.457100
     17 C12        -1.1950    1.0400   -0.4720 cd        1 JZ8     -0.322600
     18 C13        -2.1880    1.9920   -0.6330 cc        1 JZ8      0.276400
     19 C14        -1.8650    3.3660   -1.1030 c3        1 JZ8     -0.088900
     20 C15        -3.8010    0.4860    0.0290 cd        1 JZ8      0.120400
     21 C16        -4.8430   -1.4380    0.6320 cc        1 JZ8      0.187400
     22 H1          1.0710   -2.6740   -1.5320 ha        1 JZ8      0.153000
     23 HN1        -0.7710   -2.2380    0.2190 hn        1 JZ8      0.326700
     24 H3          0.9880    0.6160    1.3550 ha        1 JZ8      0.144000
     25 HN4        -5.9610    0.2800    0.0290 hn        1 JZ8      0.417700
     26 H5          3.0630    1.7660    1.9430 ha        1 JZ8      0.146000
     27 H6          5.5330    2.0190    1.6880 ha        1 JZ8      0.168000
     28 H7          6.7970    0.5390    0.1390 ha        1 JZ8      0.171000
     29 H8          5.6090   -1.2230   -1.1780 ha        1 JZ8      0.164000
     30 H10         3.5190   -2.3860   -1.7750 ha        1 JZ8      0.175000
     31 H12        -0.1450    1.2710   -0.7490 ha        1 JZ8      0.234000
     32 H14        -2.1480    4.1190   -0.3180 hc        1 JZ8      0.112700
     33 H14A       -0.7710    3.4600   -1.3190 hc        1 JZ8      0.112700
     34 H14B       -2.4420    3.6150   -2.0340 hc        1 JZ8      0.112700
     35 H16        -5.6260   -2.2080    0.8510 h5        1 JZ8      0.308000
     36 HN3        -3.0560   -2.3910    1.2760 hn        1 JZ8      0.390700
@<TRIPOS>BOND
     1    1    3 ar  
     2    1   15 ar  
     3    1   22 1   
     4    2    3 1   
     5    2   16 2   
     6    2   23 1   
     7    3    5 ar  
     8    4    6 1   
     9    4   16 1   
    10    4   20 1   
    11    5    7 ar  
    12    5   24 1   
    13    6   21 2   
    14    6   36 1   
    15    7    9 ar  
    16    7   14 ar  
    17    8   20 1   
    18    8   21 1   
    19    8   25 1   
    20    9   11 ar  
    21    9   26 1   
    22   10   18 1   
    23   10   20 2   
    24   11   12 ar  
    25   11   27 1   
    26   12   13 ar  
    27   12   28 1   
    28   13   14 ar  
    29   13   29 1   
    30   14   15 ar  
    31   15   30 1   
    32   16   17 1   
    33   17   18 2   
    34   17   31 1   
    35   18   19 1   
    36   19   32 1   
    37   19   33 1   
    38   19   34 1   
    39   21   35 1   
@<TRIPOS>SUBSTRUCTURE
     1 JZ8         1 TEMP              0 ****  ****    0 ROOT
