@<TRIPOS>MOLECULE
JZ8
   36    39     1     0     0
SMALL
bcc


@<TRIPOS>ATOM
      1 C1          0.0450   -0.1850    0.0420 ca        1 JZ8     -0.145000
      2 N1          2.2100   -0.0080   -1.0850 nu        1 JZ8     -0.189200
      3 C2          1.4670   -0.0530    0.1370 ca        1 JZ8     -0.124200
      4 N2          4.1830   -0.4920   -2.4050 na        1 JZ8     -0.189500
      5 C3          2.0880    0.0950    1.3720 ca        1 JZ8     -0.074000
      6 N3          3.9600    0.2440   -3.5540 na        1 JZ8     -0.175400
      7 C4          1.3090    0.1170    2.5540 ca        1 JZ8     -0.045000
      8 N4          5.5980   -1.2220   -4.0790 na        1 JZ8     -0.164100
      9 C5          1.9140    0.2810    3.8310 ca        1 JZ8     -0.119000
     10 N5          5.5280   -2.5260   -1.9560 nc        1 JZ8     -0.200600
     11 C6          1.1390    0.3050    4.9660 ca        1 JZ8     -0.087000
     12 C7         -0.2680    0.1650    4.8790 ca        1 JZ8     -0.071000
     13 C8         -0.8790    0.0070    3.6550 ca        1 JZ8     -0.116000
     14 C9         -0.1050   -0.0190    2.4670 ca        1 JZ8     -0.010000
     15 C10        -0.7070   -0.1690    1.1870 ca        1 JZ8     -0.056000
     16 C11         3.2920   -0.7640   -1.3230 cd        1 JZ8      0.457100
     17 C12         3.7320   -1.8480   -0.4560 cd        1 JZ8     -0.321600
     18 C13         4.8090   -2.6630   -0.7580 cc        1 JZ8      0.276400
     19 C14         5.2260   -3.7570    0.1600 c3        1 JZ8     -0.088900
     20 C15         5.1590   -1.5420   -2.7400 cd        1 JZ8      0.120400
     21 C16         4.8870   -0.1470   -4.5100 cc        1 JZ8      0.187400
     22 H1         -0.4420   -0.3000   -0.9390 ha        1 JZ8      0.153000
     23 HN1         1.8210    0.6000   -1.7840 hn        1 JZ8      0.326700
     24 H3          3.1790    0.2240    1.4640 ha        1 JZ8      0.144000
     25 HN4         6.2780   -1.7680   -4.5850 hn        1 JZ8      0.417700
     26 H5          3.0070    0.3950    3.8960 ha        1 JZ8      0.146000
     27 H6          1.6020    0.4350    5.9590 ha        1 JZ8      0.168000
     28 H7         -0.8680    0.1890    5.8050 ha        1 JZ8      0.171000
     29 H8         -1.9740   -0.0990    3.5820 ha        1 JZ8      0.164000
     30 H10        -1.8060   -0.2720    1.1280 ha        1 JZ8      0.175000
     31 H12         3.1230   -2.0370    0.4520 ha        1 JZ8      0.234000
     32 H14         5.2190   -4.7470   -0.3710 hc        1 JZ8      0.112700
     33 H14A        4.5380   -3.8140    1.0410 hc        1 JZ8      0.112700
     34 H14B        6.2730   -3.5770    0.5260 hc        1 JZ8      0.112700
     35 H16         4.9780    0.3350   -5.5170 h5        1 JZ8      0.308000
     36 HN3         3.6060    1.1890   -3.4650 hn        1 JZ8      0.390700
@<TRIPOS>BOND
     1    1    3 ar  
     2    1   15 ar  
     3    1   22 1   
     4    2    3 1   
     5    2   16 2   
     6    2   23 1   
     7    3    5 ar  
     8    4    6 1   
     9    4   16 1   
    10    4   20 1   
    11    5    7 ar  
    12    5   24 1   
    13    6   21 2   
    14    6   36 1   
    15    7    9 ar  
    16    7   14 ar  
    17    8   20 1   
    18    8   21 1   
    19    8   25 1   
    20    9   11 ar  
    21    9   26 1   
    22   10   18 1   
    23   10   20 2   
    24   11   12 ar  
    25   11   27 1   
    26   12   13 ar  
    27   12   28 1   
    28   13   14 ar  
    29   13   29 1   
    30   14   15 ar  
    31   15   30 1   
    32   16   17 1   
    33   17   18 2   
    34   17   31 1   
    35   18   19 1   
    36   19   32 1   
    37   19   33 1   
    38   19   34 1   
    39   21   35 1   
@<TRIPOS>SUBSTRUCTURE
     1 JZ8         1 TEMP              0 ****  ****    0 ROOT
