@<TRIPOS>MOLECULE
JZ8
   36    39     1     0     0
SMALL
bcc


@<TRIPOS>ATOM
      1 C1          0.0430   -0.1940    0.0410 ca        1 JZ8     -0.145000
      2 N1          2.2070   -0.0100   -1.0850 nh        1 JZ8     -0.189200
      3 C2          1.4640   -0.0570    0.1360 ca        1 JZ8     -0.124200
      4 N2          4.1820   -0.4870   -2.4050 na        1 JZ8     -0.189500
      5 C3          2.0840    0.0930    1.3720 ca        1 JZ8     -0.074000
      6 N3          3.9570    0.2490   -3.5540 na        1 JZ8     -0.175400
      7 C4          1.3050    0.1110    2.5540 ca        1 JZ8     -0.045000
      8 N4          5.6000   -1.2120   -4.0790 na        1 JZ8     -0.164100
      9 C5          1.9090    0.2760    3.8310 ca        1 JZ8     -0.119000
     10 N5          5.5330   -2.5170   -1.9570 nc        1 JZ8     -0.200600
     11 C6          1.1340    0.2970    4.9660 ca        1 JZ8     -0.087000
     12 C7         -0.2730    0.1530    4.8780 ca        1 JZ8     -0.071000
     13 C8         -0.8830   -0.0070    3.6550 ca        1 JZ8     -0.116000
     14 C9         -0.1080   -0.0290    2.4660 ca        1 JZ8     -0.010000
     15 C10        -0.7100   -0.1810    1.1860 ca        1 JZ8     -0.056000
     16 C11         3.2920   -0.7620   -1.3230 cd        1 JZ8      0.457100
     17 C12         3.7340   -1.8450   -0.4560 cd        1 JZ8     -0.322600
     18 C13         4.8140   -2.6560   -0.7590 cc        1 JZ8      0.276400
     19 C14         5.2340   -3.7500    0.1590 c3        1 JZ8     -0.088900
     20 C15         5.1620   -1.5340   -2.7400 cd        1 JZ8      0.120400
     21 C16         4.8850   -0.1390   -4.5100 cc        1 JZ8      0.187400
     22 H1         -0.4440   -0.3100   -0.9400 ha        1 JZ8      0.153000
     23 HN1         1.8170    0.5970   -1.7840 hn        1 JZ8      0.326700
     24 H3          3.1750    0.2240    1.4640 ha        1 JZ8      0.144000
     25 HN4         6.2820   -1.7550   -4.5850 hn        1 JZ8      0.417700
     26 H5          3.0020    0.3940    3.8960 ha        1 JZ8      0.146000
     27 H6          1.5970    0.4290    5.9580 ha        1 JZ8      0.168000
     28 H7         -0.8720    0.1740    5.8040 ha        1 JZ8      0.171000
     29 H8         -1.9770   -0.1160    3.5810 ha        1 JZ8      0.164000
     30 H10        -1.8080   -0.2870    1.1270 ha        1 JZ8      0.175000
     31 H12         3.1260   -2.0360    0.4520 ha        1 JZ8      0.234000
     32 H14         6.2820   -3.5670    0.5240 hc        1 JZ8      0.112700
     33 H14A        4.5480   -3.8070    1.0410 hc        1 JZ8      0.112700
     34 H14B        5.2290   -4.7400   -0.3720 hc        1 JZ8      0.112700
     35 H16         4.9750    0.3440   -5.5170 h5        1 JZ8      0.308000
     36 HN3         3.6000    1.1920   -3.4650 hn        1 JZ8      0.390700
@<TRIPOS>BOND
     1    1    3 ar  
     2    1   15 ar  
     3    1   22 1   
     4    2    3 1   
     5    2   16 2   
     6    2   23 1   
     7    3    5 ar  
     8    4    6 1   
     9    4   16 1   
    10    4   20 1   
    11    5    7 ar  
    12    5   24 1   
    13    6   21 2   
    14    6   36 1   
    15    7    9 ar  
    16    7   14 ar  
    17    8   20 1   
    18    8   21 1   
    19    8   25 1   
    20    9   11 ar  
    21    9   26 1   
    22   10   18 1   
    23   10   20 2   
    24   11   12 ar  
    25   11   27 1   
    26   12   13 ar  
    27   12   28 1   
    28   13   14 ar  
    29   13   29 1   
    30   14   15 ar  
    31   15   30 1   
    32   16   17 1   
    33   17   18 2   
    34   17   31 1   
    35   18   19 1   
    36   19   32 1   
    37   19   33 1   
    38   19   34 1   
    39   21   35 1   
@<TRIPOS>SUBSTRUCTURE
     1 JZ8         1 TEMP              0 ****  ****    0 ROOT
