@<TRIPOS>MOLECULE
JZ8
   36    29     1     0     0
SMALL
bcc


@<TRIPOS>ATOM
      1 C1          0.8560    1.3930    1.2980 c1        1 JZ8     -0.160000
      2 N1          0.1810    0.9480   -0.8830 n3        1 JZ8     -0.136000
      3 C2         -0.1290    0.8230    0.4960 c2        1 JZ8     -0.092000
      4 N2          0.1420   -0.5490   -2.7830 n1        1 JZ8     -0.183000
      5 C3         -1.3870    0.5620    1.0220 c2        1 JZ8     -0.047000
      6 N3         -0.9890   -0.1530   -3.4320 n1        1 JZ8     -0.104500
      7 C4         -1.6680    0.8740    2.3660 c1        1 JZ8     -0.047000
      8 N4          0.0060   -1.6580   -4.6670 n2        1 JZ8     -0.163000
      9 C5         -2.9320    0.5780    2.9090 c1        1 JZ8     -0.097500
     10 N5          1.9460   -2.0400   -3.1240 n1        1 JZ8     -0.104500
     11 C6         -3.1970    0.8550    4.2440 c1        1 JZ8     -0.097500
     12 C7         -2.2120    1.4250    5.0450 c1        1 JZ8     -0.097500
     13 C8         -0.9640    1.7180    4.5100 c1        1 JZ8     -0.097500
     14 C9         -0.6950    1.4380    3.1570 c1        1 JZ8     -0.011000
     15 C10         0.5810    1.7020    2.6230 c1        1 JZ8     -0.061000
     16 C11         0.6960   -0.1660   -1.5980 c2        1 JZ8      0.294000
     17 C12         1.8720   -0.7230   -1.1830 c2        1 JZ8     -0.237000
     18 C13         2.4930   -1.6640   -1.9570 c1        1 JZ8      0.141000
     19 C14         3.7860   -2.4350   -1.8030 c3        1 JZ8     -0.211000
     20 C15         0.7540   -1.4760   -3.5440 c1        1 JZ8      0.204500
     21 C16        -1.0670   -0.8390   -4.5920 c1        1 JZ8      0.204500
     22 H1          1.7390    1.5800    0.9260 ha        1 JZ8      0.143000
     23 HN1         0.0590    1.7450   -1.3070 hn        1 JZ8      0.274000
     24 H3         -2.0780    0.1620    0.4600 ha        1 JZ8      0.152000
     25 HN3        -1.5880    0.4670   -3.1340 DU        1 JZ8      0.338667
     26 HN4         0.1960   -2.2320   -5.3500 DU        1 JZ8      0.338667
     27 H5         -3.6230    0.1780    2.3480 ha        1 JZ8      0.163000
     28 H6         -4.0730    0.6500    4.6200 ha        1 JZ8      0.163000
     29 H7         -2.3990    1.6200    5.9830 ha        1 JZ8      0.163000
     30 H8         -0.2740    2.1180    5.0720 ha        1 JZ8      0.163000
     31 H10         1.2710    2.1020    3.1850 ha        1 JZ8      0.171000
     32 H12         2.2690   -0.4490   -0.3350 ha        1 JZ8      0.237000
     33 H14         3.9690   -2.5780   -0.8510 hc        1 JZ8      0.152000
     34 H14A        4.5210   -1.9240   -2.2040 hc        1 JZ8      0.152000
     35 H14B        3.7060   -3.3010   -2.2540 hc        1 JZ8      0.152000
     36 H16        -1.7690   -0.7500   -5.2650 DU        1 JZ8      0.338667
@<TRIPOS>BOND
     1    1    3 1   
     2    1   22 1   
     3    2    3 1   
     4    2   16 1   
     5    2   23 1   
     6    3    5 1   
     7    4   16 1   
     8    5    7 1   
     9    5   24 1   
    10    6   21 1   
    11    7   14 1   
    12    8   20 1   
    13    8   21 1   
    14    9   11 1   
    15    9   27 1   
    16   10   20 1   
    17   11   28 1   
    18   12   13 1   
    19   12   29 1   
    20   13   30 1   
    21   14   15 1   
    22   15   31 1   
    23   16   17 1   
    24   17   18 1   
    25   17   32 1   
    26   18   19 1   
    27   19   33 1   
    28   19   34 1   
    29   19   35 1   
@<TRIPOS>SUBSTRUCTURE
     1 JZ8         1 TEMP              0 ****  ****    0 ROOT
