@<TRIPOS>MOLECULE
JZ9
   20    21     1     0     0
SMALL
bcc


@<TRIPOS>ATOM
      1 CAA        -2.4700   -0.0510    0.0010 cc        1 JZ9     -0.169300
      2 CAB        -1.6640   -1.1980    0.0450 cd        1 JZ9     -0.184000
      3 CAC         2.1320   -0.6640   -0.3300 c3        1 JZ9     -0.075400
      4 CAD         2.1030    0.7010    0.3300 c3        1 JZ9     -0.069400
      5 CAE         0.9450   -1.5270    0.0740 c3        1 JZ9     -0.000100
      6 CAF         0.8800    1.5130   -0.0720 c3        1 JZ9     -0.004100
      7 NAG        -1.6510    1.0750   -0.0400 na        1 JZ9     -0.171100
      8 CAH        -0.3030   -0.7530    0.0300 cd        1 JZ9     -0.146300
      9 CAI        -0.3230    0.6560   -0.0220 cc        1 JZ9     -0.125600
     10 HAA        -3.5560    0.0410   -0.0030 h4        1 JZ9      0.161000
     11 HAB        -2.0080   -2.2270    0.0810 ha        1 JZ9      0.150000
     12 HAC         2.1320   -0.5350   -1.4440 hc        1 JZ9      0.040200
     13 HACA        3.0820   -1.1910   -0.0510 hc        1 JZ9      0.040200
     14 HAD         2.1090    0.5710    1.4440 hc        1 JZ9      0.042200
     15 HADA        3.0250    1.2720    0.0490 hc        1 JZ9      0.042200
     16 HAE         0.8780   -2.4160   -0.6090 hc        1 JZ9      0.044700
     17 HAEA        1.1030   -1.9200    1.1160 hc        1 JZ9      0.044700
     18 HAF         0.7750    2.3970    0.6110 hc        1 JZ9      0.044700
     19 HAFA        1.0140    1.9080   -1.1160 hc        1 JZ9      0.044700
     20 HNAG       -1.9540    2.0100   -0.0730 hn        1 JZ9      0.290700
@<TRIPOS>BOND
     1    1    2 2   
     2    1    7 1   
     3    1   10 1   
     4    2    8 1   
     5    2   11 1   
     6    3    4 1   
     7    3    5 1   
     8    3   12 1   
     9    3   13 1   
    10    4    6 1   
    11    4   14 1   
    12    4   15 1   
    13    5    8 1   
    14    5   16 1   
    15    5   17 1   
    16    6    9 1   
    17    6   18 1   
    18    6   19 1   
    19    7    9 1   
    20    7   20 1   
    21    8    9 2   
@<TRIPOS>SUBSTRUCTURE
     1 JZ9         1 TEMP              0 ****  ****    0 ROOT
