@<TRIPOS>MOLECULE
JZ9
   20    18     1     0     0
SMALL
bcc


@<TRIPOS>ATOM
      1 CAA        -1.6560    0.1110   -2.2990 c1        1 JZ9     -0.145000
      2 CAB        -0.2330    0.1110   -2.2990 c1        1 JZ9     -0.120900
      3 CAC         1.5120   -0.6480    1.0770 c3        1 JZ9     -0.075400
      4 CAD         0.5730    0.1110    1.8610 c3        1 JZ9     -0.069400
      5 CAE         1.6060    0.1110   -0.3140 c3        1 JZ9     -0.003200
      6 CAF        -0.7770    0.1110    1.4140 c3        1 JZ9     -0.086700
      7 NAG        -2.0940    0.1110   -0.9600 n1        1 JZ9     -0.332400
      8 CAH         0.1850    0.1110   -1.0110 ce        1 JZ9     -0.292900
      9 CAI        -0.9970    0.1110   -0.1570 ce        1 JZ9      0.230300
     10 HAA        -2.2290    0.1110   -3.0890 DU        1 JZ9      0.184000
     11 HAB         0.3410    0.1110   -3.0890 DU        1 JZ9      0.184000
     12 HAC         2.3840   -0.6620    1.5140 hc        1 JZ9      0.040200
     13 HACA        1.1840   -1.5580    0.9440 hc        1 JZ9      0.040200
     14 HAD         0.8760    1.0390    1.8430 hc        1 JZ9      0.042200
     15 HADA        0.5740   -0.2770    2.7560 hc        1 JZ9      0.042200
     16 HAE         2.2270   -0.3770   -0.8870 hc        1 JZ9      0.044700
     17 HAEA        1.8610    1.0370   -0.1400 hc        1 JZ9      0.044700
     18 HAF        -1.1890    0.9270    1.7580 hc        1 JZ9      0.044700
     19 HAFA       -1.1890   -0.7040    1.7580 hc        1 JZ9      0.044700
     20 HNAG       -2.9620    0.1110   -0.6810 DU        1 JZ9      0.184000
@<TRIPOS>BOND
     1    1    2 2   
     2    1    7 2   
     3    2    8 2   
     4    3    4 1   
     5    3    5 1   
     6    3   12 1   
     7    3   13 1   
     8    4    6 1   
     9    4   14 1   
    10    4   15 1   
    11    5    8 1   
    12    5   16 1   
    13    5   17 1   
    14    6    9 1   
    15    6   18 1   
    16    6   19 1   
    17    7    9 2   
    18    8    9 1   
@<TRIPOS>SUBSTRUCTURE
     1 JZ9         1 TEMP              0 ****  ****    0 ROOT
