@<TRIPOS>MOLECULE
JZ9
   20    21     1     0     0
SMALL
bcc


@<TRIPOS>ATOM
      1 CAA        -0.0260    0.0010   -0.0350 cc        1 JZ9     -0.169300
      2 CAB         1.3770    0.0290   -0.0540 cd        1 JZ9     -0.184000
      3 CAC         3.1500    0.3730    3.3480 c3        1 JZ9     -0.075400
      4 CAD         2.0620   -0.3700    4.0990 c3        1 JZ9     -0.069400
      5 CAE         3.1730    0.0230    1.8670 c3        1 JZ9     -0.000100
      6 CAF         0.6680   -0.0200    3.5970 c3        1 JZ9     -0.004100
      7 NAG        -0.4580   -0.0270    1.2890 na        1 JZ9     -0.171100
      8 CAH         1.8140    0.0180    1.3100 cd        1 JZ9     -0.146300
      9 CAI         0.6590   -0.0180    2.1190 cc        1 JZ9     -0.125600
     10 HAA        -0.7370   -0.0020   -0.8610 h4        1 JZ9      0.161000
     11 HAB         2.0090    0.0560   -0.9350 ha        1 JZ9      0.150000
     12 HAC         2.9890    1.4770    3.4630 hc        1 JZ9      0.040200
     13 HACA        4.1460    0.1280    3.8000 hc        1 JZ9      0.040200
     14 HAD         2.1260   -0.1240    5.1910 hc        1 JZ9      0.042200
     15 HADA        2.2270   -1.4740    3.9890 hc        1 JZ9      0.042200
     16 HAE         3.6360   -0.9930    1.7280 hc        1 JZ9      0.044700
     17 HAEA        3.8170    0.7590    1.3170 hc        1 JZ9      0.044700
     18 HAF         0.3740    0.9970    3.9740 hc        1 JZ9      0.044700
     19 HAFA       -0.0740   -0.7570    4.0050 hc        1 JZ9      0.044700
     20 HNAG       -1.3950   -0.0520    1.5910 hn        1 JZ9      0.290700
@<TRIPOS>BOND
     1    1    2 2   
     2    1    7 1   
     3    1   10 1   
     4    2    8 1   
     5    2   11 1   
     6    3    4 1   
     7    3    5 1   
     8    3   12 1   
     9    3   13 1   
    10    4    6 1   
    11    4   14 1   
    12    4   15 1   
    13    5    8 1   
    14    5   16 1   
    15    5   17 1   
    16    6    9 1   
    17    6   18 1   
    18    6   19 1   
    19    7    9 1   
    20    7   20 1   
    21    8    9 2   
@<TRIPOS>SUBSTRUCTURE
     1 JZ9         1 TEMP              0 ****  ****    0 ROOT
