@<TRIPOS>MOLECULE
JZA
   26    27     1     0     0
SMALL
bcc


@<TRIPOS>ATOM
      1 C11         0.6860   -1.9390   -1.3960 c3        1 JZA      0.017000
      2 C13         2.1990   -1.9390   -1.3960 c3        1 JZA      0.095400
      3 O14         2.7370   -1.9390   -0.0790 os        1 JZA     -0.410600
      4 C12         2.1890   -0.9050    0.7310 c3        1 JZA      0.095400
      5 C10         0.6760   -0.9100    0.7200 c3        1 JZA      0.017000
      6 N9          0.1560   -0.9230   -0.5840 n         1 JZA     -0.418800
      7 C7         -0.8180    0.0050   -1.0390 c         1 JZA      0.777100
      8 O8         -1.2300   -0.0590   -2.1800 o         1 JZA     -0.594100
      9 N6         -1.3090    1.0070   -0.1600 n         1 JZA     -0.575200
     10 C5         -2.3340    2.1560   -0.2800 cy        1 JZA      0.121000
     11 C4         -2.0900    2.5860    1.2120 cy        1 JZA     -0.306600
     12 S1         -1.0330    1.4100    1.3550 s6        1 JZA      1.462600
     13 O2         -1.7510    0.6300    2.3250 o         1 JZA     -0.632800
     14 O3          0.3660    1.4990    1.6730 o         1 JZA     -0.632800
     15 H11         0.3690   -1.8100   -2.3100 h1        1 JZA      0.078950
     16 H11A        0.3690   -2.8030   -1.0700 h1        1 JZA      0.078950
     17 H13         2.5150   -2.7330   -1.8670 h1        1 JZA      0.062200
     18 H13A        2.5150   -1.1440   -1.8670 h1        1 JZA      0.062200
     19 H12         2.4990   -1.0240    1.6490 h1        1 JZA      0.062200
     20 H12A        2.5050   -0.0430    0.3990 h1        1 JZA      0.062200
     21 H10         0.3540   -0.1120    1.1810 h1        1 JZA      0.078950
     22 H10A        0.3590   -1.7010    1.1960 h1        1 JZA      0.078950
     23 H5         -3.2420    1.8330   -0.4330 h1        1 JZA      0.082700
     24 H5A        -2.0550    2.8410   -0.9180 h1        1 JZA      0.082700
     25 H4         -2.8900    2.5320    1.7690 h1        1 JZA      0.127700
     26 H4A        -1.7430    3.4850    1.3680 h1        1 JZA      0.127700
@<TRIPOS>BOND
     1    1    2 1   
     2    1    6 1   
     3    1   15 1   
     4    1   16 1   
     5    2    3 1   
     6    2   17 1   
     7    2   18 1   
     8    3    4 1   
     9    4    5 1   
    10    4   19 1   
    11    4   20 1   
    12    5    6 1   
    13    5   21 1   
    14    5   22 1   
    15    6    7 1   
    16    7    8 2   
    17    7    9 1   
    18    9   10 1   
    19    9   12 1   
    20   10   11 1   
    21   10   23 1   
    22   10   24 1   
    23   11   12 1   
    24   11   25 1   
    25   11   26 1   
    26   12   13 2   
    27   12   14 2   
@<TRIPOS>SUBSTRUCTURE
     1 JZA         1 TEMP              0 ****  ****    0 ROOT
