@<TRIPOS>MOLECULE
JZA
   26    27     1     0     0
SMALL
bcc


@<TRIPOS>ATOM
      1 C11        -1.9810   -1.3000    0.2820 c3        1 JZA      0.024500
      2 C13        -2.9770   -1.2690   -0.8870 c3        1 JZA      0.093400
      3 O14        -4.0200   -0.3300   -0.6600 os        1 JZA     -0.409600
      4 C12        -3.5240    0.9830   -0.4130 c3        1 JZA      0.093400
      5 C10        -2.5440    0.9960    0.7650 c3        1 JZA      0.024500
      6 N9         -1.4750    0.0060    0.6750 n         1 JZA     -0.406800
      7 C7         -0.2980    0.4720   -0.0040 c         1 JZA      0.778100
      8 O8         -0.2820    1.5260   -0.6800 o         1 JZA     -0.609100
      9 N6          0.9100   -0.2020    0.1550 n         1 JZA     -0.561200
     10 C5          1.2050   -1.3010    1.0670 cy        1 JZA      0.115000
     11 C4          2.7190   -1.2410    0.7810 cy        1 JZA     -0.307600
     12 S1          2.4840    0.0940   -0.3430 s6        1 JZA      1.468600
     13 O2          2.7460   -0.2720   -1.6540 o         1 JZA     -0.623300
     14 O3          3.0490    1.2680    0.1210 o         1 JZA     -0.623300
     15 H11        -2.5050   -1.7150    1.1900 h1        1 JZA      0.072450
     16 H11A       -1.1390   -1.9920    0.0110 h1        1 JZA      0.072450
     17 H13        -2.4540   -1.0260   -1.8500 h1        1 JZA      0.063950
     18 H13A       -3.5030   -2.2560   -0.9730 h1        1 JZA      0.063950
     19 H12        -3.0320    1.3830   -1.3400 h1        1 JZA      0.063950
     20 H12A       -4.4380    1.5840   -0.1690 h1        1 JZA      0.063950
     21 H10        -2.0990    2.0250    0.8570 h1        1 JZA      0.072450
     22 H10A       -3.1020    0.7520    1.7130 h1        1 JZA      0.072450
     23 H5          0.9260   -1.0790    2.1280 h1        1 JZA      0.073700
     24 H5A         0.7340   -2.2700    0.7610 h1        1 JZA      0.073700
     25 H4          3.3190   -1.0100    1.6870 h1        1 JZA      0.126700
     26 H4A         3.1140   -2.1830    0.3440 h1        1 JZA      0.126700
@<TRIPOS>BOND
     1    1    2 1   
     2    1    6 1   
     3    1   15 1   
     4    1   16 1   
     5    2    3 1   
     6    2   17 1   
     7    2   18 1   
     8    3    4 1   
     9    4    5 1   
    10    4   19 1   
    11    4   20 1   
    12    5    6 1   
    13    5   21 1   
    14    5   22 1   
    15    6    7 1   
    16    7    8 2   
    17    7    9 1   
    18    9   10 1   
    19    9   12 1   
    20   10   11 1   
    21   10   23 1   
    22   10   24 1   
    23   11   12 1   
    24   11   25 1   
    25   11   26 1   
    26   12   13 2   
    27   12   14 2   
@<TRIPOS>SUBSTRUCTURE
     1 JZA         1 TEMP              0 ****  ****    0 ROOT
