@<TRIPOS>MOLECULE
JZA
   26    27     1     0     0
SMALL
bcc


@<TRIPOS>ATOM
      1 C11         0.3260    0.1430   -0.0050 c3        1 JZA      0.024500
      2 C13         1.7980   -0.2970    0.0080 c3        1 JZA      0.093400
      3 O14         2.2930   -0.4250    1.3340 os        1 JZA     -0.409600
      4 C12         1.5140   -1.3240    2.1200 c3        1 JZA      0.093400
      5 C10         0.0410   -0.9020    2.1520 c3        1 JZA      0.024500
      6 N9         -0.5480   -0.6590    0.8380 n         1 JZA     -0.406800
      7 C7         -1.1370   -1.8210    0.2340 c         1 JZA      0.778100
      8 O8         -0.9390   -2.9790    0.6660 o         1 JZA     -0.609100
      9 N6         -2.0440   -1.6770   -0.8130 n         1 JZA     -0.561200
     10 C5         -2.6170   -0.4410   -1.3340 cy        1 JZA      0.115000
     11 C4         -3.6280   -1.1880   -2.2240 cy        1 JZA     -0.307600
     12 S1         -3.0180   -2.7420   -1.6660 s6        1 JZA      1.468600
     13 O2         -2.3620   -3.4390   -2.6680 o         1 JZA     -0.623300
     14 O3         -3.9560   -3.4290   -0.9150 o         1 JZA     -0.623300
     15 H11        -0.0330    0.1450   -1.0680 h1        1 JZA      0.072450
     16 H11A        0.2620    1.1960    0.3950 h1        1 JZA      0.072450
     17 H13         2.4420    0.4960   -0.4560 h1        1 JZA      0.063950
     18 H13A        1.9290   -1.2680   -0.5390 h1        1 JZA      0.063950
     19 H12         1.6170   -2.3660    1.7180 h1        1 JZA      0.063950
     20 H12A        1.9630   -1.2560    3.1450 h1        1 JZA      0.063950
     21 H10        -0.5520   -1.6910    2.6910 h1        1 JZA      0.072450
     22 H10A       -0.0520    0.0720    2.7100 h1        1 JZA      0.072450
     23 H5         -1.8860    0.1770   -1.9150 h1        1 JZA      0.073700
     24 H5A        -3.0830    0.1960   -0.5400 h1        1 JZA      0.073700
     25 H4         -3.4950   -0.9720   -3.3060 h1        1 JZA      0.126700
     26 H4A        -4.6840   -0.9610   -1.9620 h1        1 JZA      0.126700
@<TRIPOS>BOND
     1    1    2 1   
     2    1    6 1   
     3    1   15 1   
     4    1   16 1   
     5    2    3 1   
     6    2   17 1   
     7    2   18 1   
     8    3    4 1   
     9    4    5 1   
    10    4   19 1   
    11    4   20 1   
    12    5    6 1   
    13    5   21 1   
    14    5   22 1   
    15    6    7 1   
    16    7    8 2   
    17    7    9 1   
    18    9   10 1   
    19    9   12 1   
    20   10   11 1   
    21   10   23 1   
    22   10   24 1   
    23   11   12 1   
    24   11   25 1   
    25   11   26 1   
    26   12   13 2   
    27   12   14 2   
@<TRIPOS>SUBSTRUCTURE
     1 JZA         1 TEMP              0 ****  ****    0 ROOT
