@<TRIPOS>MOLECULE
JZA
   26    27     1     0     0
SMALL
bcc


@<TRIPOS>ATOM
      1 C11         0.3470    0.1260   -0.0310 c3        1 JZA      0.024500
      2 C13         1.8120   -0.3330   -0.0190 c3        1 JZA      0.093400
      3 O14         2.3140   -0.4450    1.3060 os        1 JZA     -0.409600
      4 C12         1.5290   -1.3190    2.1120 c3        1 JZA      0.093400
      5 C10         0.0610   -0.8770    2.1460 c3        1 JZA      0.024500
      6 N9         -0.5320   -0.6490    0.8320 n         1 JZA     -0.406800
      7 C7         -1.1410   -1.8140    0.2520 c         1 JZA      0.778100
      8 O8         -0.9550   -2.9670    0.7030 o         1 JZA     -0.609100
      9 N6         -2.0520   -1.6770   -0.7920 n         1 JZA     -0.561200
     10 C5         -2.6120   -0.4430   -1.3310 cy        1 JZA      0.115000
     11 C4         -3.6390   -1.1920   -2.2020 cy        1 JZA     -0.307600
     12 S1         -3.0450   -2.7440   -1.6200 s6        1 JZA      1.468600
     13 O2         -2.4050   -3.4670   -2.6130 o         1 JZA     -0.623300
     14 O3         -3.9870   -3.4050   -0.8510 o         1 JZA     -0.623300
     15 H11        -0.0200    0.1140   -1.0920 h1        1 JZA      0.072450
     16 H11A        0.2980    1.1860    0.3510 h1        1 JZA      0.072450
     17 H13         2.4640    0.4430   -0.5000 h1        1 JZA      0.063950
     18 H13A        1.9270   -1.3150   -0.5500 h1        1 JZA      0.063950
     19 H12         1.6160   -2.3700    1.7280 h1        1 JZA      0.063950
     20 H12A        1.9850   -1.2390    3.1330 h1        1 JZA      0.063950
     21 H10        -0.0160    0.1080    2.6870 h1        1 JZA      0.072450
     22 H10A       -0.5380   -1.6490    2.7030 h1        1 JZA      0.072450
     23 H5         -1.8770    0.1550   -1.9280 h1        1 JZA      0.073700
     24 H5A        -3.0640    0.2140   -0.5460 h1        1 JZA      0.073700
     25 H4         -4.6900   -0.9470   -1.9370 h1        1 JZA      0.126700
     26 H4A        -3.5100   -0.9970   -3.2880 h1        1 JZA      0.126700
@<TRIPOS>BOND
     1    1    2 1   
     2    1    6 1   
     3    1   15 1   
     4    1   16 1   
     5    2    3 1   
     6    2   17 1   
     7    2   18 1   
     8    3    4 1   
     9    4    5 1   
    10    4   19 1   
    11    4   20 1   
    12    5    6 1   
    13    5   21 1   
    14    5   22 1   
    15    6    7 1   
    16    7    8 2   
    17    7    9 1   
    18    9   10 1   
    19    9   12 1   
    20   10   11 1   
    21   10   23 1   
    22   10   24 1   
    23   11   12 1   
    24   11   25 1   
    25   11   26 1   
    26   12   13 2   
    27   12   14 2   
@<TRIPOS>SUBSTRUCTURE
     1 JZA         1 TEMP              0 ****  ****    0 ROOT
