@<TRIPOS>MOLECULE
JZA
   26    27     1     0     0
SMALL
bcc


@<TRIPOS>ATOM
      1 C11         0.3190    0.1490    0.0170 c3        1 JZA      0.024500
      2 C13         1.7950   -0.2760    0.0110 c3        1 JZA      0.093400
      3 O14         2.3000   -0.4290    1.3320 os        1 JZA     -0.409600
      4 C12         1.5340   -1.3520    2.1020 c3        1 JZA      0.093400
      5 C10         0.0570   -0.9460    2.1520 c3        1 JZA      0.024500
      6 N9         -0.5420   -0.6800    0.8480 n         1 JZA     -0.406800
      7 C7         -1.1230   -1.8340    0.2220 c         1 JZA      0.778100
      8 O8         -0.9110   -2.9990    0.6260 o         1 JZA     -0.609100
      9 N6         -2.0380   -1.6770   -0.8170 n         1 JZA     -0.561200
     10 C5         -2.6260   -0.4350   -1.3070 cy        1 JZA      0.115000
     11 C4         -3.6360   -1.1730   -2.2080 cy        1 JZA     -0.307600
     12 S1         -3.0060   -2.7330   -1.6880 s6        1 JZA      1.468600
     13 O2         -2.3490   -3.4010   -2.7080 o         1 JZA     -0.623300
     14 O3         -3.9320   -3.4450   -0.9470 o         1 JZA     -0.623300
     15 H11        -0.0470    0.1710   -1.0440 h1        1 JZA      0.072450
     16 H11A        0.2470    1.1920    0.4410 h1        1 JZA      0.072450
     17 H13         1.9320   -1.2340   -0.5580 h1        1 JZA      0.063950
     18 H13A        2.4280    0.5330   -0.4380 h1        1 JZA      0.063950
     19 H12         1.9880   -1.3020    3.1260 h1        1 JZA      0.063950
     20 H12A        1.6450   -2.3840    1.6760 h1        1 JZA      0.063950
     21 H10        -0.0430    0.0150    2.7320 h1        1 JZA      0.072450
     22 H10A       -0.5240   -1.7530    2.6770 h1        1 JZA      0.072450
     23 H5         -3.0930    0.1790   -0.4970 h1        1 JZA      0.073700
     24 H5A        -1.9050    0.2030   -1.8790 h1        1 JZA      0.073700
     25 H4         -3.5110   -0.9320   -3.2850 h1        1 JZA      0.126700
     26 H4A        -4.6920   -0.9630   -1.9340 h1        1 JZA      0.126700
@<TRIPOS>BOND
     1    1    2 1   
     2    1    6 1   
     3    1   15 1   
     4    1   16 1   
     5    2    3 1   
     6    2   17 1   
     7    2   18 1   
     8    3    4 1   
     9    4    5 1   
    10    4   19 1   
    11    4   20 1   
    12    5    6 1   
    13    5   21 1   
    14    5   22 1   
    15    6    7 1   
    16    7    8 2   
    17    7    9 1   
    18    9   10 1   
    19    9   12 1   
    20   10   11 1   
    21   10   23 1   
    22   10   24 1   
    23   11   12 1   
    24   11   25 1   
    25   11   26 1   
    26   12   13 2   
    27   12   14 2   
@<TRIPOS>SUBSTRUCTURE
     1 JZA         1 TEMP              0 ****  ****    0 ROOT
