@<TRIPOS>MOLECULE
JZB
   62    64     1     0     0
SMALL
bcc


@<TRIPOS>ATOM
      1 CL         -0.9690    2.1940    2.0950 cl        1 JZB     -0.074400
      2 C1         -1.0540    2.4850   -1.8850 ca        1 JZB     -0.200000
      3 N1          0.2340   -1.3870    1.4490 n2        1 JZB     -0.437200
      4 O1          3.1400    1.3960   -2.2940 os        1 JZB     -0.454900
      5 C2         -1.4390    2.4690   -0.5400 ca        1 JZB      0.208100
      6 N2         -4.4400   -1.7140    0.7810 n         1 JZB     -0.455800
      7 O2          2.4450   -0.6250   -1.6410 o         1 JZB     -0.524000
      8 C3         -0.5550    1.9920    0.4560 ca        1 JZB     -0.068600
      9 O3         -2.6800    2.9730   -0.2590 oh        1 JZB     -0.493100
     10 C4          0.6350    1.3550    0.0880 ca        1 JZB      0.045700
     11 O4          0.5110    2.0090   -3.5670 oh        1 JZB     -0.494100
     12 C5          1.0000    1.3120   -1.2710 ca        1 JZB     -0.228600
     13 O5         -0.8690   -0.8490    0.9540 os        1 JZB     -0.154300
     14 C6          0.1870    1.9370   -2.2360 ca        1 JZB      0.201100
     15 O6         -3.2320    0.2330    0.8450 o         1 JZB     -0.604100
     16 C7          1.5480    0.7890    1.1190 c3        1 JZB     -0.110400
     17 C8          2.2060    0.5820   -1.7000 c         1 JZB      0.654700
     18 C9          1.3040   -0.6450    1.5100 ce        1 JZB      0.430600
     19 C10         2.5370   -1.2410    2.0800 ce        1 JZB     -0.240600
     20 C11         4.3400    0.8030   -2.8080 c3        1 JZB      0.139400
     21 C12         5.3980    0.6230   -1.7300 c3        1 JZB     -0.074200
     22 C13         5.3420   -0.7120   -1.0880 c2        1 JZB     -0.166200
     23 C14         5.8830   -0.9920    0.1010 c2        1 JZB     -0.173200
     24 C15         5.7920   -2.3350    0.7280 c3        1 JZB     -0.044200
     25 C16         3.4190   -1.8920    1.3180 c2        1 JZB     -0.128200
     26 C17         4.7270   -2.3830    1.8140 c3        1 JZB     -0.048200
     27 C18        -1.9420   -1.8180    0.8280 c3        1 JZB      0.073400
     28 C19        -3.2350   -1.0120    0.7930 c         1 JZB      0.657100
     29 C20        -5.6810   -0.9860    0.5840 c3        1 JZB      0.079500
     30 C21        -6.2980   -1.1770   -0.8040 c3        1 JZB     -0.104900
     31 C22        -6.4170   -2.6450   -1.1560 c3        1 JZB     -0.078400
     32 C23        -5.0920   -3.3580   -0.9820 c3        1 JZB     -0.104900
     33 C24        -4.5210   -3.1120    0.4180 c3        1 JZB      0.079500
     34 H1         -1.7150    2.9120   -2.6520 ha        1 JZB      0.173000
     35 HO3        -2.9880    2.5610    0.5690 ho        1 JZB      0.456000
     36 HO4         1.4500    1.7890   -3.6720 ho        1 JZB      0.435000
     37 H7          2.6080    0.8620    0.7410 hc        1 JZB      0.079200
     38 H7A         1.4940    1.4070    2.0590 hc        1 JZB      0.079200
     39 H10         2.6850   -1.0550    3.1540 ha        1 JZB      0.136000
     40 H11         4.0990   -0.1660   -3.3160 h1        1 JZB      0.063700
     41 H11A        4.6780    1.5660   -3.5630 h1        1 JZB      0.063700
     42 H12         6.4060    0.7530   -2.2120 hc        1 JZB      0.062200
     43 H12A        5.2870    1.4360   -0.9630 hc        1 JZB      0.062200
     44 H13         4.7930   -1.4870   -1.6520 ha        1 JZB      0.137000
     45 H14         6.4140   -0.2270    0.6900 ha        1 JZB      0.119000
     46 H15         5.5550   -3.1110   -0.0500 hc        1 JZB      0.046700
     47 H15A        6.7830   -2.6050    1.1790 hc        1 JZB      0.046700
     48 H16         3.2210   -2.0600    0.2420 ha        1 JZB      0.151000
     49 H17         4.6140   -3.4460    2.1640 hc        1 JZB      0.050200
     50 H17A        5.0640   -1.7760    2.6960 hc        1 JZB      0.050200
     51 H18        -1.7990   -2.3620   -0.1430 h1        1 JZB      0.074700
     52 H18A       -1.9470   -2.5360    1.6900 h1        1 JZB      0.074700
     53 H20        -6.4080   -1.3610    1.3610 h1        1 JZB      0.058700
     54 H20A       -5.5050    0.1110    0.7640 h1        1 JZB      0.058700
     55 H21        -7.3120   -0.7000   -0.8070 hc        1 JZB      0.051950
     56 H21A       -5.6730   -0.6520   -1.5720 hc        1 JZB      0.051950
     57 H22        -7.1870   -3.1260   -0.4970 hc        1 JZB      0.044200
     58 H22A       -6.7660   -2.7530   -2.2150 hc        1 JZB      0.044200
     59 H23        -5.2290   -4.4610   -1.1190 hc        1 JZB      0.051950
     60 H23A       -4.3660   -3.0050   -1.7590 hc        1 JZB      0.051950
     61 H24        -3.5140   -3.6060    0.4950 h1        1 JZB      0.058700
     62 H24A       -5.2010   -3.6070    1.1720 h1        1 JZB      0.058700
@<TRIPOS>BOND
     1    1    8 1   
     2    2    5 ar  
     3    2   14 ar  
     4    2   34 1   
     5    3   13 1   
     6    3   18 2   
     7    4   17 1   
     8    4   20 1   
     9    5    8 ar  
    10    5    9 1   
    11    6   28 1   
    12    6   29 1   
    13    6   33 1   
    14    7   17 2   
    15    8   10 ar  
    16    9   35 1   
    17   10   12 ar  
    18   10   16 1   
    19   11   14 1   
    20   11   36 1   
    21   12   14 ar  
    22   12   17 1   
    23   13   27 1   
    24   15   28 2   
    25   16   18 1   
    26   16   37 1   
    27   16   38 1   
    28   18   19 1   
    29   19   25 2   
    30   19   39 1   
    31   20   21 1   
    32   20   40 1   
    33   20   41 1   
    34   21   22 1   
    35   21   42 1   
    36   21   43 1   
    37   22   23 2   
    38   22   44 1   
    39   23   24 1   
    40   23   45 1   
    41   24   26 1   
    42   24   46 1   
    43   24   47 1   
    44   25   26 1   
    45   25   48 1   
    46   26   49 1   
    47   26   50 1   
    48   27   28 1   
    49   27   51 1   
    50   27   52 1   
    51   29   30 1   
    52   29   53 1   
    53   29   54 1   
    54   30   31 1   
    55   30   55 1   
    56   30   56 1   
    57   31   32 1   
    58   31   57 1   
    59   31   58 1   
    60   32   33 1   
    61   32   59 1   
    62   32   60 1   
    63   33   61 1   
    64   33   62 1   
@<TRIPOS>SUBSTRUCTURE
     1 JZB         1 TEMP              0 ****  ****    0 ROOT
