@<TRIPOS>MOLECULE
JZB
   62    64     1     0     0
SMALL
bcc


@<TRIPOS>ATOM
      1 Cl          0.3450   -0.7790   -0.6350 cl        1 JZB     -0.080400
      2 C1          4.3040   -0.8000   -0.1050 ca        1 JZB     -0.256000
      3 N1          1.2520    2.6380   -2.7900 n2        1 JZB     -0.420200
      4 O1          4.1590   -0.0530   -4.7260 os        1 JZB     -0.446900
      5 C2          2.9240   -0.9180    0.1010 ca        1 JZB      0.202100
      6 N2          2.4110    5.4360    0.2510 n         1 JZB     -0.458800
      7 O2          5.0590    1.7020   -3.6780 o         1 JZB     -0.527000
      8 C3          2.0140   -0.5950   -0.9260 ca        1 JZB     -0.099600
      9 O3          2.5510   -1.3790    1.3360 oh        1 JZB     -0.487100
     10 C4          2.4780   -0.1180   -2.1630 ca        1 JZB      0.067700
     11 O4          6.0980   -0.1930   -1.6090 oh        1 JZB     -0.481100
     12 C5          3.8600    0.0410   -2.3610 ca        1 JZB     -0.165600
     13 O5          2.4510    2.6600   -2.2340 os        1 JZB     -0.158300
     14 C6          4.7600   -0.3210   -1.3360 ca        1 JZB      0.202100
     15 O6          1.4230    3.3670    0.1340 o         1 JZB     -0.582100
     16 C7          1.5110    0.1490   -3.2670 c3        1 JZB     -0.121400
     17 C8          4.4130    0.6570   -3.5820 c         1 JZB      0.674700
     18 C9          0.8320    1.4910   -3.2540 ce        1 JZB      0.409600
     19 C10        -0.5080    1.4700   -3.8820 ce        1 JZB     -0.210600
     20 C11         4.5090    0.5610   -5.9780 c3        1 JZB      0.139400
     21 C12         3.5500   -0.0250   -7.0080 c3        1 JZB     -0.060200
     22 C13         3.0280    1.0040   -7.9390 c2        1 JZB     -0.174200
     23 C14         2.0340    1.8580   -7.6770 c2        1 JZB     -0.159200
     24 C15         1.3100    1.9840   -6.3880 c3        1 JZB     -0.052200
     25 C16        -0.7760    1.2670   -5.1740 c2        1 JZB     -0.147200
     26 C17         0.1660    0.9900   -6.2840 c3        1 JZB     -0.045200
     27 C18         2.8410    3.9520   -1.7260 c3        1 JZB      0.079400
     28 C19         2.1900    4.2060   -0.3730 c         1 JZB      0.628100
     29 C20         1.9170    5.6460    1.5980 c3        1 JZB      0.080500
     30 C21         3.0090    5.6430    2.6700 c3        1 JZB     -0.104900
     31 C22         4.1390    6.5820    2.3050 c3        1 JZB     -0.077400
     32 C23         4.6610    6.2940    0.9130 c3        1 JZB     -0.104900
     33 C24         3.5200    6.2920   -0.1080 c3        1 JZB      0.080500
     34 H1          5.0000   -1.0760    0.6990 ha        1 JZB      0.161000
     35 HO3         1.5820   -1.3380    1.4030 ho        1 JZB      0.439000
     36 HO4         6.5940   -0.4240   -0.8090 ho        1 JZB      0.429000
     37 H7          0.7150   -0.6480   -3.2440 hc        1 JZB      0.087200
     38 H7A         2.0310    0.0460   -4.2640 hc        1 JZB      0.087200
     39 H10        -1.3320    1.6480   -3.1670 ha        1 JZB      0.144000
     40 H11         5.5740    0.2930   -6.1960 h1        1 JZB      0.060700
     41 H11A        4.4130    1.6760   -5.9020 h1        1 JZB      0.060700
     42 H12         2.6960   -0.5230   -6.4690 hc        1 JZB      0.059700
     43 H12A        4.0810   -0.8260   -7.5870 hc        1 JZB      0.059700
     44 H13         3.5150    1.0220   -8.9280 ha        1 JZB      0.121000
     45 H14         1.7010    2.5600   -8.4620 ha        1 JZB      0.120000
     46 H15         2.0220    1.8250   -5.5320 hc        1 JZB      0.055200
     47 H15A        0.9050    3.0270   -6.2910 hc        1 JZB      0.055200
     48 H16        -1.8390    1.2690   -5.4850 ha        1 JZB      0.123000
     49 H17        -0.4030    0.9910   -7.2540 hc        1 JZB      0.049700
     50 H17A        0.5860   -0.0460   -6.1540 hc        1 JZB      0.049700
     51 H18         3.9540    3.8260   -1.6160 h1        1 JZB      0.089200
     52 H18A        2.5950    4.7690   -2.4510 h1        1 JZB      0.089200
     53 H20         1.4020    6.6490    1.6070 h1        1 JZB      0.057450
     54 H20A        1.1530    4.8540    1.8430 h1        1 JZB      0.057450
     55 H21         3.4070    4.6040    2.8010 hc        1 JZB      0.049700
     56 H21A        2.5500    5.9560    3.6420 hc        1 JZB      0.049700
     57 H22         4.9710    6.4800    3.0490 hc        1 JZB      0.042200
     58 H22A        3.7730    7.6420    2.3530 hc        1 JZB      0.042200
     59 H23         5.4040    7.0760    0.6120 hc        1 JZB      0.049700
     60 H23A        5.1860    5.3030    0.9020 hc        1 JZB      0.049700
     61 H24         3.9310    6.0110   -1.1160 h1        1 JZB      0.057450
     62 H24A        3.1120    7.3420   -0.1870 h1        1 JZB      0.057450
@<TRIPOS>BOND
     1    1    8 1   
     2    2    5 ar  
     3    2   14 ar  
     4    2   34 1   
     5    3   13 1   
     6    3   18 2   
     7    4   17 1   
     8    4   20 1   
     9    5    8 ar  
    10    5    9 1   
    11    6   28 1   
    12    6   29 1   
    13    6   33 1   
    14    7   17 2   
    15    8   10 ar  
    16    9   35 1   
    17   10   12 ar  
    18   10   16 1   
    19   11   14 1   
    20   11   36 1   
    21   12   14 ar  
    22   12   17 1   
    23   13   27 1   
    24   15   28 2   
    25   16   18 1   
    26   16   37 1   
    27   16   38 1   
    28   18   19 1   
    29   19   25 2   
    30   19   39 1   
    31   20   21 1   
    32   20   40 1   
    33   20   41 1   
    34   21   22 1   
    35   21   42 1   
    36   21   43 1   
    37   22   23 2   
    38   22   44 1   
    39   23   24 1   
    40   23   45 1   
    41   24   26 1   
    42   24   46 1   
    43   24   47 1   
    44   25   26 1   
    45   25   48 1   
    46   26   49 1   
    47   26   50 1   
    48   27   28 1   
    49   27   51 1   
    50   27   52 1   
    51   29   30 1   
    52   29   53 1   
    53   29   54 1   
    54   30   31 1   
    55   30   55 1   
    56   30   56 1   
    57   31   32 1   
    58   31   57 1   
    59   31   58 1   
    60   32   33 1   
    61   32   59 1   
    62   32   60 1   
    63   33   61 1   
    64   33   62 1   
@<TRIPOS>SUBSTRUCTURE
     1 JZB         1 TEMP              0 ****  ****    0 ROOT
