@<TRIPOS>MOLECULE
JZB
   62    58     1     0     0
SMALL
bcc


@<TRIPOS>ATOM
      1 CL         -1.8190   -2.5250    2.8610 cl        1 JZB      0.033000
      2 C1          2.1850   -2.5870    2.8820 c1        1 JZB     -0.312000
      3 N1         -1.2480    0.0760    0.3870 n1        1 JZB     -0.031000
      4 O1          1.8460   -2.2200   -1.9950 os        1 JZB     -0.272000
      5 C2          0.8640   -2.5210    3.2970 c1        1 JZB      0.149000
      6 N2         -0.1350    3.6300    2.0660 n         1 JZB     -0.319000
      7 O2          1.4310   -4.2420   -0.9530 o         1 JZB     -0.337000
      8 C3         -0.1550   -2.3770    2.3610 c1        1 JZB     -0.119000
      9 O3          0.3990   -2.5660    4.6240 oh        1 JZB     -0.226000
     10 C4          0.1550   -2.2980    0.9950 c1        1 JZB      0.060000
     11 O4          3.8740   -2.5880    1.4480 oh        1 JZB     -0.234000
     12 C5          1.4830   -2.3640    0.5810 c1        1 JZB     -0.148000
     13 O5          0.0060    0.0510    0.9780 o         1 JZB     -0.181000
     14 C6          2.4950   -2.5080    1.5180 c1        1 JZB      0.159000
     15 O6         -0.6950    1.6180    3.0180 o         1 JZB     -0.331000
     16 C7         -1.0000   -2.3880   -0.0750 c3        1 JZB     -0.118000
     17 C8          1.5510   -3.0280   -0.8380 c2        1 JZB      0.362000
     18 C9         -1.7700   -1.0450   -0.1260 c2        1 JZB     -0.030000
     19 C10        -3.2240   -1.0480   -0.8210 c2        1 JZB     -0.131000
     20 C11         1.6960   -2.9290   -3.2650 c3        1 JZB     -0.004000
     21 C12         0.1760   -3.1040   -3.5880 c3        1 JZB     -0.159000
     22 C13        -0.0570   -2.8640   -5.0820 c2        1 JZB     -0.168000
     23 C14        -1.1030   -1.8300   -5.5420 c1        1 JZB     -0.153000
     24 C15        -1.9740   -1.0050   -4.4380 c2        1 JZB     -0.135500
     25 C16        -3.3600   -1.3690   -2.3570 c1        1 JZB     -0.140000
     26 C17        -2.1150   -1.8440   -3.1650 c2        1 JZB     -0.135500
     27 C18         0.5600    1.3860    1.0090 c3        1 JZB     -0.019000
     28 C19        -0.1150    2.1930    2.1260 c2        1 JZB      0.270000
     29 C20        -0.8310    4.4530    3.0410 c3        1 JZB     -0.035000
     30 C21         0.0600    5.5300    3.6230 c3        1 JZB     -0.183500
     31 C22         0.7380    6.3260    2.5730 c3        1 JZB     -0.156000
     32 C23         1.4410    5.4650    1.5880 c3        1 JZB     -0.183500
     33 C24         0.5390    4.3900    1.0220 c3        1 JZB     -0.035000
     34 H1          2.8960   -2.6870    3.5380 ha        1 JZB      0.143000
     35 HO3         0.6960   -3.2990    5.0170 ho        1 JZB      0.223000
     36 HO4         4.1250   -3.4440    1.5220 ho        1 JZB      0.225000
     37 H7         -0.6110   -2.5780   -0.9650 hc        1 JZB      0.119500
     38 H7A        -1.6130   -3.1020    0.1700 hc        1 JZB      0.119500
     39 H10        -4.0210   -0.7450   -0.3060 ha        1 JZB      0.145000
     40 H11         2.1220   -3.8160   -3.1990 h1        1 JZB      0.103000
     41 H11A        2.1290   -2.4080   -3.9870 h1        1 JZB      0.103000
     42 H12        -0.3450   -2.4570   -3.0690 hc        1 JZB      0.103000
     43 H12A       -0.1070   -4.0160   -3.3550 hc        1 JZB      0.103000
     44 H13         0.4710   -3.3640   -5.7520 ha        1 JZB      0.113000
     45 H14        -1.2530   -1.6760   -6.5020 ha        1 JZB      0.111000
     46 H15        -1.5150   -0.1570   -4.2240 ha        1 JZB      0.095750
     47 H15A       -2.8580   -0.8150   -4.8000 ha        1 JZB      0.095750
     48 H16        -4.2480   -1.3700   -2.7810 ha        1 JZB      0.126000
     49 H17        -2.2220   -2.7740   -3.4030 ha        1 JZB      0.095750
     50 H17A       -1.3310   -1.7410   -2.6300 ha        1 JZB      0.095750
     51 H18         0.4020    1.8250    0.1450 h1        1 JZB      0.120000
     52 H18A        1.5250    1.3360    1.1780 h1        1 JZB      0.120000
     53 H20        -1.5930    4.8740    2.6120 h1        1 JZB      0.096750
     54 H20A       -1.1570    3.8700    3.7800 h1        1 JZB      0.096750
     55 H21         0.7310    5.1130    4.1830 hc        1 JZB      0.088250
     56 H21A       -0.4820    6.1260    4.1720 hc        1 JZB      0.088250
     57 H22         1.3840    6.9170    2.9930 hc        1 JZB      0.082000
     58 H22A        0.0690    6.8670    2.1030 hc        1 JZB      0.082000
     59 H23         2.2080    5.0380    2.0270 hc        1 JZB      0.088250
     60 H23A        1.7660    6.0240    0.8540 hc        1 JZB      0.088250
     61 H24        -0.1400    4.8130    0.4460 h1        1 JZB      0.096750
     62 H24A        1.0770    3.7760    0.4810 h1        1 JZB      0.096750
@<TRIPOS>BOND
     1    1    8 1   
     2    2    5 1   
     3    2   34 1   
     4    3   18 1   
     5    4   17 1   
     6    4   20 1   
     7    5    9 1   
     8    6   28 1   
     9    6   29 1   
    10    6   33 1   
    11    7   17 1   
    12    8   10 1   
    13    9   35 1   
    14   10   16 1   
    15   11   14 1   
    16   11   36 1   
    17   12   14 1   
    18   12   17 1   
    19   13   27 1   
    20   15   28 1   
    21   16   18 1   
    22   16   37 1   
    23   16   38 1   
    24   18   19 1   
    25   19   25 1   
    26   19   39 1   
    27   20   21 1   
    28   20   40 1   
    29   20   41 1   
    30   21   22 1   
    31   21   42 1   
    32   21   43 1   
    33   22   23 1   
    34   22   44 1   
    35   23   45 1   
    36   24   26 1   
    37   24   46 1   
    38   24   47 1   
    39   25   48 1   
    40   26   49 1   
    41   26   50 1   
    42   27   28 1   
    43   27   51 1   
    44   27   52 1   
    45   29   30 1   
    46   29   53 1   
    47   29   54 1   
    48   30   31 1   
    49   30   55 1   
    50   30   56 1   
    51   31   32 1   
    52   31   57 1   
    53   31   58 1   
    54   32   33 1   
    55   32   59 1   
    56   32   60 1   
    57   33   61 1   
    58   33   62 1   
@<TRIPOS>SUBSTRUCTURE
     1 JZB         1 TEMP              0 ****  ****    0 ROOT
