@<TRIPOS>MOLECULE
JZB
   62    64     1     0     0
SMALL
bcc


@<TRIPOS>ATOM
      1 CL          1.0160   -0.0370    0.0760 cl        1 JZB     -0.075400
      2 C1          4.9600   -0.0940   -0.5310 ca        1 JZB     -0.253000
      3 N1          1.2070    2.8240   -2.7200 n2        1 JZB     -0.442200
      4 O1          3.6950   -1.1660   -4.7850 os        1 JZB     -0.433900
      5 C2          3.7030    0.0170    0.0750 ca        1 JZB      0.212100
      6 N2          1.8970    4.9290    1.5040 n         1 JZB     -0.456800
      7 O2          4.4010    0.9570   -4.8960 o         1 JZB     -0.533000
      8 C3          2.5270    0.0320   -0.7070 ca        1 JZB     -0.068600
      9 O3          3.6960    0.0800    1.4430 oh        1 JZB     -0.495100
     10 C4          2.6160    0.1030   -2.1040 ca        1 JZB      0.039700
     11 O4          6.2270   -0.2820   -2.5880 oh        1 JZB     -0.486100
     12 C5          3.8750   -0.0080   -2.7190 ca        1 JZB     -0.171600
     13 O5          1.4530    2.7500   -1.4210 os        1 JZB     -0.154300
     14 C6          5.0320   -0.1340   -1.9270 ca        1 JZB      0.195100
     15 O6          2.3410    2.7330    1.0240 o         1 JZB     -0.603100
     16 C7          1.3960    0.2890   -2.9420 c3        1 JZB     -0.116400
     17 C8          4.0200    0.0240   -4.1880 c         1 JZB      0.673700
     18 C9          1.1920    1.7110   -3.4040 ce        1 JZB      0.423600
     19 C10         0.9100    1.7880   -4.8520 ce        1 JZB     -0.249600
     20 C11         3.7340   -1.2310   -6.2180 c3        1 JZB      0.138400
     21 C12         2.3500   -0.9180   -6.7680 c3        1 JZB     -0.082200
     22 C13         2.3870   -0.5560   -8.2040 c2        1 JZB     -0.173200
     23 C14         2.5360    0.6860   -8.6760 c2        1 JZB     -0.156200
     24 C15         2.7720    1.8970   -7.8520 c3        1 JZB     -0.060200
     25 C16         1.6780    2.4670   -5.7090 c2        1 JZB     -0.111200
     26 C17         1.5050    2.4210   -7.1830 c3        1 JZB     -0.049200
     27 C18         1.4430    4.0610   -0.7950 c3        1 JZB      0.074400
     28 C19         1.9530    3.8480    0.6250 c         1 JZB      0.659100
     29 C20         2.5250    4.8150    2.8080 c3        1 JZB      0.079000
     30 C21         3.8280    5.6060    2.9420 c3        1 JZB     -0.104900
     31 C22         3.6460    7.0430    2.5020 c3        1 JZB     -0.078400
     32 C23         3.0330    7.1200    1.1200 c3        1 JZB     -0.104900
     33 C24         1.7450    6.2940    1.0490 c3        1 JZB      0.079000
     34 H1          5.8630   -0.1410    0.0920 ha        1 JZB      0.159000
     35 HO3         2.8860    0.5500    1.7150 ho        1 JZB      0.456000
     36 HO4         6.9350   -0.3140   -1.9260 ho        1 JZB      0.428000
     37 H7          1.4790   -0.3810   -3.8450 hc        1 JZB      0.083700
     38 H7A         0.4750   -0.0290   -2.3780 hc        1 JZB      0.083700
     39 H10         0.0420    1.1890   -5.1730 ha        1 JZB      0.136000
     40 H11         4.5050   -0.5280   -6.6270 h1        1 JZB      0.069200
     41 H11A        4.0300   -2.2940   -6.4230 h1        1 JZB      0.069200
     42 H12         1.6820   -1.8070   -6.6160 hc        1 JZB      0.057700
     43 H12A        1.9150   -0.0680   -6.1700 hc        1 JZB      0.057700
     44 H13         2.2560   -1.4000   -8.9030 ha        1 JZB      0.119000
     45 H14         2.5130    0.8610   -9.7660 ha        1 JZB      0.118000
     46 H15         3.5480    1.6620   -7.0670 hc        1 JZB      0.062200
     47 H15A        3.2030    2.7050   -8.5010 hc        1 JZB      0.062200
     48 H16         2.5410    3.0590   -5.3550 ha        1 JZB      0.144000
     49 H17         0.6260    1.7820   -7.4610 hc        1 JZB      0.051200
     50 H17A        1.2870    3.4590   -7.5530 hc        1 JZB      0.051200
     51 H18         0.3920    4.4520   -0.7850 h1        1 JZB      0.072200
     52 H18A        2.1240    4.7610   -1.3460 h1        1 JZB      0.072200
     53 H20         2.7240    3.7290    3.0340 h1        1 JZB      0.059200
     54 H20A        1.7830    5.2040    3.5640 h1        1 JZB      0.059200
     55 H21         4.6300    5.1200    2.3280 hc        1 JZB      0.051950
     56 H21A        4.1520    5.5710    4.0130 hc        1 JZB      0.051950
     57 H22         2.9820    7.5760    3.2330 hc        1 JZB      0.044200
     58 H22A        4.6370    7.5680    2.5050 hc        1 JZB      0.044200
     59 H23         2.7860    8.1830    0.8670 hc        1 JZB      0.051950
     60 H23A        3.7670    6.7500    0.3580 hc        1 JZB      0.051950
     61 H24         1.3460    6.3260   -0.0010 h1        1 JZB      0.059200
     62 H24A        0.9750    6.7780    1.7190 h1        1 JZB      0.059200
@<TRIPOS>BOND
     1    1    8 1   
     2    2    5 ar  
     3    2   14 ar  
     4    2   34 1   
     5    3   13 1   
     6    3   18 2   
     7    4   17 1   
     8    4   20 1   
     9    5    8 ar  
    10    5    9 1   
    11    6   28 1   
    12    6   29 1   
    13    6   33 1   
    14    7   17 2   
    15    8   10 ar  
    16    9   35 1   
    17   10   12 ar  
    18   10   16 1   
    19   11   14 1   
    20   11   36 1   
    21   12   14 ar  
    22   12   17 1   
    23   13   27 1   
    24   15   28 2   
    25   16   18 1   
    26   16   37 1   
    27   16   38 1   
    28   18   19 1   
    29   19   25 2   
    30   19   39 1   
    31   20   21 1   
    32   20   40 1   
    33   20   41 1   
    34   21   22 1   
    35   21   42 1   
    36   21   43 1   
    37   22   23 2   
    38   22   44 1   
    39   23   24 1   
    40   23   45 1   
    41   24   26 1   
    42   24   46 1   
    43   24   47 1   
    44   25   26 1   
    45   25   48 1   
    46   26   49 1   
    47   26   50 1   
    48   27   28 1   
    49   27   51 1   
    50   27   52 1   
    51   29   30 1   
    52   29   53 1   
    53   29   54 1   
    54   30   31 1   
    55   30   55 1   
    56   30   56 1   
    57   31   32 1   
    58   31   57 1   
    59   31   58 1   
    60   32   33 1   
    61   32   59 1   
    62   32   60 1   
    63   33   61 1   
    64   33   62 1   
@<TRIPOS>SUBSTRUCTURE
     1 JZB         1 TEMP              0 ****  ****    0 ROOT
