@<TRIPOS>MOLECULE
JZC
   62    61     1     0     0
SMALL
bcc


@<TRIPOS>ATOM
      1 C1         -0.4800    0.6860   -0.0420 c2        1 JZC     -0.327000
      2 N1          1.5720    4.2060    3.4330 n2        1 JZC     -0.067000
      3 O1          0.5270   -1.0590    4.2050 os        1 JZC     -0.282000
      4 C2         -0.9590    1.9440   -0.2250 c2        1 JZC      0.116000
      5 N2          1.0790    5.6110    0.5550 n2        1 JZC     -0.262000
      6 O2         -1.6890   -0.7700    4.0590 o         1 JZC     -0.339000
      7 C3          0.9520    2.0240    1.2880 c1        1 JZC      0.087000
      8 O3         -0.6280    2.6140   -1.3630 oh        1 JZC     -0.254000
      9 C4          0.6620    1.3270    2.3940 c2        1 JZC     -0.285000
     10 C5         -0.2570    0.1980    2.3490 c2        1 JZC     -0.129000
     11 O5          0.2510    4.3040    3.3910 os        1 JZC     -0.196000
     12 C6         -0.8200   -0.1030    1.1420 c2        1 JZC      0.134000
     13 O6         -1.0900    4.7750    0.5280 o         1 JZC     -0.375000
     14 C7          1.2510    1.7200    3.7090 c3        1 JZC     -0.081000
     15 C8         -0.5790   -0.5540    3.5700 c2        1 JZC      0.370000
     16 C9          2.0510    2.9940    3.6090 c2        1 JZC      0.012000
     17 C10         3.4980    2.8370    3.7550 c2        1 JZC     -0.457000
     18 C11         0.3360   -1.8270    5.4010 c3        1 JZC     -0.016000
     19 C12         0.5230   -0.9500    6.6300 c3        1 JZC     -0.155000
     20 C13        -0.7600   -0.4170    7.1460 c2        1 JZC     -0.179000
     21 C14        -0.9850   -0.1770    8.4410 c2        1 JZC     -0.164000
     22 C15        -2.2660    0.3540    8.9640 c3        1 JZC     -0.133000
     23 C16         4.4050    3.7820    3.9250 c1        1 JZC      0.263000
     24 C17        -2.0470    1.4460    9.9830 c3        1 JZC     -0.207000
     25 C18        -0.2380    5.4590    2.6760 c3        1 JZC     -0.019000
     26 C19        -0.1160    5.2110    1.1740 c2        1 JZC      0.272000
     27 C20         1.0950    4.5170   -3.1520 c3        1 JZC     -0.219000
     28 C21         2.5330    4.9600   -3.2460 c3        1 JZC     -0.159000
     29 C22         3.3710    4.5190   -2.0640 c3        1 JZC     -0.158000
     30 C23         3.0930    5.3010   -0.7950 c3        1 JZC     -0.152000
     31 C24         1.8410    4.8260   -0.1190 c2        1 JZC      0.034000
     32 H1          0.1680    0.1990   -0.7860 ha        1 JZC      0.173000
     33 H3         -1.6130    2.4690    0.4970 h4        1 JZC      0.167000
     34 HO3        -0.8930    3.5460   -1.2510 ho        1 JZC      0.260000
     35 HO4        -1.9910   -1.1980    0.1120 ho        1 JZC      0.232000
     36 H7          0.4120    1.8670    4.4460 hc        1 JZC      0.124000
     37 H7A         1.8880    0.8770    4.0930 hc        1 JZC      0.124000
     38 H10         3.8610    1.7860    3.7130 ha        1 JZC      0.203000
     39 H11        -1.5300   -0.2220    6.3780 ha        1 JZC      0.146000
     40 H11A        1.1530   -2.5970    5.3370 h1        1 JZC      0.108000
     41 H12        -0.6660   -2.3280    5.3970 h1        1 JZC      0.108000
     42 H12A        1.0460   -1.5530    7.4190 hc        1 JZC      0.095000
     43 H13         1.1980   -0.0890    6.3640 hc        1 JZC      0.095000
     44 H14        -0.2140   -0.3780    9.2030 ha        1 JZC      0.116000
     45 H15        -2.8350   -0.4920    9.4410 hc        1 JZC      0.087000
     46 H15A       -2.9030    0.7460    8.1260 hc        1 JZC      0.087000
     47 H16        -1.5010    2.3060    9.5270 hc        1 JZC      0.072667
     48 H17        -1.4460    1.0670   10.8450 hc        1 JZC      0.072667
     49 H17A       -3.0280    1.8130   10.3700 hc        1 JZC      0.072667
     50 H18         0.2840    6.3980    2.9880 h1        1 JZC      0.134000
     51 H18A       -1.3230    5.4790    2.9710 h1        1 JZC      0.134000
     52 H20         0.5850    5.0080   -2.2880 hc        1 JZC      0.076333
     53 H20A        1.0230    3.4100   -3.0100 hc        1 JZC      0.076333
     54 H21         0.5460    4.7920   -4.0850 hc        1 JZC      0.076333
     55 H21A        2.9860    4.5310   -4.1800 hc        1 JZC      0.081500
     56 H22         2.5760    6.0770   -3.3410 hc        1 JZC      0.081500
     57 H22A        4.4540    4.6620   -2.3240 hc        1 JZC      0.087000
     58 H23         3.2150    3.4230   -1.8810 hc        1 JZC      0.087000
     59 H23A        3.0490    6.3990   -1.0240 hc        1 JZC      0.111500
     60 H24         3.9380    5.1430   -0.0690 hc        1 JZC      0.111500
     61 H24A        1.6470    3.7270   -0.2160 h4        1 JZC      0.149000
     62 O4         -1.6550   -1.1800    1.0220 oh        1 JZC     -0.225000
@<TRIPOS>BOND
     1    1    4 1   
     2    1   12 1   
     3    1   32 1   
     4    2   11 1   
     5    2   16 1   
     6    3   15 1   
     7    3   18 1   
     8    4    8 1   
     9    4   33 1   
    10    5   26 1   
    11    5   31 1   
    12    6   15 1   
    13    7    9 1   
    14    8   34 1   
    15    9   10 1   
    16    9   14 1   
    17   10   12 1   
    18   10   15 1   
    19   11   25 1   
    20   12   62 1   
    21   13   26 1   
    22   14   16 1   
    23   14   36 1   
    24   14   37 1   
    25   16   17 1   
    26   17   23 1   
    27   17   38 1   
    28   18   19 1   
    29   18   40 1   
    30   18   41 1   
    31   19   20 1   
    32   19   42 1   
    33   19   43 1   
    34   20   21 1   
    35   20   39 1   
    36   21   22 1   
    37   21   44 1   
    38   22   24 1   
    39   22   45 1   
    40   22   46 1   
    41   24   47 1   
    42   24   48 1   
    43   24   49 1   
    44   25   26 1   
    45   25   50 1   
    46   25   51 1   
    47   27   28 1   
    48   27   52 1   
    49   27   53 1   
    50   27   54 1   
    51   28   29 1   
    52   28   55 1   
    53   28   56 1   
    54   29   30 1   
    55   29   57 1   
    56   29   58 1   
    57   30   31 1   
    58   30   59 1   
    59   30   60 1   
    60   31   61 1   
    61   35   62 1   
@<TRIPOS>SUBSTRUCTURE
     1 JZC         1 TEMP              0 ****  ****    0 ROOT
