@<TRIPOS>MOLECULE
JZC
   62    64     1     0     0
SMALL
bcc


@<TRIPOS>ATOM
      1 C1         -0.7790    3.1090   -1.3710 ca        1 JZC     -0.207000
      2 N1         -0.0040   -1.8610    0.7090 n2        1 JZC     -0.447200
      3 O1          3.5110    2.3940   -1.3650 os        1 JZC     -0.455900
      4 C2         -1.3990    2.4280   -0.3180 ca        1 JZC      0.189100
      5 N2         -4.6850   -1.7900    0.7550 n         1 JZC     -0.455800
      6 O2          2.9570    0.2750   -1.8040 o         1 JZC     -0.531000
      7 C3         -0.6920    1.4980    0.4630 ca        1 JZC     -0.226000
      8 O3         -2.7130    2.7280   -0.0690 oh        1 JZC     -0.502100
      9 C4          0.6240    1.1720    0.1470 ca        1 JZC      0.036700
     10 C5          1.2480    1.7940   -0.9520 ca        1 JZC     -0.238600
     11 O5         -1.0850   -1.1480    0.4350 os        1 JZC     -0.158300
     12 C6          0.5550    2.7930   -1.6660 ca        1 JZC      0.200100
     13 O6         -3.2800   -0.0400    1.2200 o         1 JZC     -0.623100
     14 C7          1.3810    0.2630    1.0530 c3        1 JZC     -0.106400
     15 C8          2.5880    1.3750   -1.3900 c         1 JZC      0.656700
     16 C9          1.1010   -1.2140    0.9660 ce        1 JZC      0.434600
     17 C10         2.2940   -2.0170    1.3280 ce        1 JZC     -0.243600
     18 C11         4.8380    2.1300   -1.8360 c3        1 JZC      0.140400
     19 C12         5.7120    1.4870   -0.7710 c3        1 JZC     -0.074200
     20 C13         5.6540    0.0060   -0.8020 c2        1 JZC     -0.165200
     21 C14         5.9370   -0.7780    0.2420 c2        1 JZC     -0.175200
     22 C15         5.8340   -2.2580    0.1810 c3        1 JZC     -0.044200
     23 C16         3.3770   -2.0760    0.5480 c2        1 JZC     -0.131200
     24 C17         4.6240   -2.7750    0.9440 c3        1 JZC     -0.048200
     25 C18        -2.2530   -1.9690    0.1870 c3        1 JZC      0.072400
     26 C19        -3.4360   -1.1810    0.7380 c         1 JZC      0.657100
     27 C20        -5.8510   -1.0230    1.1550 c3        1 JZC      0.081000
     28 C21        -6.8050   -0.6990    0.0040 c3        1 JZC     -0.104400
     29 C22        -7.1610   -1.9440   -0.7810 c3        1 JZC     -0.078400
     30 C23        -5.9160   -2.6840   -1.2240 c3        1 JZC     -0.104400
     31 C24        -4.9930   -2.9630   -0.0340 c3        1 JZC      0.081000
     32 H1         -1.3160    3.8670   -1.9560 ha        1 JZC      0.169000
     33 H3         -1.2040    0.9940    1.3010 ha        1 JZC      0.176000
     34 HO3        -3.0440    2.0990    0.5970 ho        1 JZC      0.451000
     35 HO4         2.0680    3.3620   -2.7020 ho        1 JZC      0.434000
     36 H7          2.4840    0.4130    0.8810 hc        1 JZC      0.073700
     37 H7A         1.1660    0.5700    2.1170 hc        1 JZC      0.073700
     38 H10         2.2340   -2.5300    2.3010 ha        1 JZC      0.136000
     39 H11         4.7950    1.5020   -2.7640 h1        1 JZC      0.063200
     40 H11A        5.2150    3.1610   -2.0800 h1        1 JZC      0.063200
     41 H12         6.7740    1.8120   -0.9530 hc        1 JZC      0.061200
     42 H12A        5.4120    1.8750    0.2390 hc        1 JZC      0.061200
     43 H13         5.3270   -0.4330   -1.7620 ha        1 JZC      0.138000
     44 H14         6.2440   -0.3620    1.2150 ha        1 JZC      0.119000
     45 H15         5.7660   -2.6000   -0.8870 hc        1 JZC      0.047200
     46 H15A        6.7610   -2.7150    0.6200 hc        1 JZC      0.047200
     47 H16         3.4010   -1.5700   -0.4360 ha        1 JZC      0.158000
     48 H17         4.5120   -3.8750    0.7430 hc        1 JZC      0.050700
     49 H17A        4.7990   -2.6550    2.0470 hc        1 JZC      0.050700
     50 H18        -2.3450   -2.0760   -0.9260 h1        1 JZC      0.078700
     51 H18A       -2.1740   -2.9730    0.6780 h1        1 JZC      0.078700
     52 H20        -6.4030   -1.6390    1.9230 h1        1 JZC      0.058950
     53 H20A       -5.5190   -0.0650    1.6450 h1        1 JZC      0.058950
     54 H21        -7.7310   -0.2390    0.4330 hc        1 JZC      0.052700
     55 H21A       -6.3340    0.0570   -0.6770 hc        1 JZC      0.052700
     56 H22        -7.7890   -2.6200   -0.1430 hc        1 JZC      0.044700
     57 H22A       -7.7720   -1.6640   -1.6780 hc        1 JZC      0.044700
     58 H23        -6.1970   -3.6640   -1.6890 hc        1 JZC      0.052700
     59 H23A       -5.3720   -2.0830   -1.9970 hc        1 JZC      0.052700
     60 H24        -4.0530   -3.4520   -0.4090 h1        1 JZC      0.058950
     61 H24A       -5.5080   -3.6960    0.6540 h1        1 JZC      0.058950
     62 O4          1.1060    3.4930   -2.7110 oh        1 JZC     -0.498100
@<TRIPOS>BOND
     1    1    4 ar  
     2    1   12 ar  
     3    1   32 1   
     4    2   11 1   
     5    2   16 2   
     6    3   15 1   
     7    3   18 1   
     8    4    7 ar  
     9    4    8 1   
    10    5   26 1   
    11    5   27 1   
    12    5   31 1   
    13    6   15 2   
    14    7    9 ar  
    15    7   33 1   
    16    8   34 1   
    17    9   10 ar  
    18    9   14 1   
    19   10   12 ar  
    20   10   15 1   
    21   11   25 1   
    22   12   62 1   
    23   13   26 2   
    24   14   16 1   
    25   14   36 1   
    26   14   37 1   
    27   16   17 1   
    28   17   23 2   
    29   17   38 1   
    30   18   19 1   
    31   18   39 1   
    32   18   40 1   
    33   19   20 1   
    34   19   41 1   
    35   19   42 1   
    36   20   21 2   
    37   20   43 1   
    38   21   22 1   
    39   21   44 1   
    40   22   24 1   
    41   22   45 1   
    42   22   46 1   
    43   23   24 1   
    44   23   47 1   
    45   24   48 1   
    46   24   49 1   
    47   25   26 1   
    48   25   50 1   
    49   25   51 1   
    50   27   28 1   
    51   27   52 1   
    52   27   53 1   
    53   28   29 1   
    54   28   54 1   
    55   28   55 1   
    56   29   30 1   
    57   29   56 1   
    58   29   57 1   
    59   30   31 1   
    60   30   58 1   
    61   30   59 1   
    62   31   60 1   
    63   31   61 1   
    64   35   62 1   
@<TRIPOS>SUBSTRUCTURE
     1 JZC         1 TEMP              0 ****  ****    0 ROOT
