@<TRIPOS>MOLECULE
JZC
   62    63     1     0     0
SMALL
bcc


@<TRIPOS>ATOM
      1 C1          0.0770   -0.2240    0.0470 c2        1 JZC     -0.315000
      2 N1         -0.5420    3.6020    3.6720 n2        1 JZC     -0.059000
      3 O1         -0.0260   -1.7530    4.3760 os        1 JZC     -0.266000
      4 C2         -0.5480    0.8640   -0.4750 c2        1 JZC      0.107000
      5 N2         -0.1720    5.0100    0.6830 n2        1 JZC     -0.257000
      6 O2         -2.0460   -0.8270    4.0920 o         1 JZC     -0.344000
      7 C3          0.8110    1.5380    1.4490 c1        1 JZC      0.089000
      8 O3         -0.0430    1.4430   -1.5980 oh        1 JZC     -0.248000
      9 C4          0.4210    0.8950    2.5570 c2        1 JZC     -0.282000
     10 C5         -0.3050   -0.3670    2.4600 c2        1 JZC     -0.112000
     11 O5         -1.3630    3.0320    2.8040 os        1 JZC     -0.192000
     12 C6         -0.4570   -0.9130    1.2220 c2        1 JZC      0.114000
     13 O6         -1.6440    3.5710   -0.3850 o         1 JZC     -0.375000
     14 C7          0.7780    1.4300    3.9020 c3        1 JZC     -0.087000
     15 C8         -0.8970   -0.9650    3.6700 c2        1 JZC      0.375000
     16 C9          0.4070    2.8610    4.1810 c2        1 JZC     -0.036000
     17 C10         1.2770    3.4640    5.2320 cx        1 JZC     -0.135000
     18 C11        -0.4900   -2.3490    5.5940 c3        1 JZC     -0.019000
     19 C12         0.0460   -1.5920    6.8010 c3        1 JZC     -0.154000
     20 C13        -0.3890   -0.1760    6.8130 c2        1 JZC     -0.171000
     21 C14         0.3850    0.8270    7.2400 c2        1 JZC     -0.167000
     22 C15        -0.0240    2.2530    7.1850 c3        1 JZC     -0.110000
     23 C16         0.7790    4.5100    6.1890 cx        1 JZC     -0.187000
     24 C17         1.0890    3.1310    6.6980 cx        1 JZC     -0.144000
     25 C18        -2.0650    3.9590    1.9500 c3        1 JZC     -0.029000
     26 C19        -1.2580    4.1260    0.6630 c2        1 JZC      0.275000
     27 C20         2.3590    4.1280   -2.3660 c3        1 JZC     -0.212000
     28 C21         2.9660    5.3870   -1.8010 c3        1 JZC     -0.161000
     29 C22         3.3050    5.2680   -0.3290 c3        1 JZC     -0.157000
     30 C23         2.1730    5.6830    0.5900 c3        1 JZC     -0.151000
     31 C24         1.0630    4.6750    0.5860 c2        1 JZC      0.029000
     32 H1          0.9900   -0.6420   -0.4020 ha        1 JZC      0.173000
     33 H3         -1.4680    1.3080   -0.0460 h4        1 JZC      0.165000
     34 HO3        -0.5120    2.2870   -1.7350 ho        1 JZC      0.258000
     35 HO4        -1.1200   -2.3250    0.1270 ho        1 JZC      0.231000
     36 H7          0.2900    0.8060    4.7070 hc        1 JZC      0.122500
     37 H7A         1.8900    1.3170    4.0380 hc        1 JZC      0.122500
     38 H10         2.3210    3.5550    4.8620 hc        1 JZC      0.129000
     39 H11        -1.4000    0.0070    6.4070 ha        1 JZC      0.142000
     40 H11A       -0.0570   -3.3860    5.5620 h1        1 JZC      0.107000
     41 H12        -1.6100   -2.4000    5.6160 h1        1 JZC      0.107000
     42 H12A        1.1670   -1.6590    6.8110 hc        1 JZC      0.096500
     43 H13        -0.3330   -2.1080    7.7240 hc        1 JZC      0.096500
     44 H14         1.3930    0.6390    7.6470 ha        1 JZC      0.120000
     45 H15        -0.3120    2.5910    8.2200 hc        1 JZC      0.097500
     46 H15A       -0.9290    2.3800    6.5310 hc        1 JZC      0.097500
     47 H16        -0.2760    4.8360    6.1360 hc        1 JZC      0.119500
     48 H17         1.4540    5.3440    6.4540 hc        1 JZC      0.119500
     49 H17A        2.0200    2.9920    7.2880 hc        1 JZC      0.119000
     50 H18        -2.2650    4.9440    2.4410 h1        1 JZC      0.134500
     51 H18A       -3.0230    3.4170    1.7240 h1        1 JZC      0.134500
     52 H20         1.4220    3.8530   -1.8220 hc        1 JZC      0.074667
     53 H20A        3.0720    3.2730   -2.2810 hc        1 JZC      0.074667
     54 H21         2.1090    4.2720   -3.4450 hc        1 JZC      0.074667
     55 H21A        2.2640    6.2480   -1.9610 hc        1 JZC      0.082000
     56 H22         3.9060    5.6210   -2.3700 hc        1 JZC      0.082000
     57 H22A        4.1830    5.9330   -0.1050 hc        1 JZC      0.086500
     58 H23         3.6190    4.2160   -0.0960 hc        1 JZC      0.086500
     59 H23A        1.8060    6.7050    0.3040 hc        1 JZC      0.108500
     60 H24         2.5570    5.7490    1.6450 hc        1 JZC      0.108500
     61 H24A        1.4050    3.6110    0.5270 h4        1 JZC      0.148000
     62 O4         -1.0940   -2.1180    1.0740 oh        1 JZC     -0.235000
@<TRIPOS>BOND
     1    1    4 1   
     2    1   12 1   
     3    1   32 1   
     4    2   11 1   
     5    2   16 1   
     6    3   15 1   
     7    3   18 1   
     8    4    8 1   
     9    4   33 1   
    10    5   26 1   
    11    5   31 1   
    12    6   15 1   
    13    7    9 1   
    14    8   34 1   
    15    9   10 1   
    16    9   14 1   
    17   10   12 1   
    18   10   15 1   
    19   11   25 1   
    20   12   62 1   
    21   13   26 1   
    22   14   16 1   
    23   14   36 1   
    24   14   37 1   
    25   16   17 1   
    26   17   23 1   
    27   17   24 1   
    28   17   38 1   
    29   18   19 1   
    30   18   40 1   
    31   18   41 1   
    32   19   20 1   
    33   19   42 1   
    34   19   43 1   
    35   20   21 1   
    36   20   39 1   
    37   21   22 1   
    38   21   44 1   
    39   22   24 1   
    40   22   45 1   
    41   22   46 1   
    42   23   24 1   
    43   23   47 1   
    44   23   48 1   
    45   24   49 1   
    46   25   26 1   
    47   25   50 1   
    48   25   51 1   
    49   27   28 1   
    50   27   52 1   
    51   27   53 1   
    52   27   54 1   
    53   28   29 1   
    54   28   55 1   
    55   28   56 1   
    56   29   30 1   
    57   29   57 1   
    58   29   58 1   
    59   30   31 1   
    60   30   59 1   
    61   30   60 1   
    62   31   61 1   
    63   35   62 1   
@<TRIPOS>SUBSTRUCTURE
     1 JZC         1 TEMP              0 ****  ****    0 ROOT
