@<TRIPOS>MOLECULE
JZC
   62    58     1     0     0
SMALL
bcc


@<TRIPOS>ATOM
      1 C1         -1.1150   -2.2230   -3.6260 c1        1 JZC     -0.317000
      2 N1          1.1770    0.1630    0.0730 n1        1 JZC     -0.040000
      3 O1         -2.5910   -2.5790    0.9330 os        1 JZC     -0.254000
      4 C2          0.2710   -2.2060   -3.5830 c1        1 JZC      0.141000
      5 N2          1.0950    3.7380   -1.5310 n         1 JZC     -0.339000
      6 O2         -1.3880   -4.2900    0.0080 o         1 JZC     -0.364000
      7 C3          0.9310   -2.1900   -2.3560 c1        1 JZC     -0.181000
      8 O3          0.7980   -2.0950   -4.8740 oh        1 JZC     -0.240000
      9 C4          0.2010   -2.1930   -1.1740 c1        1 JZC      0.056000
     10 O4         -3.2480   -2.4080   -2.5580 oh        1 JZC     -0.240000
     11 C5         -1.1900   -2.2110   -1.2180 c1        1 JZC     -0.155000
     12 O5          0.2920    0.1710   -0.9760 o         1 JZC     -0.181000
     13 C6         -1.8470   -2.2260   -2.4440 c1        1 JZC      0.160000
     14 O6          1.7190    1.8150   -2.6510 o         1 JZC     -0.347000
     15 C7          0.9140   -2.3950    0.1520 c3        1 JZC     -0.128000
     16 C8         -1.7390   -3.1270   -0.0640 c2        1 JZC      0.376000
     17 C9          1.5200   -1.0040    0.6560 c2        1 JZC     -0.031000
     18 C10         2.5670   -1.0520    1.9020 c2        1 JZC     -0.135000
     19 C11        -2.7220   -3.4090    2.1110 c3        1 JZC     -0.003000
     20 C12        -1.4170   -3.3960    2.8930 c3        1 JZC     -0.169000
     21 C13        -1.7240   -3.4890    4.4170 c2        1 JZC     -0.160000
     22 C14        -0.9380   -2.5540    5.4510 c1        1 JZC     -0.159000
     23 C15         0.1130   -1.5360    4.9330 c2        1 JZC     -0.131000
     24 C16         2.0690   -1.4990    3.3380 c1        1 JZC     -0.130000
     25 C17         0.6180   -1.9740    3.5360 c2        1 JZC     -0.131000
     26 C18        -0.1730    1.5100   -1.2140 c3        1 JZC     -0.020000
     27 C19         0.9530    2.3380   -1.8570 c2        1 JZC      0.283000
     28 C20         2.1240    4.7900   -2.0440 c3        1 JZC     -0.020000
     29 C21         1.4660    5.9430   -2.7850 c3        1 JZC     -0.170500
     30 C22         0.1260    6.0140   -2.5020 c3        1 JZC     -0.155000
     31 C23        -0.4330    5.7800   -1.2750 c3        1 JZC     -0.170500
     32 C24         0.2610    4.6320   -0.5640 c3        1 JZC     -0.020000
     33 H1         -1.5780   -2.2340   -4.4890 ha        1 JZC      0.138000
     34 H3          1.9070   -2.1780   -2.3260 ha        1 JZC      0.167000
     35 HO3         1.0970   -2.8870   -5.1390 ho        1 JZC      0.219000
     36 HO4        -3.4230   -2.9650   -3.2350 ho        1 JZC      0.222000
     37 H7          0.2840   -2.7300    0.8090 hc        1 JZC      0.124000
     38 H7A         1.6380   -3.0420    0.0360 hc        1 JZC      0.124000
     39 H10         3.4890   -0.7500    1.7760 ha        1 JZC      0.140000
     40 H11        -2.9320   -4.3350    1.8380 h1        1 JZC      0.097500
     41 H11A       -3.4450   -3.0640    2.6750 h1        1 JZC      0.097500
     42 H12        -0.8700   -4.1580    2.6250 hc        1 JZC      0.105000
     43 H12A       -0.9400   -2.5760    2.7100 hc        1 JZC      0.105000
     44 H13        -2.3890   -4.1340    4.7460 ha        1 JZC      0.120000
     45 H14        -1.1330   -2.6140    6.4180 ha        1 JZC      0.123000
     46 H15        -0.2960   -0.6520    4.8680 ha        1 JZC      0.090750
     47 H15A        0.8650   -1.5010    5.5550 ha        1 JZC      0.090750
     48 H16         2.7020   -1.5280    4.0910 ha        1 JZC      0.121000
     49 H17         0.0520   -1.5790    2.8470 ha        1 JZC      0.090750
     50 H17A        0.5820   -2.9490    3.4670 ha        1 JZC      0.090750
     51 H18        -0.9450    1.4850   -1.8180 h1        1 JZC      0.121000
     52 H18A       -0.4370    1.9220   -0.3620 h1        1 JZC      0.121000
     53 H20         2.6170    5.1450   -1.2810 h1        1 JZC      0.086500
     54 H20A        2.7580    4.3430   -2.6530 h1        1 JZC      0.086500
     55 H21         1.5840    5.8160   -3.7470 hc        1 JZC      0.089000
     56 H21A        1.8960    6.7860   -2.5150 hc        1 JZC      0.089000
     57 H22        -0.1590    6.9230   -2.7620 hc        1 JZC      0.081500
     58 H22A       -0.3120    5.3920   -3.1210 hc        1 JZC      0.081500
     59 H23        -1.3910    5.5570   -1.3920 hc        1 JZC      0.089000
     60 H23A       -0.3560    6.5900   -0.7280 hc        1 JZC      0.089000
     61 H24         0.8610    5.0010    0.1230 h1        1 JZC      0.086500
     62 H24A       -0.4180    4.0750   -0.1250 h1        1 JZC      0.086500
@<TRIPOS>BOND
     1    1    4 1   
     2    1   33 1   
     3    2   17 1   
     4    3   16 1   
     5    3   19 1   
     6    4    8 1   
     7    5   27 1   
     8    5   28 1   
     9    5   32 1   
    10    6   16 1   
    11    7    9 1   
    12    7   34 1   
    13    8   35 1   
    14    9   15 1   
    15   10   13 1   
    16   10   36 1   
    17   11   13 1   
    18   11   16 1   
    19   12   26 1   
    20   14   27 1   
    21   15   17 1   
    22   15   37 1   
    23   15   38 1   
    24   17   18 1   
    25   18   24 1   
    26   18   39 1   
    27   19   20 1   
    28   19   40 1   
    29   19   41 1   
    30   20   21 1   
    31   20   42 1   
    32   20   43 1   
    33   21   22 1   
    34   21   44 1   
    35   22   45 1   
    36   23   25 1   
    37   23   46 1   
    38   23   47 1   
    39   24   48 1   
    40   25   49 1   
    41   25   50 1   
    42   26   27 1   
    43   26   51 1   
    44   26   52 1   
    45   28   29 1   
    46   28   53 1   
    47   28   54 1   
    48   29   30 1   
    49   29   55 1   
    50   29   56 1   
    51   30   31 1   
    52   30   57 1   
    53   30   58 1   
    54   31   32 1   
    55   31   59 1   
    56   31   60 1   
    57   32   61 1   
    58   32   62 1   
@<TRIPOS>SUBSTRUCTURE
     1 JZC         1 TEMP              0 ****  ****    0 ROOT
