@<TRIPOS>MOLECULE
JZD
   85    85     1     0     0
SMALL
bcc


@<TRIPOS>ATOM
      1 OAA        33.2760   52.7190   56.3700 o         1 JZD     -0.553500
      2 OAB       -35.3860  -57.7910  -55.8730 o         1 JZD     -0.556000
      3 OAC        35.4860   52.3810   56.4050 o         1 JZD     -0.553500
      4 OAD       -37.5900  -58.1520  -55.8690 o         1 JZD     -0.556000
      5 CLAE       26.8800   49.2160   53.9550 cl        1 JZD     -0.035000
      6 CLAF       30.7450   46.0570   55.1050 cl        1 JZD     -0.183000
      7 CAI        33.8590   47.9030   54.4360 c3        1 JZD     -0.090000
      8 CAJ       -35.2150  -50.7970  -57.2460 c1        1 JZD     -0.224500
      9 CAK        35.1480   48.5410   54.8070 c2        1 JZD     -0.209000
     10 CAL       -34.9270  -49.8900  -57.9710 c1        1 JZD     -0.224500
     11 CAM        32.6930   48.7670   54.6670 c2        1 JZD      0.005000
     12 CAN       -36.8630  -55.9370  -55.4750 c2        1 JZD     -0.153000
     13 CAO        35.2550   49.7820   55.3220 c2        1 JZD     -0.086000
     14 CAP       -36.7610  -52.5500  -54.6760 c1        1 JZD     -0.272000
     15 CAQ        29.2920   49.9850   54.7890 c2        1 JZD     -0.326000
     16 CAR        31.3470   48.5870   54.4660 c2        1 JZD     -0.187000
     17 CAS       -32.7360  -55.8170  -53.3190 ca        1 JZD     -0.190000
     18 CAT       -34.5600  -54.4410  -52.4770 ca        1 JZD     -0.190000
     19 CAU       -26.6120  -49.3590  -44.2480 c3        1 JZD     -0.213000
     20 CAV       -26.4850  -47.9620  -43.7160 c3        1 JZD     -0.213000
     21 CAW       -29.4650  -50.9580  -45.9770 c3        1 JZD     -0.211000
     22 CAX        26.5610   45.0340   52.1650 c3        1 JZD     -0.200000
     23 CAY       -29.5550  -52.3520  -46.5400 c3        1 JZD     -0.161000
     24 CAZ        28.0270   45.0860   50.1480 c3        1 JZD     -0.200000
     25 CBA       -30.3250  -52.3740  -47.8440 c3        1 JZD     -0.135000
     26 CBB        27.9870   45.0160   51.6620 c3        1 JZD     -0.184000
     27 CBC       -30.4210  -53.7810  -48.3960 c3        1 JZD     -0.249000
     28 CBD        28.8980   46.0800   52.2030 c1        1 JZD     -0.015000
     29 CBE       -31.0570  -53.7420  -49.7510 c1        1 JZD      0.023000
     30 OBH        28.3350   46.7660   53.1870 os        1 JZD     -0.118000
     31 OBI       -31.9460  -54.7270  -49.8660 os        1 JZD     -0.135000
     32 CBJ        34.3070   52.0150   56.1590 c2        1 JZD      0.364000
     33 CBK       -36.5860  -57.3980  -55.7530 c2        1 JZD      0.347000
     34 CBL        30.6530   49.8350   54.9020 c2        1 JZD      0.164000
     35 CBM       -34.0100  -55.2150  -53.5300 ca        1 JZD      0.132000
     36 CBN        28.5490   48.9260   54.1830 c2        1 JZD      0.060000
     37 CBO        30.5790   47.4460   53.9590 c3        1 JZD      0.093000
     38 CBP       -32.0410  -55.6130  -52.1340 ca        1 JZD     -0.012000
     39 CBQ       -33.8540  -54.2430  -51.2950 ca        1 JZD     -0.012000
     40 CBR        32.8840   50.1240   55.2410 c2        1 JZD     -0.003000
     41 CBS       -35.9750  -55.0300  -54.9950 c2        1 JZD      0.021000
     42 CBT        34.1070   50.6280   55.5650 c2        1 JZD     -0.074000
     43 CBU       -36.3850  -53.6810  -54.8040 c1        1 JZD     -0.084000
     44 CBV        29.1400   47.7640   53.7800 c2        1 JZD     -0.105000
     45 CBW       -32.5950  -54.8300  -51.1100 ca        1 JZD     -0.011000
     46 HAI        33.8900   47.6050   53.3490 hc        1 JZD      0.111500
     47 HAJ       -37.8920  -55.6190  -55.7070 ha        1 JZD      0.127000
     48 HAK        36.2280   50.2300   55.5920 ha        1 JZD      0.165000
     49 HAL       -37.1000  -51.5560  -54.5500 ha        1 JZD      0.214000
     50 HAM        33.7310   46.9510   55.0280 hc        1 JZD      0.111500
     51 HAN       -35.4700  -51.6080  -56.6020 ha        1 JZD      0.223500
     52 HAO        36.0380   47.9190   54.6340 ha        1 JZD      0.114000
     53 HAP       -34.6700  -49.0890  -58.6140 ha        1 JZD      0.223500
     54 HAQ        28.7730   50.8900   55.1230 ha        1 JZD      0.151000
     55 HAR        31.0080   47.0320   53.0040 h1        1 JZD      0.148000
     56 HAS       -32.3000  -56.4570  -54.1030 ha        1 JZD      0.164500
     57 HAT       -35.5590  -53.9900  -52.5910 ha        1 JZD      0.164500
     58 HAU       -27.1210  -50.0210  -43.5050 hc        1 JZD      0.071167
     59 HAUA      -25.6060  -49.7910  -44.4690 hc        1 JZD      0.071167
     60 HAV       -25.9780  -47.3010  -44.4600 hc        1 JZD      0.071167
     61 HAVA      -27.4910  -47.5300  -43.4950 hc        1 JZD      0.071167
     62 HAW       -27.2130  -49.3710  -45.1910 hc        1 JZD      0.071167
     63 HAX        25.9820   44.1820   51.7360 hc        1 JZD      0.074000
     64 HAXA      -25.8860  -47.9510  -42.7730 hc        1 JZD      0.071167
     65 HAY       -28.8890  -50.9590  -45.0190 hc        1 JZD      0.069667
     66 HAZ        27.4930   44.2080   49.7130 hc        1 JZD      0.074000
     67 HAZA       26.0590   45.9880   51.8750 hc        1 JZD      0.074000
     68 HBA       -28.9480  -50.2750  -46.6950 hc        1 JZD      0.069667
     69 HBAA      -30.0570  -53.0270  -45.7970 hc        1 JZD      0.075000
     70 HBB        27.5280   46.0180   49.7880 hc        1 JZD      0.074000
     71 HBBA       29.0830   45.0860   49.7880 hc        1 JZD      0.074000
     72 HBC       -31.3570  -51.9660  -47.6780 hc        1 JZD      0.089500
     73 HBCA      -29.8210  -51.7100  -48.5950 hc        1 JZD      0.089500
     74 HBD        28.4760   44.0500   51.9910 hc        1 JZD      0.116000
     75 HBDA       26.5440   44.9580   53.2790 hc        1 JZD      0.074000
     76 HBE       -30.9470  -54.4470  -47.6620 hc        1 JZD      0.096500
     77 HBEA      -29.3890  -54.2020  -48.5530 hc        1 JZD      0.096500
     78 HNBF       31.4940   51.6310   55.7520 hn        1 JZD      0.304000
     79 HNBG      -34.3330  -56.1780  -55.2880 hn        1 JZD      0.274000
     80 H37       -30.4840  -50.5470  -45.7760 hc        1 JZD      0.069667
     81 H38       -28.5220  -52.7580  -46.7090 hc        1 JZD      0.075000
     82 CLAH      -34.5600  -53.2830  -50.0750 cl        1 JZD     -0.021500
     83 NBG       -34.6020  -55.3380  -54.7800 nh        1 JZD     -0.224000
     84 NBF        31.6090   50.7210   55.3610 na        1 JZD     -0.228000
     85 CLAG      -30.5120  -56.3420  -51.9470 cl        1 JZD     -0.021500
@<TRIPOS>BOND
     1    1   32 1   
     2    2   33 1   
     3    3   32 1   
     4    4   33 1   
     5    5   36 1   
     6    6   37 1   
     7    7    9 1   
     8    7   11 1   
     9    7   46 1   
    10    7   50 1   
    11    8   10 1   
    12    8   51 1   
    13    9   13 1   
    14    9   52 1   
    15   10   53 1   
    16   11   16 1   
    17   11   40 1   
    18   12   33 1   
    19   12   41 1   
    20   12   47 1   
    21   13   42 1   
    22   13   48 1   
    23   14   43 1   
    24   14   49 1   
    25   15   34 1   
    26   15   36 1   
    27   15   54 1   
    28   16   34 1   
    29   16   37 1   
    30   17   35 1   
    31   17   38 1   
    32   17   56 1   
    33   18   35 1   
    34   18   39 1   
    35   18   57 1   
    36   19   20 1   
    37   19   58 1   
    38   19   59 1   
    39   19   62 1   
    40   20   60 1   
    41   20   61 1   
    42   20   64 1   
    43   21   23 1   
    44   21   65 1   
    45   21   68 1   
    46   21   80 1   
    47   22   26 1   
    48   22   63 1   
    49   22   67 1   
    50   22   75 1   
    51   23   25 1   
    52   23   69 1   
    53   23   81 1   
    54   24   26 1   
    55   24   66 1   
    56   24   70 1   
    57   24   71 1   
    58   25   27 1   
    59   25   72 1   
    60   25   73 1   
    61   26   28 1   
    62   26   74 1   
    63   27   29 1   
    64   27   76 1   
    65   27   77 1   
    66   28   30 1   
    67   29   31 1   
    68   30   44 1   
    69   31   45 1   
    70   32   42 1   
    71   34   84 1   
    72   35   83 1   
    73   36   44 1   
    74   37   44 1   
    75   37   55 1   
    76   38   45 1   
    77   38   85 1   
    78   39   45 1   
    79   39   82 1   
    80   40   42 1   
    81   40   84 1   
    82   41   43 1   
    83   41   83 1   
    84   78   84 1   
    85   79   83 1   
@<TRIPOS>SUBSTRUCTURE
     1 JZD         1 TEMP              0 ****  ****    0 ROOT
