@<TRIPOS>MOLECULE
JZD
   87    86     1     0     0
SMALL
bcc


@<TRIPOS>ATOM
      1 OAA        -5.5450   -5.1060   -0.0200 o         1 JZD     -0.213500
      2 OAB        -7.6330  -13.9480  -16.6680 oh        1 JZD     -0.286000
      3 OAC        -7.6050   -5.4180    1.1290 o         1 JZD     -0.213500
      4 OAD        -6.5830  -13.4370  -14.8340 o         1 JZD     -0.390000
      5 CLAE       -2.4220   -8.6350   -3.0380 cl        1 JZD      0.031000
      6 CLAF        1.1520   -6.3590   -0.3490 cl        1 JZD     -0.081000
      7 CAI        -0.3260   -2.0920    2.2130 c3        1 JZD     -0.222000
      8 CAJ       -11.3810  -14.6500  -13.3400 c2        1 JZD     -0.062000
      9 CAK         0.2230   -2.0870    0.8300 c2        1 JZD     -0.153000
     10 CAL       -11.3070  -14.7270  -14.8160 c3        1 JZD     -0.172000
     11 CAM        -1.4680   -2.9770    2.4360 c1        1 JZD      0.086000
     12 CAN       -10.3290  -14.2680  -12.5900 c2        1 JZD     -0.241000
     13 CAO        -0.1870   -2.9680   -0.0970 c2        1 JZD     -0.144000
     14 CAP       -10.0050  -14.4260  -15.3920 c1        1 JZD     -0.187000
     15 CAQ        -2.5100   -7.3710   -0.6980 c1        1 JZD     -0.014000
     16 CAR        -1.2640   -5.2090   -0.2810 c2        1 JZD     -0.093000
     17 CAS        -6.9700  -13.7660  -10.2670 c1        1 JZD     -0.026000
     18 CAT        -9.0500  -12.4680  -10.4530 c2        1 JZD     -0.012000
     19 CAU        -5.7020  -10.1230    0.6500 c2        1 JZD     -0.179000
     20 CAV        -2.4240   -4.5410   -7.7980 c3        1 JZD     -0.266000
     21 CAW        -6.6940  -10.8300    1.4840 c3        1 JZD     -0.187000
     22 CAX        -4.7690   -9.3010    1.1250 c2        1 JZD     -0.234000
     23 CAY        -5.7450  -10.7520   -3.0310 c3        1 JZD     -0.221000
     24 CAZ         1.5970   -5.2770   -5.9910 c3        1 JZD     -0.191000
     25 CBA        -5.7770  -10.9470   -4.5250 c3        1 JZD     -0.135000
     26 CBB         1.5950   -6.3850   -4.9650 c3        1 JZD     -0.247000
     27 CBC        -6.8240  -11.9720   -4.9180 c3        1 JZD     -0.250000
     28 CBD         0.8180   -5.9710   -3.7690 c1        1 JZD      0.019000
     29 CBE        -6.7480  -12.2370   -6.3750 c1        1 JZD      0.027000
     30 OBH         0.0280   -6.9680   -3.3470 os        1 JZD     -0.141000
     31 OBI        -7.9800  -12.3260   -6.9100 os        1 JZD     -0.140000
     32 CBJ        -6.5750   -5.2630    0.5590 c1        1 JZD      0.429000
     33 CBK        -7.6680  -13.7960  -15.3180 c2        1 JZD      0.380000
     34 CBL        -2.2780   -6.2160    0.1490 c3        1 JZD     -0.200000
     35 CBM        -8.0530  -13.2230  -11.0380 c2        1 JZD     -0.086000
     36 CBN        -1.8270   -7.4840   -1.9450 c2        1 JZD     -0.162000
     37 CBO        -0.2250   -5.6810   -1.2460 c3        1 JZD     -0.033000
     38 CBP        -6.9080  -13.4740   -8.8370 c3        1 JZD     -0.112000
     39 CBQ        -9.0180  -12.1610   -9.0480 c2        1 JZD     -0.137000
     40 CBR        -2.1830   -3.4070    1.2250 c2        1 JZD     -0.050000
     41 CBS        -9.0390  -13.9180  -13.1900 c2        1 JZD      0.257000
     42 CBT        -1.2200   -3.9550    0.2160 c2        1 JZD     -0.093000
     43 CBU        -8.9290  -14.0580  -14.6080 c2        1 JZD     -0.334000
     44 CBV        -0.7240   -6.7210   -2.1980 c2        1 JZD      0.119000
     45 CBW        -8.0050  -12.6370   -8.2680 c2        1 JZD      0.086000
     46 HAI         0.4900   -2.3730    2.9410 hc        1 JZD      0.155000
     47 HAJ       -10.4090  -14.2570  -11.4900 ha        1 JZD      0.138000
     48 HAK         0.2340   -2.9680   -1.1140 ha        1 JZD      0.144000
     49 HAL       -12.0600  -14.0210  -15.2740 hc        1 JZD      0.153500
     50 HAM        -0.6670   -1.0540    2.5110 hc        1 JZD      0.155000
     51 HAN       -12.3350  -14.9320  -12.8660 ha        1 JZD      0.134000
     52 HAO         0.9980   -1.3380    0.6120 ha        1 JZD      0.139000
     53 HAP       -11.6040  -15.7650  -15.1520 hc        1 JZD      0.153500
     54 HAQ        -1.9950   -6.6100    1.1740 hc        1 JZD      0.171000
     55 HAR         0.2110   -4.8280   -1.8450 h1        1 JZD      0.181000
     56 HAS        -5.9200  -12.9470   -8.6260 h1        1 JZD      0.226000
     57 HAT        -9.8970  -12.0640  -11.0380 ha        1 JZD      0.168000
     58 HAU        -2.7290   -3.4740   -7.7360 hc        1 JZD      0.066500
     59 HAUA       -1.3980   -4.6580   -7.3860 hc        1 JZD      0.066500
     60 HAV        -6.5850  -11.9370    1.3570 hc        1 JZD      0.076333
     61 HAVA       -3.1320   -5.1630   -7.2090 hc        1 JZD      0.066500
     62 HAW        -5.7770  -10.3240   -0.4340 ha        1 JZD      0.114000
     63 HAX        -4.0410   -8.7900    0.4720 ha        1 JZD      0.126000
     64 HAXA       -2.4370   -4.8700   -8.8590 hc        1 JZD      0.066500
     65 HAY        -6.5740  -10.5880    2.5680 hc        1 JZD      0.076333
     66 HAZ         2.2820   -5.5430   -6.8310 hc        1 JZD      0.084000
     67 HAZA       -4.6660   -9.0860    2.1970 ha        1 JZD      0.126000
     68 HBA        -4.9680   -9.9960   -2.7580 hc        1 JZD      0.081000
     69 HBAA       -6.7340  -10.3930   -2.6570 hc        1 JZD      0.081000
     70 HBB         1.9420   -4.3180   -5.5360 hc        1 JZD      0.084000
     71 HBBA        0.5710   -5.1240   -6.4050 hc        1 JZD      0.084000
     72 HBC        -4.7700  -11.2840   -4.8890 hc        1 JZD      0.090000
     73 HBCA       -6.0050   -9.9700   -5.0290 hc        1 JZD      0.090000
     74 HBD         1.2390   -7.3440   -5.4310 hc        1 JZD      0.115500
     75 HBDA        2.6460   -6.5640   -4.5940 hc        1 JZD      0.115500
     76 HBE        -7.8380  -11.6430   -4.5630 hc        1 JZD      0.117000
     77 HBEA       -6.5970  -12.9560   -4.4140 hc        1 JZD      0.117000
     78 HNBF       -3.8470   -3.5820    0.2380 hn        1 JZD      0.154000
     79 HNBG       -7.0880  -13.4330  -12.8430 hn        1 JZD      0.308000
     80 H37        -7.7310  -10.5460    1.1740 hc        1 JZD      0.076333
     81 H38        -5.5000  -11.7100   -2.5110 hc        1 JZD      0.081000
     82 NBG        -8.0130  -13.4720  -12.4300 n3        1 JZD     -0.194000
     83 CLAG       -6.8030  -15.0220   -7.9960 cl        1 JZD     -0.005000
     84 HBG2       -8.5140  -14.2240  -16.9870 ho        1 JZD      0.265000
     85 HBF2       -3.3020   -5.7470    0.2760 hc        1 JZD      0.171000
     86 NBF        -3.4540   -3.2530    1.0980 n2        1 JZD     -0.182000
     87 CLAH      -10.2670  -11.1820   -8.4520 cl        1 JZD      0.035000
@<TRIPOS>BOND
     1    1   32 1   
     2    2   33 1   
     3    2   84 1   
     4    3   32 1   
     5    4   33 1   
     6    5   36 1   
     7    6   37 1   
     8    7    9 1   
     9    7   11 1   
    10    7   46 1   
    11    7   50 1   
    12    8   10 1   
    13    8   12 1   
    14    8   51 1   
    15    9   13 1   
    16    9   52 1   
    17   10   14 1   
    18   10   49 1   
    19   10   53 1   
    20   11   40 1   
    21   12   41 1   
    22   12   47 1   
    23   13   42 1   
    24   13   48 1   
    25   14   43 1   
    26   15   34 1   
    27   15   36 1   
    28   16   34 1   
    29   16   37 1   
    30   16   42 1   
    31   17   35 1   
    32   17   38 1   
    33   18   35 1   
    34   18   39 1   
    35   18   57 1   
    36   19   21 1   
    37   19   22 1   
    38   19   62 1   
    39   20   58 1   
    40   20   59 1   
    41   20   61 1   
    42   20   64 1   
    43   21   60 1   
    44   21   65 1   
    45   21   80 1   
    46   22   63 1   
    47   22   67 1   
    48   23   25 1   
    49   23   68 1   
    50   23   69 1   
    51   23   81 1   
    52   24   26 1   
    53   24   66 1   
    54   24   70 1   
    55   24   71 1   
    56   25   27 1   
    57   25   72 1   
    58   25   73 1   
    59   26   28 1   
    60   26   74 1   
    61   26   75 1   
    62   27   29 1   
    63   27   76 1   
    64   27   77 1   
    65   28   30 1   
    66   29   31 1   
    67   30   44 1   
    68   31   45 1   
    69   33   43 1   
    70   34   54 1   
    71   34   85 1   
    72   35   82 1   
    73   36   44 1   
    74   37   44 1   
    75   37   55 1   
    76   38   45 1   
    77   38   56 1   
    78   38   83 1   
    79   39   45 1   
    80   39   87 1   
    81   40   42 1   
    82   40   86 1   
    83   41   43 1   
    84   41   82 1   
    85   78   86 1   
    86   79   82 1   
@<TRIPOS>SUBSTRUCTURE
     1 JZD         1 TEMP              0 ****  ****    0 ROOT
