@<TRIPOS>MOLECULE
JZD
   85    85     1     0     0
SMALL
bcc


@<TRIPOS>ATOM
      1 OAA         1.7740    3.6220    5.5820 o         1 JZD     -0.555500
      2 OAB        -9.4340  -19.8170  -17.0520 o         1 JZD     -0.553500
      3 OAC         3.9990    3.7960    5.4580 o         1 JZD     -0.555500
      4 OAD       -10.3160  -19.3290  -19.0370 o         1 JZD     -0.553500
      5 ClAE       -3.8470   -1.0630    3.2310 cl        1 JZD     -0.034000
      6 ClAF        0.7020   -3.3250    3.8890 cl        1 JZD     -0.181000
      7 CAI         3.2650   -0.7790    3.1970 c3        1 JZD     -0.090000
      8 CAJ       -14.0810  -17.0230  -16.4500 c2        1 JZD     -0.182000
      9 CAK         4.4050    0.1050    3.5530 c2        1 JZD     -0.210000
     10 CAL       -13.1680  -16.7180  -17.3840 c2        1 JZD     -0.124000
     11 CAM         1.9570   -0.2210    3.5650 c2        1 JZD      0.004000
     12 CAN       -12.1290  -17.0990  -15.1570 c1        1 JZD      0.015000
     13 CAO         4.2700    1.2970    4.1670 c2        1 JZD     -0.086000
     14 CAP       -12.2020  -17.6690  -17.9050 c2        1 JZD     -0.179000
     15 CAQ        -1.6110    0.1790    3.9820 c2        1 JZD     -0.324000
     16 CAR         0.6740   -0.6890    3.4260 c2        1 JZD     -0.185000
     17 CAS        -8.4080  -17.9690  -13.1710 c1        1 JZD     -0.016000
     18 CAT       -10.6150  -16.9030  -13.0130 c2        1 JZD     -0.245000
     19 CAU        -4.1650  -11.4400   -5.1850 c1        1 JZD     -0.053000
     20 CAV        -4.2710   -8.1550   -3.0280 c3        1 JZD     -0.220000
     21 CAW        -4.7690  -10.6250   -6.2210 c3        1 JZD     -0.248000
     22 CAX        -3.7360   -9.5490   -2.8850 c3        1 JZD     -0.220000
     23 CAY        -6.1690  -11.0850   -6.5850 c3        1 JZD     -0.139000
     24 CAZ        -2.1310   -4.6740   -0.9070 c3        1 JZD     -0.185000
     25 CBA        -6.8440  -10.1100   -7.5130 c3        1 JZD     -0.217000
     26 CBB        -2.0380   -4.7500    0.5960 c3        1 JZD     -0.241000
     27 CBC        -7.1910  -14.9440   -8.5260 c3        1 JZD     -0.298000
     28 CBD        -1.3170   -3.5480    1.1220 c1        1 JZD     -0.014000
     29 CBE        -7.4500  -15.5120   -9.8710 c1        1 JZD     -0.015000
     30 OBH        -1.9440   -3.0610    2.1850 os        1 JZD     -0.124000
     31 OBI        -8.7000  -15.9590   -9.9680 os        1 JZD     -0.125000
     32 CBJ         2.9150    3.1890    5.2470 c2        1 JZD      0.364000
     33 CBK       -10.2410  -19.1770  -17.7870 c2        1 JZD      0.362000
     34 CBL        -0.2470    0.3360    4.0030 c2        1 JZD      0.161000
     35 CBM        -9.6660  -17.5790  -13.7760 c2        1 JZD      0.012000
     36 CBN        -2.1430   -0.9800    3.3360 c2        1 JZD      0.057000
     37 CBO         0.1440   -1.9390    2.8730 c3        1 JZD      0.092000
     38 CBP        -8.0140  -17.3720  -11.8960 c3        1 JZD     -0.073000
     39 CBQ       -10.2630  -16.3350  -11.7450 c2        1 JZD     -0.005000
     40 CBR         1.8830    1.1010    4.2400 c2        1 JZD     -0.001000
     41 CBS       -11.0780  -17.7300  -15.7460 c2        1 JZD     -0.168000
     42 CBT         2.9840    1.8430    4.5430 c2        1 JZD     -0.078000
     43 CBU       -11.2010  -18.1710  -17.1560 c2        1 JZD     -0.088000
     44 CBV        -1.3400   -1.9470    2.8060 c2        1 JZD     -0.100000
     45 CBW        -9.0340  -16.5480  -11.1990 c2        1 JZD     -0.063000
     46 HAI         3.2830   -0.9820    2.0880 hc        1 JZD      0.111500
     47 HAJ       -14.2180  -18.0410  -16.0580 ha        1 JZD      0.116000
     48 HAK         5.1370    1.9330    4.4220 ha        1 JZD      0.164000
     49 HAL       -12.2890  -17.9620  -18.9660 ha        1 JZD      0.170000
     50 HAM         3.3940   -1.7760    3.7100 hc        1 JZD      0.111500
     51 HAN       -14.7660  -16.2700  -16.0400 ha        1 JZD      0.116000
     52 HAO         5.3960   -0.2850    3.2790 ha        1 JZD      0.114000
     53 HAP       -13.0970  -15.6970  -17.7990 ha        1 JZD      0.120000
     54 HAQ        -2.2930    0.9170    4.4180 ha        1 JZD      0.150000
     55 HAR         0.5790   -2.1780    1.8630 h1        1 JZD      0.149000
     56 HAS        -7.0980  -16.7270  -12.0860 h1        1 JZD      0.202000
     57 HAT       -11.6670  -16.7590  -13.3430 ha        1 JZD      0.191000
     58 HAU        -5.1980   -8.0240   -2.4200 hc        1 JZD      0.074500
     59 HAUA       -2.8120   -9.6850   -3.5000 hc        1 JZD      0.074500
     60 HAV        -4.5200   -7.9340   -4.0950 hc        1 JZD      0.074500
     61 HAVA       -4.8240   -9.5860   -5.7670 hc        1 JZD      0.110000
     62 HAW        -3.0620  -11.4340   -5.1690 ha        1 JZD      0.030000
     63 HAX        -4.4930  -10.3050   -3.2180 hc        1 JZD      0.074500
     64 HAXA       -3.5190   -7.4030   -2.6820 hc        1 JZD      0.074500
     65 HAY        -4.1530  -10.5310   -7.1590 hc        1 JZD      0.110000
     66 HAZ        -2.5640   -5.6210   -1.3120 hc        1 JZD      0.073000
     67 HAZA       -3.4770   -9.7650   -1.8200 hc        1 JZD      0.074500
     68 HBA        -6.1090  -12.0940   -7.0740 hc        1 JZD      0.091000
     69 HBAA       -6.7730  -11.2080   -5.6470 hc        1 JZD      0.091000
     70 HBB        -1.1200   -4.5210   -1.3550 hc        1 JZD      0.073000
     71 HBBA       -2.7860   -3.8250   -1.2170 hc        1 JZD      0.073000
     72 HBC        -7.8630  -10.4770   -7.7830 hc        1 JZD      0.073000
     73 HBCA       -6.3550  -15.5350   -8.0720 hc        1 JZD      0.102333
     74 HBD        -3.0600   -4.8950    1.0380 hc        1 JZD      0.095000
     75 HBDA       -1.4130   -5.6350    0.8990 hc        1 JZD      0.095000
     76 HBE        -6.8410  -13.8890   -8.6650 hc        1 JZD      0.102333
     77 HBEA       -8.0620  -14.9500   -7.8260 hc        1 JZD      0.102333
     78 HNBF        0.2350    2.2100    4.9600 hn        1 JZD      0.303000
     79 HNBG       -9.2220  -18.6120  -15.5120 hn        1 JZD      0.317000
     80 H37        -6.9470   -9.1090   -7.0290 hc        1 JZD      0.073000
     81 H38        -6.2550   -9.9850   -8.4540 hc        1 JZD      0.073000
     82 ClAH      -11.4450  -15.3750  -10.9820 cl        1 JZD     -0.012000
     83 NBG        -9.8570  -17.9410  -15.0860 n7        1 JZD     -0.167000
     84 NBF         0.5190    1.3850    4.4770 na        1 JZD     -0.230000
     85 ClAG       -7.4460  -18.6860  -10.8500 cl        1 JZD     -0.061000
@<TRIPOS>BOND
     1    1   32 1   
     2    2   33 1   
     3    3   32 1   
     4    4   33 1   
     5    5   36 1   
     6    6   37 1   
     7    7    9 1   
     8    7   11 1   
     9    7   46 1   
    10    7   50 1   
    11    8   10 1   
    12    8   47 1   
    13    8   51 1   
    14    9   13 1   
    15    9   52 1   
    16   10   14 1   
    17   10   53 1   
    18   11   16 1   
    19   11   40 1   
    20   12   41 1   
    21   13   42 1   
    22   13   48 1   
    23   14   43 1   
    24   14   49 1   
    25   15   34 1   
    26   15   36 1   
    27   15   54 1   
    28   16   34 1   
    29   16   37 1   
    30   17   35 1   
    31   17   38 1   
    32   18   35 1   
    33   18   39 1   
    34   18   57 1   
    35   19   21 1   
    36   19   62 1   
    37   20   22 1   
    38   20   58 1   
    39   20   60 1   
    40   20   64 1   
    41   21   23 1   
    42   21   61 1   
    43   21   65 1   
    44   22   59 1   
    45   22   63 1   
    46   22   67 1   
    47   23   25 1   
    48   23   68 1   
    49   23   69 1   
    50   24   26 1   
    51   24   66 1   
    52   24   70 1   
    53   24   71 1   
    54   25   72 1   
    55   25   80 1   
    56   25   81 1   
    57   26   28 1   
    58   26   74 1   
    59   26   75 1   
    60   27   29 1   
    61   27   73 1   
    62   27   76 1   
    63   27   77 1   
    64   28   30 1   
    65   29   31 1   
    66   30   44 1   
    67   31   45 1   
    68   32   42 1   
    69   33   43 1   
    70   34   84 1   
    71   35   83 1   
    72   36   44 1   
    73   37   44 1   
    74   37   55 1   
    75   38   45 1   
    76   38   56 1   
    77   38   85 1   
    78   39   45 1   
    79   39   82 1   
    80   40   42 1   
    81   40   84 1   
    82   41   43 1   
    83   41   83 1   
    84   78   84 1   
    85   79   83 1   
@<TRIPOS>SUBSTRUCTURE
     1 JZD         1 TEMP              0 ****  ****    0 ROOT
