@<TRIPOS>MOLECULE
JZD
   85    88     1     0     0
SMALL
bcc


@<TRIPOS>ATOM
      1 OAA       -13.7940   -2.4700    2.0460 o         1 JZD     -0.825800
      2 OAB        13.7960   -2.4220   -2.0850 o         1 JZD     -0.825800
      3 OAC       -14.6110   -3.9660    0.6160 o         1 JZD     -0.825800
      4 OAD        14.6160   -3.9380   -0.6760 o         1 JZD     -0.825800
      5 CLAE       -8.3090    1.0160    3.2300 cl        1 JZD     -0.105900
      6 CLAF       -8.6240    0.9400   -2.1720 cl        1 JZD     -0.105900
      7 CAI       -14.4750    0.0660   -2.3380 ca        1 JZD     -0.137000
      8 CAJ        14.4760    0.0520    2.3350 ca        1 JZD     -0.137000
      9 CAK       -15.2460   -1.0940   -2.3310 ca        1 JZD     -0.173000
     10 CAL        15.2490   -1.1060    2.3110 ca        1 JZD     -0.173000
     11 CAM       -13.5810    0.3210   -1.3050 ca        1 JZD     -0.179000
     12 CAN        13.5810    0.3200    1.3060 ca        1 JZD     -0.179000
     13 CAO       -15.1220   -1.9930   -1.2760 ca        1 JZD     -0.091000
     14 CAP        15.1250   -1.9910    1.2430 ca        1 JZD     -0.091000
     15 CAQ       -10.4770    0.2840    1.8740 ca        1 JZD     -0.202500
     16 CAR       -10.6200    0.2480   -0.5530 ca        1 JZD     -0.202500
     17 CAS        10.4760    0.3250   -1.8720 ca        1 JZD     -0.202500
     18 CAT        10.6200    0.2540    0.5550 ca        1 JZD     -0.202500
     19 CAU        -0.0010    1.4340    0.0110 c3        1 JZD     -0.079400
     20 CAV        -1.2510    0.5840    0.0850 c3        1 JZD     -0.079400
     21 CAW         1.2500    0.5860   -0.0750 c3        1 JZD     -0.079400
     22 CAX        -2.4910    1.4480    0.1660 c3        1 JZD     -0.078400
     23 CAY         2.4890    1.4540   -0.1440 c3        1 JZD     -0.078400
     24 CAZ        -3.7520    0.6130    0.2440 c3        1 JZD     -0.077400
     25 CBA         3.7510    0.6210   -0.2340 c3        1 JZD     -0.077400
     26 CBB        -4.9770    1.4960    0.3180 c3        1 JZD     -0.084400
     27 CBC         4.9760    1.5080   -0.2960 c3        1 JZD     -0.084400
     28 CBD        -6.2410    0.6600    0.4000 c3        1 JZD      0.127400
     29 CBE         6.2400    0.6740   -0.3910 c3        1 JZD      0.127400
     30 OBH        -7.3280    1.6010    0.4550 os        1 JZD     -0.328900
     31 OBI         7.3260    1.6180   -0.4320 os        1 JZD     -0.328900
     32 CBJ       -14.2020   -2.8060    0.8930 c         1 JZD      0.911200
     33 CBK        14.2050   -2.7740   -0.9370 c         1 JZD      0.911200
     34 CBL       -11.2510    0.0540    0.7010 ca        1 JZD      0.218600
     35 CBM        11.2510    0.0790   -0.7020 ca        1 JZD      0.218600
     36 CBN        -9.1720    0.7470    1.7830 ca        1 JZD      0.058900
     37 CBO        -9.3120    0.7160   -0.6260 ca        1 JZD      0.058900
     38 CBP         9.1710    0.7850   -1.7730 ca        1 JZD      0.058900
     39 CBQ         9.3120    0.7190    0.6350 ca        1 JZD      0.058900
     40 CBR       -13.4360   -0.5940   -0.2360 ca        1 JZD      0.140600
     41 CBS        13.4370   -0.5790    0.2240 ca        1 JZD      0.140600
     42 CBT       -14.2340   -1.7660   -0.2200 ca        1 JZD     -0.150600
     43 CBU        14.2370   -1.7500    0.1910 ca        1 JZD     -0.150600
     44 CBV        -8.5720    0.9950    0.5350 ca        1 JZD      0.020100
     45 CBW         8.5700    1.0140   -0.5210 ca        1 JZD      0.020100
     46 HAI       -14.5710    0.7890   -3.1610 ha        1 JZD      0.108000
     47 HAJ        14.5720    0.7630    3.1680 ha        1 JZD      0.108000
     48 HAK       -15.9470   -1.2960   -3.1510 ha        1 JZD      0.110000
     49 HAL        15.9510   -1.3200    3.1280 ha        1 JZD      0.110000
     50 HAM       -12.9950    1.2520   -1.3170 ha        1 JZD      0.125000
     51 HAN        12.9940    1.2510    1.3310 ha        1 JZD      0.125000
     52 HAO       -15.7140   -2.9240   -1.2520 ha        1 JZD      0.156000
     53 HAP        15.7190   -2.9210    1.2060 ha        1 JZD      0.156000
     54 HAQ       -10.9200    0.0900    2.8650 ha        1 JZD      0.161000
     55 HAR       -11.1620    0.0090   -1.4830 ha        1 JZD      0.161000
     56 HAS        10.9190    0.1460   -2.8650 ha        1 JZD      0.161000
     57 HAT        11.1630    0.0030    1.4800 ha        1 JZD      0.161000
     58 HAU        -0.0590    2.1080   -0.8850 hc        1 JZD      0.037700
     59 HAUA        0.0560    2.0950    0.9160 hc        1 JZD      0.037700
     60 HAV        -1.3110   -0.0790   -0.8190 hc        1 JZD      0.039700
     61 HAVA       -1.1990   -0.0870    0.9830 hc        1 JZD      0.039700
     62 HAW         1.3110   -0.0890    0.8190 hc        1 JZD      0.039700
     63 HAX        -2.4260    2.1120    1.0680 hc        1 JZD      0.038700
     64 HAXA       -2.5410    2.1170   -0.7340 hc        1 JZD      0.038700
     65 HAY         2.4240    2.1310   -1.0360 hc        1 JZD      0.038700
     66 HAZ        -3.8190   -0.0540   -0.6560 hc        1 JZD      0.040700
     67 HAZA       -3.7080   -0.0520    1.1460 hc        1 JZD      0.040700
     68 HBA         3.8200   -0.0580    0.6560 hc        1 JZD      0.040700
     69 HBAA        3.7080   -0.0300   -1.1460 hc        1 JZD      0.040700
     70 HBB        -4.9180    2.1650    1.2170 hc        1 JZD      0.052200
     71 HBBA       -5.0320    2.1590   -0.5840 hc        1 JZD      0.052200
     72 HBC         4.9150    2.1890   -1.1850 hc        1 JZD      0.052200
     73 HBCA        5.0290    2.1570    0.6160 hc        1 JZD      0.052200
     74 HBD        -6.3590    0.0080   -0.5040 h1        1 JZD      0.037700
     75 HBDA       -6.2520    0.0250    1.3240 h1        1 JZD      0.037700
     76 HBE         6.3600    0.0090    0.5040 h1        1 JZD      0.037700
     77 HBEA        6.2520    0.0530   -1.3230 h1        1 JZD      0.037700
     78 HNBF      -12.8120   -0.8090    1.6930 hn        1 JZD      0.490800
     79 HNBG       12.8130   -0.7680   -1.7070 hn        1 JZD      0.490800
     80 H37         1.1990   -0.0710   -0.9830 hc        1 JZD      0.039700
     81 H38         2.5380    2.1090    0.7650 hc        1 JZD      0.038700
     82 CLAH        8.6250    0.9200    2.1840 cl        1 JZD     -0.105900
     83 NBG        12.5850   -0.2610   -0.8560 nh        1 JZD     -0.617000
     84 NBF       -12.5840   -0.2900    0.8490 nh        1 JZD     -0.617000
     85 CLAG        8.3060    1.0730   -3.2160 cl        1 JZD     -0.105900
@<TRIPOS>BOND
     1    1   32 1   
     2    2   33 1   
     3    3   32 1   
     4    4   33 1   
     5    5   36 1   
     6    6   37 1   
     7    7    9 ar  
     8    7   11 ar  
     9    7   46 1   
    10    8   10 ar  
    11    8   12 ar  
    12    8   47 1   
    13    9   13 ar  
    14    9   48 1   
    15   10   14 ar  
    16   10   49 1   
    17   11   40 ar  
    18   11   50 1   
    19   12   41 ar  
    20   12   51 1   
    21   13   42 ar  
    22   13   52 1   
    23   14   43 ar  
    24   14   53 1   
    25   15   34 ar  
    26   15   36 ar  
    27   15   54 1   
    28   16   34 ar  
    29   16   37 ar  
    30   16   55 1   
    31   17   35 ar  
    32   17   38 ar  
    33   17   56 1   
    34   18   35 ar  
    35   18   39 ar  
    36   18   57 1   
    37   19   20 1   
    38   19   21 1   
    39   19   58 1   
    40   19   59 1   
    41   20   22 1   
    42   20   60 1   
    43   20   61 1   
    44   21   23 1   
    45   21   62 1   
    46   21   80 1   
    47   22   24 1   
    48   22   63 1   
    49   22   64 1   
    50   23   25 1   
    51   23   65 1   
    52   23   81 1   
    53   24   26 1   
    54   24   66 1   
    55   24   67 1   
    56   25   27 1   
    57   25   68 1   
    58   25   69 1   
    59   26   28 1   
    60   26   70 1   
    61   26   71 1   
    62   27   29 1   
    63   27   72 1   
    64   27   73 1   
    65   28   30 1   
    66   28   74 1   
    67   28   75 1   
    68   29   31 1   
    69   29   76 1   
    70   29   77 1   
    71   30   44 1   
    72   31   45 1   
    73   32   42 1   
    74   33   43 1   
    75   34   84 1   
    76   35   83 1   
    77   36   44 ar  
    78   37   44 ar  
    79   38   45 ar  
    80   38   85 1   
    81   39   45 ar  
    82   39   82 1   
    83   40   42 ar  
    84   40   84 1   
    85   41   43 ar  
    86   41   83 1   
    87   78   84 1   
    88   79   83 1   
@<TRIPOS>SUBSTRUCTURE
     1 JZD         1 TEMP              0 ****  ****    0 ROOT
