@<TRIPOS>MOLECULE
JZE
   73    76     1     0     0
SMALL
bcc


@<TRIPOS>ATOM
      1 C1         -0.4820   -2.3530    1.8960 c         1 JZE      0.912200
      2 N1          1.1030   -0.0450    2.9520 nu        1 JZE     -0.619000
      3 O1          0.7590   -2.6060    1.9630 o         1 JZE     -0.826300
      4 Cl1         5.5900    1.9350    1.6920 cl        1 JZE     -0.104900
      5 C2         -1.0540   -1.1950    2.7050 ca        1 JZE     -0.152600
      6 N2         10.2750   13.9390   -8.4640 nu        1 JZE     -0.619000
      7 O2         -1.2880   -3.0320    1.2040 o         1 JZE     -0.826300
      8 Cl2         1.0610    4.8950    1.5700 cl        1 JZE     -0.104900
      9 C3         -2.4180   -1.2460    3.0070 ca        1 JZE     -0.090000
     10 O3          4.0380    4.4980    1.5090 os        1 JZE     -0.328900
     11 Cl3         6.6390   13.1820   -5.0210 cl        1 JZE     -0.104900
     12 C4         -3.0370   -0.2540    3.7610 ca        1 JZE     -0.175000
     13 O4          8.5360   11.1150   -3.9540 os        1 JZE     -0.328900
     14 Cl4        11.0460   10.0470   -5.2130 cl        1 JZE     -0.104900
     15 C5         -2.2830    0.8170    4.2360 ca        1 JZE     -0.136000
     16 O5         10.3490   13.5970  -12.6560 o         1 JZE     -0.826300
     17 C6         -0.9250    0.8990    3.9510 ca        1 JZE     -0.181000
     18 O6          9.2580   14.5440  -10.9640 o         1 JZE     -0.826300
     19 C7         -0.2900   -0.0950    3.1710 ca        1 JZE      0.144600
     20 C8          1.7660    1.0700    2.4670 ca        1 JZE      0.217600
     21 C9          3.1730    0.9860    2.2660 ca        1 JZE     -0.202500
     22 C10         3.9050    2.1070    1.9000 ca        1 JZE      0.057900
     23 C11         1.1370    2.3130    2.2080 ca        1 JZE     -0.202500
     24 C12         1.8870    3.4280    1.8470 ca        1 JZE      0.057900
     25 C13         3.2830    3.3540    1.7090 ca        1 JZE      0.023100
     26 C14         4.2640    4.7980    0.1190 c3        1 JZE      0.127400
     27 C15         5.1060    6.0610    0.1050 c3        1 JZE     -0.084400
     28 C16         5.4010    6.4990   -1.3120 c3        1 JZE     -0.077400
     29 C17         6.2500    7.7530   -1.3180 c3        1 JZE     -0.077400
     30 C18         6.5520    8.2210   -2.7260 c3        1 JZE     -0.077400
     31 C19         7.4090    9.4680   -2.7030 c3        1 JZE     -0.084400
     32 C20         7.7070    9.9480   -4.1110 c3        1 JZE      0.127400
     33 C21         8.9000   11.6970   -5.1580 ca        1 JZE      0.023100
     34 C22         8.1360   12.7410   -5.7110 ca        1 JZE      0.057900
     35 C23         8.5770   13.4430   -6.8250 ca        1 JZE     -0.202500
     36 C24        10.1010   11.3440   -5.7950 ca        1 JZE      0.057900
     37 C25        10.5560   12.0330   -6.9140 ca        1 JZE     -0.202500
     38 C26         9.8240   13.1290   -7.4360 ca        1 JZE      0.217600
     39 C27        11.4810   13.7200   -9.1640 ca        1 JZE      0.144600
     40 C28        12.6950   13.5590   -8.4570 ca        1 JZE     -0.181000
     41 C29        13.8990   13.4190   -9.1390 ca        1 JZE     -0.136000
     42 C30        13.9240   13.4430  -10.5310 ca        1 JZE     -0.175000
     43 C31        12.7360   13.6180  -11.2360 ca        1 JZE     -0.090000
     44 C32        11.5100   13.7640  -10.5810 ca        1 JZE     -0.152600
     45 C33        10.2810   13.9780  -11.4560 c         1 JZE      0.912200
     46 HN1         1.5010   -0.9430    2.6910 hn        1 JZE      0.491800
     47 HN2         9.5530   14.3720   -9.0340 hn        1 JZE      0.491800
     48 H3         -2.9960   -2.0990    2.6110 ha        1 JZE      0.155000
     49 H4         -4.1110   -0.3140    3.9810 ha        1 JZE      0.109000
     50 H5         -2.7580    1.6020    4.8420 ha        1 JZE      0.108000
     51 H6         -0.3410    1.7410    4.3530 ha        1 JZE      0.125000
     52 H9          3.6850    0.0190    2.4010 ha        1 JZE      0.160500
     53 H11         0.0400    2.3980    2.2760 ha        1 JZE      0.160500
     54 H14         3.2790    4.9570   -0.3910 h1        1 JZE      0.037700
     55 H14A        4.8030    3.9410   -0.3630 h1        1 JZE      0.037700
     56 H15         4.5620    6.8720    0.6550 hc        1 JZE      0.052200
     57 H15A        6.0630    5.8710    0.6580 hc        1 JZE      0.052200
     58 H16         4.4400    6.6910   -1.8570 hc        1 JZE      0.040700
     59 H16A        5.9350    5.6790   -1.8600 hc        1 JZE      0.040700
     60 H17         5.7170    8.5680   -0.7600 hc        1 JZE      0.039700
     61 H17A        7.2120    7.5560   -0.7750 hc        1 JZE      0.039700
     62 H18         5.5930    8.4310   -3.2690 hc        1 JZE      0.040700
     63 H18A        7.0810    7.4080   -3.2900 hc        1 JZE      0.040700
     64 H19         8.3750    9.2620   -2.1710 hc        1 JZE      0.052200
     65 H19A        6.8880   10.2840   -2.1370 hc        1 JZE      0.052200
     66 H20         8.2640    9.1740   -4.6990 h1        1 JZE      0.037700
     67 H20A        6.7680   10.2300   -4.6550 h1        1 JZE      0.037700
     68 H23         7.9550   14.2520   -7.2420 ha        1 JZE      0.160500
     69 H25        11.4860   11.7100   -7.4080 ha        1 JZE      0.160500
     70 H28        12.6980   13.5600   -7.3570 ha        1 JZE      0.125000
     71 H29        14.8310   13.2920   -8.5710 ha        1 JZE      0.108000
     72 H30        14.8740   13.3240  -11.0690 ha        1 JZE      0.109000
     73 H31        12.7290   13.6300  -12.3390 ha        1 JZE      0.155000
@<TRIPOS>BOND
     1    1    3 1   
     2    1    5 1   
     3    1    7 1   
     4    2   19 1   
     5    2   20 1   
     6    2   46 1   
     7    4   22 1   
     8    5    9 ar  
     9    5   19 ar  
    10    6   38 1   
    11    6   39 1   
    12    6   47 1   
    13    8   24 1   
    14    9   12 ar  
    15    9   48 1   
    16   10   25 1   
    17   10   26 1   
    18   11   34 1   
    19   12   15 ar  
    20   12   49 1   
    21   13   32 1   
    22   13   33 1   
    23   14   36 1   
    24   15   17 ar  
    25   15   50 1   
    26   16   45 1   
    27   17   19 ar  
    28   17   51 1   
    29   18   45 1   
    30   20   21 ar  
    31   20   23 ar  
    32   21   22 ar  
    33   21   52 1   
    34   22   25 ar  
    35   23   24 ar  
    36   23   53 1   
    37   24   25 ar  
    38   26   27 1   
    39   26   54 1   
    40   26   55 1   
    41   27   28 1   
    42   27   56 1   
    43   27   57 1   
    44   28   29 1   
    45   28   58 1   
    46   28   59 1   
    47   29   30 1   
    48   29   60 1   
    49   29   61 1   
    50   30   31 1   
    51   30   62 1   
    52   30   63 1   
    53   31   32 1   
    54   31   64 1   
    55   31   65 1   
    56   32   66 1   
    57   32   67 1   
    58   33   34 ar  
    59   33   36 ar  
    60   34   35 ar  
    61   35   38 ar  
    62   35   68 1   
    63   36   37 ar  
    64   37   38 ar  
    65   37   69 1   
    66   39   40 ar  
    67   39   44 ar  
    68   40   41 ar  
    69   40   70 1   
    70   41   42 ar  
    71   41   71 1   
    72   42   43 ar  
    73   42   72 1   
    74   43   44 ar  
    75   43   73 1   
    76   44   45 1   
@<TRIPOS>SUBSTRUCTURE
     1 JZE         1 TEMP              0 ****  ****    0 ROOT
