@<TRIPOS>MOLECULE
JZE
   73    69     1     0     0
SMALL
bcc


@<TRIPOS>ATOM
      1 C1         -0.7470   -9.7330    3.3970 c1        1 JZE      0.360000
      2 N1         -3.1650   -7.9630    4.2120 n3        1 JZE     -0.229000
      3 O1         -1.1450  -10.6590    2.6240 o         1 JZE     -0.568000
      4 CL1         0.1250   -4.1010    3.5100 cl        1 JZE     -0.016000
      5 C2         -1.3830   -9.5640    4.7690 c1        1 JZE     -0.134000
      6 N2          2.2720    7.5640   -6.1460 n3        1 JZE     -0.229000
      7 O2          0.2120   -9.0010    3.0570 o         1 JZE     -0.568000
      8 CL2        -5.0360   -3.2360    4.7870 cl        1 JZE     -0.030000
      9 C3         -0.7380  -10.3870    5.6850 c2        1 JZE     -0.093000
     10 O3         -2.2130   -2.4250    4.0260 os        1 JZE     -0.215000
     11 CL3         3.4570    5.6280   -1.5170 cl        1 JZE     -0.016000
     12 C4         -1.1880  -10.4470    7.0090 c1        1 JZE     -0.173000
     13 O4          0.4770    5.4690   -1.2230 os        1 JZE     -0.217000
     14 CL4        -1.7490    6.3340   -3.0420 cl        1 JZE     -0.030000
     15 C5         -2.2720   -9.6890    7.4070 c1        1 JZE     -0.142000
     16 O5          5.3290    9.3560   -6.5890 o         1 JZE     -0.567500
     17 C6         -2.9220   -8.8590    6.4860 c1        1 JZE     -0.142000
     18 O6          5.3000    7.9110   -4.9310 o         1 JZE     -0.567500
     19 C7         -2.4760   -8.7990    5.1680 c1        1 JZE      0.040000
     20 C8         -2.9380   -6.5800    4.1990 c2        1 JZE      0.064000
     21 C9         -1.6750   -6.0870    3.8880 c2        1 JZE     -0.142000
     22 C10        -1.4650   -4.7140    3.8020 c2        1 JZE     -0.057000
     23 C11        -3.9920   -5.7010    4.4230 c1        1 JZE     -0.137000
     24 C12        -3.7810   -4.3250    4.3370 c1        1 JZE     -0.064000
     25 C13        -2.5200   -3.8340    4.0260 c2        1 JZE      0.024000
     26 C14        -2.1440   -1.8470    2.7240 c3        1 JZE     -0.021000
     27 C15        -1.6900   -0.3660    2.8390 c3        1 JZE     -0.163000
     28 C16        -1.4040    0.1970    1.4330 c3        1 JZE     -0.156000
     29 C17        -0.8940    1.6320    1.5550 c3        1 JZE     -0.156000
     30 C18        -0.2830    2.0780    0.2120 c3        1 JZE     -0.156000
     31 C19        -0.0020    3.5870    0.2490 c3        1 JZE     -0.163000
     32 C20         0.5530    4.0420   -1.1250 c3        1 JZE     -0.021000
     33 C21         0.9060    5.9800   -2.4670 c2        1 JZE      0.025000
     34 C22         2.2680    6.0840   -2.7440 c2        1 JZE     -0.057000
     35 C23         2.6950    6.5340   -4.0020 c1        1 JZE     -0.141000
     36 C24        -0.0300    6.3250   -3.4400 c2        1 JZE     -0.065000
     37 C25         0.3920    6.7690   -4.6810 c2        1 JZE     -0.136000
     38 C26         1.7700    6.8730   -4.9610 c1        1 JZE      0.063000
     39 C27         3.1190    6.8670   -7.0730 c2        1 JZE      0.039000
     40 C28         2.5840    5.9150   -7.9090 c2        1 JZE     -0.162000
     41 C29         3.3950    5.2120   -8.7500 c1        1 JZE     -0.142000
     42 C30         4.7570    5.4560   -8.7630 c1        1 JZE     -0.142000
     43 C31         5.2890    6.4010   -7.9330 c1        1 JZE     -0.142000
     44 C32         4.4690    7.1100   -7.0840 c1        1 JZE     -0.134000
     45 C33         5.0720    8.1870   -6.1420 c2        1 JZE      0.360000
     46 HN1        -3.7700   -8.3220    3.6580 hn        1 JZE      0.234000
     47 HN2         1.9460    8.3780   -6.3620 hn        1 JZE      0.233000
     48 H3          0.0360  -10.9290    5.4020 ha        1 JZE      0.153000
     49 H4         -0.7360  -11.0240    7.6500 ha        1 JZE      0.107000
     50 H5         -2.5850   -9.7310    8.3310 ha        1 JZE      0.120500
     51 H6         -3.6520   -8.2720    6.7840 ha        1 JZE      0.120500
     52 H9         -0.9430   -6.7040    3.7050 ha        1 JZE      0.209000
     53 H11        -4.9080   -6.0540    4.5700 ha        1 JZE      0.152000
     54 H14        -3.0200   -1.8870    2.3060 h1        1 JZE      0.077000
     55 H14A       -1.5060   -2.3400    2.1840 h1        1 JZE      0.077000
     56 H15        -2.3900    0.1560    3.2590 hc        1 JZE      0.093500
     57 H15A       -0.8850   -0.3170    3.3750 hc        1 JZE      0.093500
     58 H16        -0.7130   -0.3660    0.9830 hc        1 JZE      0.079500
     59 H16A       -2.2380    0.1880    0.8980 hc        1 JZE      0.079500
     60 H17        -1.6460    2.2300    1.7910 hc        1 JZE      0.080000
     61 H17A       -0.1970    1.6780    2.2690 hc        1 JZE      0.080000
     62 H18        -0.9140    1.8800   -0.5160 hc        1 JZE      0.079500
     63 H18A        0.5590    1.5920    0.0580 hc        1 JZE      0.079500
     64 H19         0.6610    3.7820    0.9520 hc        1 JZE      0.092500
     65 H19A       -0.8400    4.0740    0.4420 hc        1 JZE      0.092500
     66 H20         0.0120    3.6290   -1.8550 h1        1 JZE      0.078500
     67 H20A        1.5040    3.7520   -1.2120 h1        1 JZE      0.078500
     68 H23         3.6520    6.6710   -4.1740 ha        1 JZE      0.209000
     69 H25        -0.2780    7.0940   -5.3490 ha        1 JZE      0.152000
     70 H28         1.6140    5.7160   -7.8770 ha        1 JZE      0.117000
     71 H29         3.0140    4.4960   -9.3240 ha        1 JZE      0.106000
     72 H30         5.3540    4.9350   -9.3770 ha        1 JZE      0.120500
     73 H31         6.2800    6.5030   -7.8680 ha        1 JZE      0.120500
@<TRIPOS>BOND
     1    1    3 1   
     2    1    7 1   
     3    2   19 1   
     4    2   20 1   
     5    2   46 1   
     6    4   22 1   
     7    5    9 1   
     8    5   19 1   
     9    6   38 1   
    10    6   39 1   
    11    6   47 1   
    12    8   24 1   
    13    9   12 1   
    14    9   48 1   
    15   10   25 1   
    16   10   26 1   
    17   11   34 1   
    18   12   49 1   
    19   13   32 1   
    20   13   33 1   
    21   14   36 1   
    22   15   17 1   
    23   15   50 1   
    24   16   45 1   
    25   17   51 1   
    26   18   45 1   
    27   20   21 1   
    28   20   23 1   
    29   21   22 1   
    30   21   52 1   
    31   22   25 1   
    32   23   53 1   
    33   24   25 1   
    34   26   27 1   
    35   26   54 1   
    36   26   55 1   
    37   27   28 1   
    38   27   56 1   
    39   27   57 1   
    40   28   29 1   
    41   28   58 1   
    42   28   59 1   
    43   29   30 1   
    44   29   60 1   
    45   29   61 1   
    46   30   31 1   
    47   30   62 1   
    48   30   63 1   
    49   31   32 1   
    50   31   64 1   
    51   31   65 1   
    52   32   66 1   
    53   32   67 1   
    54   33   34 1   
    55   33   36 1   
    56   34   35 1   
    57   35   68 1   
    58   36   37 1   
    59   37   38 1   
    60   37   69 1   
    61   39   40 1   
    62   39   44 1   
    63   40   41 1   
    64   40   70 1   
    65   41   71 1   
    66   42   43 1   
    67   42   72 1   
    68   43   73 1   
    69   44   45 1   
@<TRIPOS>SUBSTRUCTURE
     1 JZE         1 TEMP              0 ****  ****    0 ROOT
