@<TRIPOS>MOLECULE
JZE
   75    78     1     0     0
SMALL
bcc


@<TRIPOS>ATOM
      1 C1         -1.3400    0.4690    0.9630 c         1 JZE      0.647700
      2 N1          1.1130   -0.2590    2.4020 nh        1 JZE     -0.612000
      3 O1         -0.8150   -0.3930    0.0480 oh        1 JZE     -0.566100
      4 CL1         5.6790    1.8180    1.5510 cl        1 JZE     -0.063400
      5 C2         -1.3190    0.1320    2.4040 ca        1 JZE     -0.166600
      6 N2          9.9110   13.6380   -8.8280 nh        1 JZE     -0.612000
      7 O2         -1.8520    1.4720    0.4620 o         1 JZE     -0.490000
      8 CL2         1.1750    4.8140    1.6480 cl        1 JZE     -0.063400
      9 C3         -2.5400    0.1570    3.0870 ca        1 JZE     -0.072000
     10 O3          4.1380    4.3890    1.4710 os        1 JZE     -0.327900
     11 CL3         6.4510   13.1620   -5.1280 cl        1 JZE     -0.063400
     12 C4         -2.6040   -0.1660    4.4390 ca        1 JZE     -0.137000
     13 O4          8.3980   11.1810   -4.0030 os        1 JZE     -0.327900
     14 CL4        10.9730   10.1920   -5.1810 cl        1 JZE     -0.063400
     15 C5         -1.4370   -0.5050    5.1250 ca        1 JZE     -0.091000
     16 O5         11.7540   10.2830   -9.7760 o         1 JZE     -0.490000
     17 C6         -0.2120   -0.5100    4.4670 ca        1 JZE     -0.162000
     18 O6         10.1560   11.3350  -10.8070 oh        1 JZE     -0.566100
     19 C7         -0.1290   -0.1880    3.0950 ca        1 JZE      0.124600
     20 C8          1.8520    0.9340    2.1980 ca        1 JZE      0.130600
     21 C9          3.2530    0.8480    2.0370 ca        1 JZE     -0.160500
     22 C10         4.0000    1.9880    1.7460 ca        1 JZE      0.039900
     23 C11         1.2270    2.1900    2.0710 ca        1 JZE     -0.160500
     24 C12         1.9820    3.3280    1.7880 ca        1 JZE      0.039900
     25 C13         3.3780    3.2430    1.6280 ca        1 JZE      0.082100
     26 C14         4.3300    4.7550    0.0890 c3        1 JZE      0.129400
     27 C15         5.1610    6.0240    0.1120 c3        1 JZE     -0.084400
     28 C16         5.4310    6.4970   -1.3000 c3        1 JZE     -0.078400
     29 C17         6.2560    7.7670   -1.2970 c3        1 JZE     -0.077400
     30 C18         6.5320    8.2410   -2.7080 c3        1 JZE     -0.078400
     31 C19         7.3530    9.5120   -2.7010 c3        1 JZE     -0.084400
     32 C20         7.6230    9.9700   -4.1220 c3        1 JZE      0.129400
     33 C21         8.7440   11.7260   -5.2260 ca        1 JZE      0.082100
     34 C22         7.9390   12.7160   -5.8160 ca        1 JZE      0.039900
     35 C23         8.3470   13.3660   -6.9800 ca        1 JZE     -0.160500
     36 C24         9.9630   11.3850   -5.8420 ca        1 JZE      0.039900
     37 C25        10.3740   12.0250   -7.0110 ca        1 JZE     -0.160500
     38 C26         9.5700   13.0230   -7.5970 ca        1 JZE      0.130600
     39 C27        11.2850   13.7590   -9.1800 ca        1 JZE      0.124600
     40 C28        11.9810   14.9690   -8.9720 ca        1 JZE     -0.162000
     41 C29        13.3050   15.1050   -9.3780 ca        1 JZE     -0.091000
     42 C30        13.9700   14.0400   -9.9840 ca        1 JZE     -0.137000
     43 C31        13.2990   12.8390  -10.1940 ca        1 JZE     -0.072000
     44 C32        11.9600   12.6920   -9.8160 ca        1 JZE     -0.166600
     45 C33        11.3140   11.3900  -10.0920 c         1 JZE      0.647700
     46 HN1        -0.3790   -1.1330    0.4930 ho        1 JZE      0.439000
     47 HN2         9.8250   12.2270  -10.9820 ho        1 JZE      0.439000
     48 H3         -3.4530    0.4410    2.5380 ha        1 JZE      0.158000
     49 H4         -3.5700   -0.1490    4.9650 ha        1 JZE      0.146000
     50 H5         -1.4820   -0.7610    6.1950 ha        1 JZE      0.143000
     51 H6          0.7010   -0.7670    5.0290 ha        1 JZE      0.142000
     52 H9          3.7670   -0.1220    2.1310 ha        1 JZE      0.159500
     53 H11         0.1320    2.2810    2.1790 ha        1 JZE      0.159500
     54 H14         3.3310    4.9270   -0.3890 h1        1 JZE      0.042200
     55 H14A        4.8650    3.9240   -0.4400 h1        1 JZE      0.042200
     56 H15         4.6150    6.8160    0.6890 hc        1 JZE      0.058200
     57 H15A        6.1260    5.8280    0.6480 hc        1 JZE      0.058200
     58 H16         5.9730    5.6970   -1.8690 hc        1 JZE      0.042200
     59 H16A        4.4590    6.6810   -1.8290 hc        1 JZE      0.042200
     60 H17         5.7130    8.5680   -0.7300 hc        1 JZE      0.044700
     61 H17A        7.2260    7.5840   -0.7650 hc        1 JZE      0.044700
     62 H18         5.5610    8.4210   -3.2410 hc        1 JZE      0.042200
     63 H18A        7.0780    7.4410   -3.2740 hc        1 JZE      0.042200
     64 H19         8.3280    9.3420   -2.1740 hc        1 JZE      0.058200
     65 H19A        6.8120   10.3220   -2.1460 hc        1 JZE      0.058200
     66 H20         6.6710   10.1960   -4.6680 h1        1 JZE      0.042200
     67 H20A        8.2150    9.2080   -4.6930 h1        1 JZE      0.042200
     68 H23         7.6990   14.1420   -7.4170 ha        1 JZE      0.159500
     69 H25        11.3280   11.7290   -7.4820 ha        1 JZE      0.159500
     70 H28        11.4780   15.8170   -8.4820 ha        1 JZE      0.142000
     71 H29        13.8310   16.0580   -9.2090 ha        1 JZE      0.143000
     72 H30        15.0210   14.1450  -10.2920 ha        1 JZE      0.146000
     73 H31        13.8180   11.9840  -10.6600 ha        1 JZE      0.158000
     74 H12         1.6930   -0.9900    2.7750 hn        1 JZE      0.403800
     75 H22         9.4300   14.5120   -8.9460 hn        1 JZE      0.403800
@<TRIPOS>BOND
     1    1    3 1   
     2    1    5 1   
     3    1    7 2   
     4    2   19 1   
     5    2   20 1   
     6    2   74 1   
     7    3   46 1   
     8    4   22 1   
     9    5    9 ar  
    10    5   19 ar  
    11    6   38 1   
    12    6   39 1   
    13    6   75 1   
    14    8   24 1   
    15    9   12 ar  
    16    9   48 1   
    17   10   25 1   
    18   10   26 1   
    19   11   34 1   
    20   12   15 ar  
    21   12   49 1   
    22   13   32 1   
    23   13   33 1   
    24   14   36 1   
    25   15   17 ar  
    26   15   50 1   
    27   16   45 2   
    28   17   19 ar  
    29   17   51 1   
    30   18   45 1   
    31   18   47 1   
    32   20   21 ar  
    33   20   23 ar  
    34   21   22 ar  
    35   21   52 1   
    36   22   25 ar  
    37   23   24 ar  
    38   23   53 1   
    39   24   25 ar  
    40   26   27 1   
    41   26   54 1   
    42   26   55 1   
    43   27   28 1   
    44   27   56 1   
    45   27   57 1   
    46   28   29 1   
    47   28   58 1   
    48   28   59 1   
    49   29   30 1   
    50   29   60 1   
    51   29   61 1   
    52   30   31 1   
    53   30   62 1   
    54   30   63 1   
    55   31   32 1   
    56   31   64 1   
    57   31   65 1   
    58   32   66 1   
    59   32   67 1   
    60   33   34 ar  
    61   33   36 ar  
    62   34   35 ar  
    63   35   38 ar  
    64   35   68 1   
    65   36   37 ar  
    66   37   38 ar  
    67   37   69 1   
    68   39   40 ar  
    69   39   44 ar  
    70   40   41 ar  
    71   40   70 1   
    72   41   42 ar  
    73   41   71 1   
    74   42   43 ar  
    75   42   72 1   
    76   43   44 ar  
    77   43   73 1   
    78   44   45 1   
@<TRIPOS>SUBSTRUCTURE
     1 JZE         1 TEMP              0 ****  ****    0 ROOT
