@<TRIPOS>MOLECULE
JZE
   73    76     1     0     0
SMALL
bcc


@<TRIPOS>ATOM
      1 C1        -11.7930   -2.7230    0.9870 c         1 JZE      0.912200
      2 N1        -10.0790   -0.2710    0.9300 nh        1 JZE     -0.619000
      3 O1        -11.3350   -2.4230    2.1310 o         1 JZE     -0.826300
      4 CL1        -5.7380    0.9720    3.2220 cl        1 JZE     -0.104900
      5 C2        -11.8140   -1.6660   -0.1110 ca        1 JZE     -0.152600
      6 N2         10.0830   -0.2250   -0.9470 nh        1 JZE     -0.619000
      7 O2        -12.2630   -3.8590    0.7080 o         1 JZE     -0.826300
      8 CL2        -6.1830    0.9610   -2.1710 cl        1 JZE     -0.104900
      9 C3        -12.7370   -1.8440   -1.1450 ca        1 JZE     -0.090000
     10 O3         -4.8260    1.5990    0.4310 os        1 JZE     -0.328900
     11 CL3         5.7420    1.1210   -3.1790 cl        1 JZE     -0.104900
     12 C4        -12.8570   -0.9250   -2.1840 ca        1 JZE     -0.175000
     13 O4          4.8290    1.6180   -0.3630 os        1 JZE     -0.328900
     14 CL4         6.1860    0.8600    2.2080 cl        1 JZE     -0.104900
     15 C5        -12.0440    0.2060   -2.1960 ca        1 JZE     -0.136000
     16 O5         12.2680   -3.8190   -0.8910 o         1 JZE     -0.826300
     17 C6        -11.1130    0.4110   -1.1850 ca        1 JZE     -0.181000
     18 O6         11.3390   -2.3190   -2.2460 o         1 JZE     -0.826300
     19 C7        -10.9720   -0.5250   -0.1340 ca        1 JZE      0.144600
     20 C8         -8.7470    0.0630    0.7530 ca        1 JZE      0.217600
     21 C9         -7.9430    0.2720    1.9100 ca        1 JZE     -0.202500
     22 C10        -6.6370    0.7280    1.7920 ca        1 JZE      0.057900
     23 C11        -8.1440    0.2640   -0.5130 ca        1 JZE     -0.202500
     24 C12        -6.8350    0.7250   -0.6120 ca        1 JZE      0.057900
     25 C13        -6.0660    0.9890    0.5330 ca        1 JZE      0.023100
     26 C14        -3.7350    0.6640    0.3380 c3        1 JZE      0.127400
     27 C15        -2.4790    1.5110    0.2410 c3        1 JZE     -0.084400
     28 C16        -1.2480    0.6410    0.1210 c3        1 JZE     -0.077400
     29 C17         0.0020    1.4920    0.0320 c3        1 JZE     -0.077400
     30 C18         1.2510    0.6460   -0.0970 c3        1 JZE     -0.077400
     31 C19         2.4830    1.5210   -0.1760 c3        1 JZE     -0.084400
     32 C20         3.7390    0.6800   -0.3130 c3        1 JZE      0.127400
     33 C21         6.0690    1.0140   -0.4930 ca        1 JZE      0.023100
     34 C22         6.6410    0.8110   -1.7620 ca        1 JZE      0.057900
     35 C23         7.9470    0.3620   -1.9010 ca        1 JZE     -0.202500
     36 C24         6.8380    0.6970    0.6400 ca        1 JZE      0.057900
     37 C25         8.1470    0.2420    0.5200 ca        1 JZE     -0.202500
     38 C26         8.7510    0.1000   -0.7540 ca        1 JZE      0.217600
     39 C27        10.9750   -0.5280    0.1040 ca        1 JZE      0.144600
     40 C28        11.1160    0.3580    1.1980 ca        1 JZE     -0.181000
     41 C29        12.0470    0.1060    2.1990 ca        1 JZE     -0.136000
     42 C30        12.8600   -1.0230    2.1340 ca        1 JZE     -0.175000
     43 C31        12.7410   -1.8930    1.0530 ca        1 JZE     -0.090000
     44 C32        11.8170   -1.6670    0.0290 ca        1 JZE     -0.152600
     45 C33        11.7970   -2.6710   -1.1170 c         1 JZE      0.912200
     46 HN1       -10.2930   -0.8020    1.7700 hn        1 JZE      0.491800
     47 HN2        10.2970   -0.7170   -1.8100 hn        1 JZE      0.491800
     48 H3        -13.3640   -2.7520   -1.1180 ha        1 JZE      0.155000
     49 H4        -13.5870   -1.0900   -2.9870 ha        1 JZE      0.109000
     50 H5        -12.1360    0.9440   -3.0050 ha        1 JZE      0.108000
     51 H6        -10.4940    1.3210   -1.2000 ha        1 JZE      0.125000
     52 H9         -8.3630    0.0690    2.9080 ha        1 JZE      0.160500
     53 H11        -8.7080    0.0370   -1.4320 ha        1 JZE      0.160500
     54 H14        -3.7220    0.0150    1.2520 h1        1 JZE      0.037700
     55 H14A       -3.8700    0.0260   -0.5740 h1        1 JZE      0.037700
     56 H15        -2.5610    2.1900   -0.6480 hc        1 JZE      0.052200
     57 H15A       -2.4040    2.1640    1.1490 hc        1 JZE      0.052200
     58 H16        -1.1770   -0.0420    1.0080 hc        1 JZE      0.040700
     59 H16A       -1.3290   -0.0080   -0.7910 hc        1 JZE      0.040700
     60 H17        -0.0770    2.1790   -0.8520 hc        1 JZE      0.039700
     61 H17A        0.0800    2.1380    0.9460 hc        1 JZE      0.039700
     62 H18         1.3320   -0.0440    0.7840 hc        1 JZE      0.040700
     63 H18A        1.1810    0.0050   -1.0150 hc        1 JZE      0.040700
     64 H19         2.4070    2.2150   -1.0540 hc        1 JZE      0.052200
     65 H19A        2.5640    2.1580    0.7430 hc        1 JZE      0.052200
     66 H20         3.7260    0.0740   -1.2560 h1        1 JZE      0.037700
     67 H20A        3.8740    0.0000    0.5680 h1        1 JZE      0.037700
     68 H23         8.3670    0.2060   -2.9070 ha        1 JZE      0.160500
     69 H25         8.7110   -0.0280    1.4270 ha        1 JZE      0.160500
     70 H28        10.4970    1.2660    1.2550 ha        1 JZE      0.125000
     71 H29        12.1390    0.8060    3.0410 ha        1 JZE      0.108000
     72 H30        13.5900   -1.2250    2.9290 ha        1 JZE      0.109000
     73 H31        13.3670   -2.7980    0.9840 ha        1 JZE      0.155000
@<TRIPOS>BOND
     1    1    3 1   
     2    1    5 1   
     3    1    7 1   
     4    2   19 1   
     5    2   20 1   
     6    2   46 1   
     7    4   22 1   
     8    5    9 ar  
     9    5   19 ar  
    10    6   38 1   
    11    6   39 1   
    12    6   47 1   
    13    8   24 1   
    14    9   12 ar  
    15    9   48 1   
    16   10   25 1   
    17   10   26 1   
    18   11   34 1   
    19   12   15 ar  
    20   12   49 1   
    21   13   32 1   
    22   13   33 1   
    23   14   36 1   
    24   15   17 ar  
    25   15   50 1   
    26   16   45 1   
    27   17   19 ar  
    28   17   51 1   
    29   18   45 1   
    30   20   21 ar  
    31   20   23 ar  
    32   21   22 ar  
    33   21   52 1   
    34   22   25 ar  
    35   23   24 ar  
    36   23   53 1   
    37   24   25 ar  
    38   26   27 1   
    39   26   54 1   
    40   26   55 1   
    41   27   28 1   
    42   27   56 1   
    43   27   57 1   
    44   28   29 1   
    45   28   58 1   
    46   28   59 1   
    47   29   30 1   
    48   29   60 1   
    49   29   61 1   
    50   30   31 1   
    51   30   62 1   
    52   30   63 1   
    53   31   32 1   
    54   31   64 1   
    55   31   65 1   
    56   32   66 1   
    57   32   67 1   
    58   33   34 ar  
    59   33   36 ar  
    60   34   35 ar  
    61   35   38 ar  
    62   35   68 1   
    63   36   37 ar  
    64   37   38 ar  
    65   37   69 1   
    66   39   40 ar  
    67   39   44 ar  
    68   40   41 ar  
    69   40   70 1   
    70   41   42 ar  
    71   41   71 1   
    72   42   43 ar  
    73   42   72 1   
    74   43   44 ar  
    75   43   73 1   
    76   44   45 1   
@<TRIPOS>SUBSTRUCTURE
     1 JZE         1 TEMP              0 ****  ****    0 ROOT
