@<TRIPOS>MOLECULE
JZE
   73    76     1     0     0
SMALL
bcc


@<TRIPOS>ATOM
      1 C1         -0.4770   -2.3510    1.8990 c         1 JZE      0.912200
      2 N1          1.0950   -0.0360    2.9570 nh        1 JZE     -0.619000
      3 O1          0.7640   -2.6010    1.9760 o         1 JZE     -0.826300
      4 CL1         5.5850    1.9510    1.7150 cl        1 JZE     -0.104900
      5 C2         -1.0580   -1.1920    2.7010 ca        1 JZE     -0.152600
      6 N2         10.2860   13.9350   -8.4590 nh        1 JZE     -0.619000
      7 O2         -1.2780   -3.0350    1.2050 o         1 JZE     -0.826300
      8 CL2         1.0490    4.8990    1.5580 cl        1 JZE     -0.104900
      9 C3         -2.4230   -1.2460    2.9940 ca        1 JZE     -0.090000
     10 O3          4.0280    4.5090    1.5140 os        1 JZE     -0.328900
     11 CL3         6.6630   13.1890   -5.0010 cl        1 JZE     -0.104900
     12 C4         -3.0490   -0.2520    3.7420 ca        1 JZE     -0.175000
     13 O4          8.5530   11.1070   -3.9490 os        1 JZE     -0.328900
     14 CL4        11.0500   10.0280   -5.2230 cl        1 JZE     -0.104900
     15 C5         -2.3010    0.8220    4.2180 ca        1 JZE     -0.136000
     16 O5         10.3360   13.6040  -12.6520 o         1 JZE     -0.826300
     17 C6         -0.9410    0.9070    3.9410 ca        1 JZE     -0.181000
     18 O6          9.2600   14.5540  -10.9520 o         1 JZE     -0.826300
     19 C7         -0.2990   -0.0890    3.1680 ca        1 JZE      0.144600
     20 C8          1.7580    1.0790    2.4720 ca        1 JZE      0.217600
     21 C9          3.1660    0.9970    2.2790 ca        1 JZE     -0.202500
     22 C10         3.8980    2.1190    1.9130 ca        1 JZE      0.057900
     23 C11         1.1270    2.3200    2.2060 ca        1 JZE     -0.202500
     24 C12         1.8770    3.4350    1.8440 ca        1 JZE      0.057900
     25 C13         3.2740    3.3640    1.7140 ca        1 JZE      0.023100
     26 C14         4.2600    4.8040    0.1250 c3        1 JZE      0.127400
     27 C15         5.1030    6.0670    0.1110 c3        1 JZE     -0.084400
     28 C16         5.4010    6.5030   -1.3060 c3        1 JZE     -0.077400
     29 C17         6.2530    7.7550   -1.3130 c3        1 JZE     -0.077400
     30 C18         6.5570    8.2220   -2.7210 c3        1 JZE     -0.077400
     31 C19         7.4180    9.4650   -2.6970 c3        1 JZE     -0.084400
     32 C20         7.7160    9.9460   -4.1060 c3        1 JZE      0.127400
     33 C21         8.9140   11.6900   -5.1530 ca        1 JZE      0.023100
     34 C22         8.1540   12.7410   -5.6990 ca        1 JZE      0.057900
     35 C23         8.5930   13.4440   -6.8130 ca        1 JZE     -0.202500
     36 C24        10.1110   11.3320   -5.7960 ca        1 JZE      0.057900
     37 C25        10.5640   12.0230   -6.9160 ca        1 JZE     -0.202500
     38 C26         9.8360   13.1240   -7.4310 ca        1 JZE      0.217600
     39 C27        11.4870   13.7100   -9.1660 ca        1 JZE      0.144600
     40 C28        12.7050   13.5400   -8.4660 ca        1 JZE     -0.181000
     41 C29        13.9030   13.3940   -9.1550 ca        1 JZE     -0.136000
     42 C30        13.9210   13.4210  -10.5470 ca        1 JZE     -0.175000
     43 C31        12.7310   13.6060  -11.2450 ca        1 JZE     -0.090000
     44 C32        11.5090   13.7580  -10.5830 ca        1 JZE     -0.152600
     45 C33        10.2770   13.9820  -11.4500 c         1 JZE      0.912200
     46 HN1         1.4970   -0.9340    2.7020 hn        1 JZE      0.491800
     47 HN2         9.5640   14.3730   -9.0240 hn        1 JZE      0.491800
     48 H3         -2.9970   -2.1020    2.5980 ha        1 JZE      0.155000
     49 H4         -4.1250   -0.3140    3.9550 ha        1 JZE      0.109000
     50 H5         -2.7810    1.6080    4.8180 ha        1 JZE      0.108000
     51 H6         -0.3620    1.7510    4.3440 ha        1 JZE      0.125000
     52 H9          3.6800    0.0320    2.4210 ha        1 JZE      0.160500
     53 H11         0.0300    2.4020    2.2670 ha        1 JZE      0.160500
     54 H14         4.8000    3.9460   -0.3530 h1        1 JZE      0.037700
     55 H14A        3.2770    4.9620   -0.3900 h1        1 JZE      0.037700
     56 H15         4.5580    6.8800    0.6580 hc        1 JZE      0.052200
     57 H15A        6.0580    5.8780    0.6660 hc        1 JZE      0.052200
     58 H16         4.4410    6.6960   -1.8540 hc        1 JZE      0.040700
     59 H16A        5.9340    5.6800   -1.8520 hc        1 JZE      0.040700
     60 H17         5.7220    8.5710   -0.7550 hc        1 JZE      0.039700
     61 H17A        7.2140    7.5550   -0.7690 hc        1 JZE      0.039700
     62 H18         5.5980    8.4340   -3.2630 hc        1 JZE      0.040700
     63 H18A        7.0830    7.4070   -3.2840 hc        1 JZE      0.040700
     64 H19         8.3840    9.2550   -2.1680 hc        1 JZE      0.052200
     65 H19A        6.9010   10.2830   -2.1300 hc        1 JZE      0.052200
     66 H20         6.7780   10.2340   -4.6470 h1        1 JZE      0.037700
     67 H20A        8.2670    9.1690   -4.6960 h1        1 JZE      0.037700
     68 H23         7.9740   14.2570   -7.2240 ha        1 JZE      0.160500
     69 H25        11.4900   11.6950   -7.4150 ha        1 JZE      0.160500
     70 H28        12.7130   13.5370   -7.3650 ha        1 JZE      0.125000
     71 H29        14.8380   13.2590   -8.5920 ha        1 JZE      0.108000
     72 H30        14.8680   13.2990  -11.0900 ha        1 JZE      0.109000
     73 H31        12.7180   13.6210  -12.3480 ha        1 JZE      0.155000
@<TRIPOS>BOND
     1    1    3 1   
     2    1    5 1   
     3    1    7 1   
     4    2   19 1   
     5    2   20 1   
     6    2   46 1   
     7    4   22 1   
     8    5    9 ar  
     9    5   19 ar  
    10    6   38 1   
    11    6   39 1   
    12    6   47 1   
    13    8   24 1   
    14    9   12 ar  
    15    9   48 1   
    16   10   25 1   
    17   10   26 1   
    18   11   34 1   
    19   12   15 ar  
    20   12   49 1   
    21   13   32 1   
    22   13   33 1   
    23   14   36 1   
    24   15   17 ar  
    25   15   50 1   
    26   16   45 1   
    27   17   19 ar  
    28   17   51 1   
    29   18   45 1   
    30   20   21 ar  
    31   20   23 ar  
    32   21   22 ar  
    33   21   52 1   
    34   22   25 ar  
    35   23   24 ar  
    36   23   53 1   
    37   24   25 ar  
    38   26   27 1   
    39   26   54 1   
    40   26   55 1   
    41   27   28 1   
    42   27   56 1   
    43   27   57 1   
    44   28   29 1   
    45   28   58 1   
    46   28   59 1   
    47   29   30 1   
    48   29   60 1   
    49   29   61 1   
    50   30   31 1   
    51   30   62 1   
    52   30   63 1   
    53   31   32 1   
    54   31   64 1   
    55   31   65 1   
    56   32   66 1   
    57   32   67 1   
    58   33   34 ar  
    59   33   36 ar  
    60   34   35 ar  
    61   35   38 ar  
    62   35   68 1   
    63   36   37 ar  
    64   37   38 ar  
    65   37   69 1   
    66   39   40 ar  
    67   39   44 ar  
    68   40   41 ar  
    69   40   70 1   
    70   41   42 ar  
    71   41   71 1   
    72   42   43 ar  
    73   42   72 1   
    74   43   44 ar  
    75   43   73 1   
    76   44   45 1   
@<TRIPOS>SUBSTRUCTURE
     1 JZE         1 TEMP              0 ****  ****    0 ROOT
