@<TRIPOS>MOLECULE
JZF
   55    56     1     0     0
SMALL
bcc


@<TRIPOS>ATOM
      1 N1         -0.0950   -0.1610   -0.0210 n         1 JZF     -0.501400
      2 O1          0.1170    2.8900    6.9550 o         1 JZF     -0.543100
      3 C2          1.3060   -0.1470    0.1200 c         1 JZF      0.711000
      4 O2          2.0300   -0.1000   -0.8880 o         1 JZF     -0.602500
      5 C3          1.9020   -0.1910    1.5080 c3        1 JZF     -0.152400
      6 O3         -2.1930   -0.1290    0.9040 o         1 JZF     -0.602500
      7 C4          0.9960    0.4310    2.5540 c3        1 JZF     -0.059700
      8 O4         -0.5860   -2.7290   -1.3220 o         1 JZF     -0.538000
      9 C5         -0.3760   -0.2100    2.4780 c3        1 JZF     -0.152400
     10 O5         -1.4040   -1.6550   -3.1060 os        1 JZF     -0.442900
     11 C6         -0.9660   -0.1620    1.0890 c         1 JZF      0.711000
     12 C7          1.6040    0.2630    3.9380 c3        1 JZF     -0.075400
     13 C8          0.9230    1.1450    4.9820 c3        1 JZF      0.155100
     14 C9          1.8440    1.3950    6.1860 c3        1 JZF     -0.200700
     15 OH         -0.2700    0.4820    5.3740 oh        1 JZF     -0.608800
     16 C10         1.2200    2.3720    7.1580 c         1 JZF      0.578100
     17 C11         2.0590    2.6560    8.3790 c3        1 JZF     -0.159700
     18 C12         2.4060    1.3480    9.0770 c3        1 JZF     -0.068400
     19 C13         3.0450    0.3280    8.1490 c3        1 JZF     -0.070700
     20 C14         2.1950    0.1040    6.9080 c3        1 JZF     -0.065400
     21 C15        -0.6590   -0.2370   -1.3490 c3        1 JZF      0.038000
     22 C16        -1.6380   -2.9470   -3.7000 c3        1 JZF      0.140400
     23 C17        -2.2490   -2.6830   -5.0540 c3        1 JZF     -0.101100
     24 C18         1.3660    3.6030    9.3320 c3        1 JZF     -0.087100
     25 C19         4.4680    0.7040    7.7950 c3        1 JZF     -0.092100
     26 C21        -0.8510   -1.6530   -1.8570 c         1 JZF      0.620100
     27 H13         2.1000   -1.2690    1.7540 hc        1 JZF      0.093450
     28 H23         2.8890    0.3410    1.4750 hc        1 JZF      0.093450
     29 H4          0.8950    1.5320    2.3330 hc        1 JZF      0.063700
     30 H15        -0.3230   -1.2900    2.7850 hc        1 JZF      0.093450
     31 H25        -1.0810    0.3030    3.1880 hc        1 JZF      0.093450
     32 H17         2.6910    0.5350    3.8940 hc        1 JZF      0.059200
     33 H27         1.5240   -0.8090    4.2570 hc        1 JZF      0.059200
     34 H8          0.6600    2.1470    4.5340 h1        1 JZF      0.048700
     35 H9          2.7910    1.8720    5.8030 hc        1 JZF      0.076700
     36 H1OH       -0.7610    1.0980    5.9340 ho        1 JZF      0.425000
     37 H11         3.0130    3.1380    8.0160 hc        1 JZF      0.071700
     38 H112        1.4700    0.9090    9.5140 hc        1 JZF      0.051700
     39 H212        3.1030    1.5690    9.9280 hc        1 JZF      0.051700
     40 H13A        3.0840   -0.6540    8.7070 hc        1 JZF      0.055700
     41 H114        2.7440   -0.5700    6.1990 hc        1 JZF      0.057700
     42 H214        1.2410   -0.4150    7.1950 hc        1 JZF      0.057700
     43 H115        0.0240    0.2930   -2.0760 h1        1 JZF      0.111700
     44 H215       -1.6700    0.2660   -1.3540 h1        1 JZF      0.111700
     45 H116       -2.3270   -3.5280   -3.0330 h1        1 JZF      0.052700
     46 H216       -0.6590   -3.4870   -3.7770 h1        1 JZF      0.052700
     47 H117       -1.5550   -2.0800   -5.6870 hc        1 JZF      0.048033
     48 H217       -3.2070   -2.1200   -4.9490 hc        1 JZF      0.048033
     49 H317       -2.4500   -3.6580   -5.5570 hc        1 JZF      0.048033
     50 H118        2.0270    3.8250   10.2030 hc        1 JZF      0.045367
     51 H218        1.1170    4.5590    8.8100 hc        1 JZF      0.045367
     52 H318        0.4140    3.1550    9.7060 hc        1 JZF      0.045367
     53 H119        4.5030    1.6690    7.2350 hc        1 JZF      0.036033
     54 H219        5.0800    0.8140    8.7230 hc        1 JZF      0.036033
     55 H319        4.9300   -0.0880    7.1580 hc        1 JZF      0.036033
@<TRIPOS>BOND
     1    1    3 1   
     2    1   11 1   
     3    1   21 1   
     4    2   16 2   
     5    3    4 2   
     6    3    5 1   
     7    5    7 1   
     8    5   27 1   
     9    5   28 1   
    10    6   11 2   
    11    7    9 1   
    12    7   12 1   
    13    7   29 1   
    14    8   26 2   
    15    9   11 1   
    16    9   30 1   
    17    9   31 1   
    18   10   22 1   
    19   10   26 1   
    20   12   13 1   
    21   12   32 1   
    22   12   33 1   
    23   13   14 1   
    24   13   15 1   
    25   13   34 1   
    26   14   16 1   
    27   14   20 1   
    28   14   35 1   
    29   15   36 1   
    30   16   17 1   
    31   17   18 1   
    32   17   24 1   
    33   17   37 1   
    34   18   19 1   
    35   18   38 1   
    36   18   39 1   
    37   19   20 1   
    38   19   25 1   
    39   19   40 1   
    40   20   41 1   
    41   20   42 1   
    42   21   26 1   
    43   21   43 1   
    44   21   44 1   
    45   22   23 1   
    46   22   45 1   
    47   22   46 1   
    48   23   47 1   
    49   23   48 1   
    50   23   49 1   
    51   24   50 1   
    52   24   51 1   
    53   24   52 1   
    54   25   53 1   
    55   25   54 1   
    56   25   55 1   
@<TRIPOS>SUBSTRUCTURE
     1 JZF         1 TEMP              0 ****  ****    0 ROOT
