@<TRIPOS>MOLECULE
JZF
   55    56     1     0     0
SMALL
bcc


@<TRIPOS>ATOM
      1 N1         -0.1020   -0.1640   -0.0180 n         1 JZF     -0.501400
      2 O1          0.1010    2.8770    6.9620 o         1 JZF     -0.543100
      3 C2          1.2980   -0.1370    0.1190 c         1 JZF      0.711000
      4 O2          2.0190   -0.0810   -0.8910 o         1 JZF     -0.602500
      5 C3          1.8990   -0.1780    1.5060 c3        1 JZF     -0.152400
      6 O3         -2.1980   -0.1530    0.9140 o         1 JZF     -0.602500
      7 C4          0.9900    0.4340    2.5550 c3        1 JZF     -0.059700
      8 O4         -0.5730   -2.7350   -1.3220 o         1 JZF     -0.538000
      9 C5         -0.3760   -0.2200    2.4820 c3        1 JZF     -0.152400
     10 O5         -1.4050   -1.6650   -3.1030 os        1 JZF     -0.442900
     11 C6         -0.9700   -0.1750    1.0950 c         1 JZF      0.711000
     12 C7          1.6040    0.2690    3.9370 c3        1 JZF     -0.075400
     13 C8          0.9170    1.1430    4.9840 c3        1 JZF      0.155100
     14 C9          1.8400    1.4000    6.1870 c3        1 JZF     -0.200700
     15 OH         -0.2670    0.4670    5.3790 oh        1 JZF     -0.608800
     16 C10         1.2090    2.3690    7.1610 c         1 JZF      0.578100
     17 C11         2.0490    2.6590    8.3800 c3        1 JZF     -0.159700
     18 C12         2.4110    1.3540    9.0760 c3        1 JZF     -0.068400
     19 C13         3.0570    0.3410    8.1440 c3        1 JZF     -0.070700
     20 C14         2.2050    0.1110    6.9050 c3        1 JZF     -0.065400
     21 C15        -0.6690   -0.2430   -1.3450 c3        1 JZF      0.038000
     22 C16        -1.6280   -2.9580   -3.6980 c3        1 JZF      0.140400
     23 C17        -2.2440   -2.6970   -5.0500 c3        1 JZF     -0.101100
     24 C18         1.3500    3.5990    9.3370 c3        1 JZF     -0.087100
     25 C19         4.4750    0.7320    7.7860 c3        1 JZF     -0.092100
     26 C21        -0.8490   -1.6590   -1.8550 c         1 JZF      0.620100
     27 H13         2.1080   -1.2550    1.7490 hc        1 JZF      0.093450
     28 H23         2.8810    0.3630    1.4710 hc        1 JZF      0.093450
     29 H4          0.8780    1.5340    2.3370 hc        1 JZF      0.063700
     30 H15        -0.3110   -1.3000    2.7870 hc        1 JZF      0.093450
     31 H25        -1.0840    0.2850    3.1950 hc        1 JZF      0.093450
     32 H17         1.5350   -0.8050    4.2540 hc        1 JZF      0.059200
     33 H27         2.6880    0.5510    3.8900 hc        1 JZF      0.059200
     34 H8          0.6430    2.1430    4.5390 h1        1 JZF      0.048700
     35 H9          2.7810    1.8860    5.8010 hc        1 JZF      0.076700
     36 H1OH       -0.7630    1.0780    5.9420 ho        1 JZF      0.425000
     37 H11         2.9970    3.1510    8.0140 hc        1 JZF      0.071700
     38 H112        3.1090    1.5800    9.9240 hc        1 JZF      0.051700
     39 H212        1.4810    0.9050    9.5150 hc        1 JZF      0.051700
     40 H13A        3.1080   -0.6410    8.7000 hc        1 JZF      0.055700
     41 H114        1.2570   -0.4180    7.1940 hc        1 JZF      0.057700
     42 H214        2.7590   -0.5560    6.1930 hc        1 JZF      0.057700
     43 H115        0.0060    0.2950   -2.0730 h1        1 JZF      0.111700
     44 H215       -1.6850    0.2500   -1.3460 h1        1 JZF      0.111700
     45 H116       -2.3100   -3.5470   -3.0310 h1        1 JZF      0.052700
     46 H216       -0.6430   -3.4890   -3.7790 h1        1 JZF      0.052700
     47 H117       -1.5570   -2.0870   -5.6840 hc        1 JZF      0.048033
     48 H217       -2.4370   -3.6740   -5.5550 hc        1 JZF      0.048033
     49 H317       -3.2070   -2.1430   -4.9430 hc        1 JZF      0.048033
     50 H118        2.0120    3.8260   10.2060 hc        1 JZF      0.045367
     51 H218        0.4040    3.1400    9.7140 hc        1 JZF      0.045367
     52 H318        1.0890    4.5520    8.8180 hc        1 JZF      0.045367
     53 H119        4.9430   -0.0550    7.1460 hc        1 JZF      0.036033
     54 H219        5.0900    0.8470    8.7110 hc        1 JZF      0.036033
     55 H319        4.4990    1.6980    7.2270 hc        1 JZF      0.036033
@<TRIPOS>BOND
     1    1    3 1   
     2    1   11 1   
     3    1   21 1   
     4    2   16 2   
     5    3    4 2   
     6    3    5 1   
     7    5    7 1   
     8    5   27 1   
     9    5   28 1   
    10    6   11 2   
    11    7    9 1   
    12    7   12 1   
    13    7   29 1   
    14    8   26 2   
    15    9   11 1   
    16    9   30 1   
    17    9   31 1   
    18   10   22 1   
    19   10   26 1   
    20   12   13 1   
    21   12   32 1   
    22   12   33 1   
    23   13   14 1   
    24   13   15 1   
    25   13   34 1   
    26   14   16 1   
    27   14   20 1   
    28   14   35 1   
    29   15   36 1   
    30   16   17 1   
    31   17   18 1   
    32   17   24 1   
    33   17   37 1   
    34   18   19 1   
    35   18   38 1   
    36   18   39 1   
    37   19   20 1   
    38   19   25 1   
    39   19   40 1   
    40   20   41 1   
    41   20   42 1   
    42   21   26 1   
    43   21   43 1   
    44   21   44 1   
    45   22   23 1   
    46   22   45 1   
    47   22   46 1   
    48   23   47 1   
    49   23   48 1   
    50   23   49 1   
    51   24   50 1   
    52   24   51 1   
    53   24   52 1   
    54   25   53 1   
    55   25   54 1   
    56   25   55 1   
@<TRIPOS>SUBSTRUCTURE
     1 JZF         1 TEMP              0 ****  ****    0 ROOT
