@<TRIPOS>MOLECULE
JZF
   55    56     1     0     0
SMALL
bcc


@<TRIPOS>ATOM
      1 N1         -0.1000   -0.1700   -0.0200 n         1 JZF     -0.501400
      2 O1          0.1300    2.9050    6.9450 o         1 JZF     -0.543100
      3 C2          1.3010   -0.1610    0.1200 c         1 JZF      0.711000
      4 O2          2.0240   -0.1200   -0.8880 o         1 JZF     -0.602500
      5 C3          1.8980   -0.2030    1.5080 c3        1 JZF     -0.152400
      6 O3         -2.1970   -0.1250    0.9080 o         1 JZF     -0.602500
      7 C4          0.9960    0.4270    2.5520 c3        1 JZF     -0.059700
      8 O4         -0.6030   -2.7410   -1.3110 o         1 JZF     -0.538000
      9 C5         -0.3790   -0.2090    2.4800 c3        1 JZF     -0.152400
     10 O5         -1.4190   -1.6700   -3.0980 os        1 JZF     -0.442900
     11 C6         -0.9700   -0.1630    1.0920 c         1 JZF      0.711000
     12 C7          1.6040    0.2610    3.9360 c3        1 JZF     -0.075400
     13 C8          0.9280    1.1500    4.9780 c3        1 JZF      0.155100
     14 C9          1.8510    1.4020    6.1800 c3        1 JZF     -0.200700
     15 OH         -0.2670    0.4910    5.3740 oh        1 JZF     -0.608800
     16 C10         1.2310    2.3840    7.1490 c         1 JZF      0.578100
     17 C11         2.0730    2.6700    8.3670 c3        1 JZF     -0.159700
     18 C12         2.4170    1.3640    9.0710 c3        1 JZF     -0.068400
     19 C13         3.0510    0.3380    8.1450 c3        1 JZF     -0.070700
     20 C14         2.1980    0.1120    6.9070 c3        1 JZF     -0.065400
     21 C15        -0.6650   -0.2480   -1.3470 c3        1 JZF      0.038000
     22 C16        -1.6580   -2.9620   -3.6860 c3        1 JZF      0.140400
     23 C17        -2.2690   -2.7010   -5.0410 c3        1 JZF     -0.101100
     24 C18         1.3840    3.6230    9.3180 c3        1 JZF     -0.087100
     25 C19         4.4750    0.7080    7.7880 c3        1 JZF     -0.092100
     26 C21        -0.8640   -1.6650   -1.8500 c         1 JZF      0.620100
     27 H13         2.0920   -1.2810    1.7580 hc        1 JZF      0.093450
     28 H23         2.8880    0.3250    1.4730 hc        1 JZF      0.093450
     29 H4          0.8990    1.5280    2.3280 hc        1 JZF      0.063700
     30 H15        -0.3300   -1.2880    2.7910 hc        1 JZF      0.093450
     31 H25        -1.0820    0.3100    3.1890 hc        1 JZF      0.093450
     32 H17         2.6920    0.5290    3.8900 hc        1 JZF      0.059200
     33 H27         1.5210   -0.8100    4.2590 hc        1 JZF      0.059200
     34 H8          0.6670    2.1510    4.5260 h1        1 JZF      0.048700
     35 H9          2.7990    1.8730    5.7930 hc        1 JZF      0.076700
     36 H1OH       -0.7550    1.1120    5.9330 ho        1 JZF      0.425000
     37 H11         3.0280    3.1470    8.0010 hc        1 JZF      0.071700
     38 H112        1.4800    0.9290    9.5100 hc        1 JZF      0.051700
     39 H212        3.1160    1.5850    9.9190 hc        1 JZF      0.051700
     40 H13A        3.0880   -0.6420    8.7070 hc        1 JZF      0.055700
     41 H114        1.2440   -0.4030    7.1970 hc        1 JZF      0.057700
     42 H214        2.7450   -0.5660    6.1990 hc        1 JZF      0.057700
     43 H115        0.0190    0.2770   -2.0760 h1        1 JZF      0.111700
     44 H215       -1.6750    0.2590   -1.3530 h1        1 JZF      0.111700
     45 H116       -0.6810   -3.5070   -3.7630 h1        1 JZF      0.052700
     46 H216       -2.3480   -3.5380   -3.0170 h1        1 JZF      0.052700
     47 H117       -3.2250   -2.1340   -4.9370 hc        1 JZF      0.048033
     48 H217       -1.5740   -2.1030   -5.6770 hc        1 JZF      0.048033
     49 H317       -2.4750   -3.6770   -5.5410 hc        1 JZF      0.048033
     50 H118        2.0480    3.8460   10.1870 hc        1 JZF      0.045367
     51 H218        0.4320    3.1790    9.6960 hc        1 JZF      0.045367
     52 H318        1.1370    4.5770    8.7930 hc        1 JZF      0.045367
     53 H119        4.5120    1.6710    7.2240 hc        1 JZF      0.036033
     54 H219        4.9340   -0.0880    7.1530 hc        1 JZF      0.036033
     55 H319        5.0890    0.8200    8.7140 hc        1 JZF      0.036033
@<TRIPOS>BOND
     1    1    3 1   
     2    1   11 1   
     3    1   21 1   
     4    2   16 2   
     5    3    4 2   
     6    3    5 1   
     7    5    7 1   
     8    5   27 1   
     9    5   28 1   
    10    6   11 2   
    11    7    9 1   
    12    7   12 1   
    13    7   29 1   
    14    8   26 2   
    15    9   11 1   
    16    9   30 1   
    17    9   31 1   
    18   10   22 1   
    19   10   26 1   
    20   12   13 1   
    21   12   32 1   
    22   12   33 1   
    23   13   14 1   
    24   13   15 1   
    25   13   34 1   
    26   14   16 1   
    27   14   20 1   
    28   14   35 1   
    29   15   36 1   
    30   16   17 1   
    31   17   18 1   
    32   17   24 1   
    33   17   37 1   
    34   18   19 1   
    35   18   38 1   
    36   18   39 1   
    37   19   20 1   
    38   19   25 1   
    39   19   40 1   
    40   20   41 1   
    41   20   42 1   
    42   21   26 1   
    43   21   43 1   
    44   21   44 1   
    45   22   23 1   
    46   22   45 1   
    47   22   46 1   
    48   23   47 1   
    49   23   48 1   
    50   23   49 1   
    51   24   50 1   
    52   24   51 1   
    53   24   52 1   
    54   25   53 1   
    55   25   54 1   
    56   25   55 1   
@<TRIPOS>SUBSTRUCTURE
     1 JZF         1 TEMP              0 ****  ****    0 ROOT
