@<TRIPOS>MOLECULE
JZF
   55    56     1     0     0
SMALL
bcc


@<TRIPOS>ATOM
      1 N1         -2.9390    0.2910   -0.4950 n         1 JZF     -0.500400
      2 O1          4.4350    1.6510   -1.3790 o         1 JZF     -0.520100
      3 C2         -2.3960   -0.7920   -1.2120 c         1 JZF      0.712500
      4 O2         -3.0800   -1.3720   -2.0710 o         1 JZF     -0.600500
      5 C3         -0.9820   -1.2310   -0.9120 c3        1 JZF     -0.155900
      6 O3         -2.7140    1.9800    1.0400 o         1 JZF     -0.600500
      7 C4         -0.1020   -0.0920   -0.4320 c3        1 JZF     -0.059700
      8 O4         -5.0420   -0.9670    1.0910 o         1 JZF     -0.540000
      9 C5         -0.7660    0.6080    0.7370 c3        1 JZF     -0.155900
     10 O5         -6.5740    0.2460    0.0020 os        1 JZF     -0.441900
     11 C6         -2.1910    1.0190    0.4530 c         1 JZF      0.712500
     12 C7          1.2720   -0.6270   -0.0550 c3        1 JZF     -0.109400
     13 C8          2.3320    0.4720    0.0300 c3        1 JZF      0.140100
     14 C9          3.7400   -0.1470    0.0790 c3        1 JZF     -0.193700
     15 OH          2.0880    1.3470    1.1160 oh        1 JZF     -0.584800
     16 C10         4.7490    0.6710   -0.7010 c         1 JZF      0.578100
     17 C11         6.1620    0.1370   -0.6440 c3        1 JZF     -0.160700
     18 C12         6.5990   -0.1100    0.7910 c3        1 JZF     -0.067400
     19 C13         5.6160   -0.9630    1.5750 c3        1 JZF     -0.067700
     20 C14         4.2210   -0.3630    1.5040 c3        1 JZF     -0.071400
     21 C15        -4.3310    0.6260   -0.6900 c3        1 JZF      0.038000
     22 C16        -7.5730   -0.3980    0.8150 c3        1 JZF      0.140400
     23 C17        -8.9010    0.1740    0.3810 c3        1 JZF     -0.101100
     24 C18         7.1350    1.0640   -1.3410 c3        1 JZF     -0.087100
     25 C19         5.6400   -2.4100    1.1330 c3        1 JZF     -0.092100
     26 C21        -5.2790   -0.1220    0.2270 c         1 JZF      0.620100
     27 H13        -1.0400   -2.0370   -0.1300 hc        1 JZF      0.091450
     28 H23        -0.5590   -1.6880   -1.8460 hc        1 JZF      0.091450
     29 H4          0.0220    0.6490   -1.2730 hc        1 JZF      0.073700
     30 H15        -0.7890   -0.0640    1.6370 hc        1 JZF      0.091450
     31 H25        -0.1840    1.5320    1.0110 hc        1 JZF      0.091450
     32 H17         1.2150   -1.1680    0.9250 hc        1 JZF      0.051200
     33 H27         1.5880   -1.3700   -0.8350 hc        1 JZF      0.051200
     34 H8          2.2590    1.1530   -0.8720 h1        1 JZF      0.108700
     35 H9          3.7010   -1.1490   -0.4400 hc        1 JZF      0.073700
     36 H1OH        2.0390    0.8150    1.9210 ho        1 JZF      0.395000
     37 H11         6.1480   -0.8500   -1.1920 hc        1 JZF      0.068700
     38 H112        7.6030   -0.6100    0.7810 hc        1 JZF      0.051700
     39 H212        6.7200    0.8780    1.3110 hc        1 JZF      0.051700
     40 H13A        5.9360   -0.9370    2.6580 hc        1 JZF      0.054700
     41 H114        4.2320    0.6240    2.0420 hc        1 JZF      0.050700
     42 H214        3.4960   -1.0360    2.0330 hc        1 JZF      0.050700
     43 H115       -4.4790    1.7310   -0.5020 h1        1 JZF      0.112200
     44 H215       -4.6280    0.3870   -1.7530 h1        1 JZF      0.112200
     45 H116       -7.5150   -1.5040    0.6440 h1        1 JZF      0.052700
     46 H216       -7.3530   -0.1800    1.8930 h1        1 JZF      0.052700
     47 H117       -8.9210    1.2800    0.5360 hc        1 JZF      0.048367
     48 H217       -9.0830   -0.0320   -0.7000 hc        1 JZF      0.048367
     49 H317       -9.7130   -0.2950    0.9860 hc        1 JZF      0.048367
     50 H118        7.1710    2.0530   -0.8230 hc        1 JZF      0.045367
     51 H218        8.1580    0.6190   -1.3400 hc        1 JZF      0.045367
     52 H318        6.8120    1.2370   -2.3960 hc        1 JZF      0.045367
     53 H119        6.6640   -2.8360    1.2650 hc        1 JZF      0.036367
     54 H219        4.9240   -3.0130    1.7420 hc        1 JZF      0.036367
     55 H319        5.3570   -2.5100    0.0570 hc        1 JZF      0.036367
@<TRIPOS>BOND
     1    1    3 1   
     2    1   11 1   
     3    1   21 1   
     4    2   16 2   
     5    3    4 2   
     6    3    5 1   
     7    5    7 1   
     8    5   27 1   
     9    5   28 1   
    10    6   11 2   
    11    7    9 1   
    12    7   12 1   
    13    7   29 1   
    14    8   26 2   
    15    9   11 1   
    16    9   30 1   
    17    9   31 1   
    18   10   22 1   
    19   10   26 1   
    20   12   13 1   
    21   12   32 1   
    22   12   33 1   
    23   13   14 1   
    24   13   15 1   
    25   13   34 1   
    26   14   16 1   
    27   14   20 1   
    28   14   35 1   
    29   15   36 1   
    30   16   17 1   
    31   17   18 1   
    32   17   24 1   
    33   17   37 1   
    34   18   19 1   
    35   18   38 1   
    36   18   39 1   
    37   19   20 1   
    38   19   25 1   
    39   19   40 1   
    40   20   41 1   
    41   20   42 1   
    42   21   26 1   
    43   21   43 1   
    44   21   44 1   
    45   22   23 1   
    46   22   45 1   
    47   22   46 1   
    48   23   47 1   
    49   23   48 1   
    50   23   49 1   
    51   24   50 1   
    52   24   51 1   
    53   24   52 1   
    54   25   53 1   
    55   25   54 1   
    56   25   55 1   
@<TRIPOS>SUBSTRUCTURE
     1 JZF         1 TEMP              0 ****  ****    0 ROOT
