@<TRIPOS>MOLECULE
JZF
   55    56     1     0     0
SMALL
bcc


@<TRIPOS>ATOM
      1 N1         -1.3530   -1.5940   -2.6740 n         1 JZF     -0.498400
      2 O1          2.4960   -0.4790    3.7340 o         1 JZF     -0.535100
      3 C2         -0.2340   -0.6780   -2.5110 c         1 JZF      0.711500
      4 O2          0.4140   -0.3260   -3.4830 o         1 JZF     -0.602500
      5 C3          0.3940   -0.6530   -1.1290 c3        1 JZF     -0.151400
      6 O3         -3.4530   -1.9470   -1.7430 o         1 JZF     -0.602500
      7 C4         -0.6490   -0.5010   -0.0850 c3        1 JZF     -0.066700
      8 O4         -2.7380   -2.1380   -5.0970 o         1 JZF     -0.537000
      9 C5         -1.7250   -1.5350   -0.1760 c3        1 JZF     -0.151400
     10 O5         -0.7980   -2.9490   -5.9470 os        1 JZF     -0.441900
     11 C6         -2.3230   -1.5430   -1.5730 c         1 JZF      0.711500
     12 C7          0.0360   -0.6050    1.3420 c3        1 JZF     -0.085400
     13 C8          0.1690    0.7900    1.9520 c3        1 JZF      0.153100
     14 C9          0.4100    0.6670    3.4830 c3        1 JZF     -0.192700
     15 OH         -0.9760    1.4970    1.7290 oh        1 JZF     -0.591800
     16 C10         1.9180    0.5790    3.8160 c         1 JZF      0.576100
     17 C11         2.6950    1.9150    3.6030 c3        1 JZF     -0.160700
     18 C12         1.9850    3.0380    4.3620 c3        1 JZF     -0.069400
     19 C13         0.5200    3.1380    4.0640 c3        1 JZF     -0.070700
     20 C14        -0.2130    1.8430    4.2460 c3        1 JZF     -0.076400
     21 C15        -1.1840   -2.8150   -3.4390 c3        1 JZF      0.038000
     22 C16        -1.4950   -3.5140   -7.0520 c3        1 JZF      0.140400
     23 C17        -0.6040   -3.5590   -8.2330 c3        1 JZF     -0.101100
     24 C18         2.8930    2.2500    2.0920 c3        1 JZF     -0.088100
     25 C19        -0.1100    4.2040    5.0190 c3        1 JZF     -0.091100
     26 C21        -1.6360   -2.5820   -4.8760 c         1 JZF      0.619100
     27 H13         1.0930    0.0510   -1.1410 hc        1 JZF      0.086950
     28 H23         0.9260   -1.4410   -0.9290 hc        1 JZF      0.086950
     29 H4         -1.0590    0.3890   -0.1770 hc        1 JZF      0.084700
     30 H15        -1.4610   -2.4190    0.1520 hc        1 JZF      0.086950
     31 H25        -2.4280   -1.3110    0.4640 hc        1 JZF      0.086950
     32 H17        -0.5110   -1.1610    1.9230 hc        1 JZF      0.072200
     33 H27         0.9080   -0.9970    1.2500 hc        1 JZF      0.072200
     34 H8          0.9280    1.2570    1.5370 h1        1 JZF      0.037700
     35 H9         -0.0550   -0.1830    3.6850 hc        1 JZF      0.088700
     36 H1OH       -0.8030    2.1730    1.2140 ho        1 JZF      0.405000
     37 H11         3.6410    1.8260    3.9050 hc        1 JZF      0.078700
     38 H112        2.4190    3.9110    4.1230 hc        1 JZF      0.050700
     39 H212        2.0990    2.8840    5.3300 hc        1 JZF      0.050700
     40 H13A        0.4080    3.4310    3.1540 hc        1 JZF      0.044700
     41 H114       -0.2290    1.6210    5.2110 hc        1 JZF      0.055200
     42 H214       -1.1460    1.9630    3.9320 hc        1 JZF      0.055200
     43 H115       -1.7270   -3.5350   -3.0360 h1        1 JZF      0.111700
     44 H215       -0.2300   -3.0780   -3.4320 h1        1 JZF      0.111700
     45 H116       -1.7820   -4.4190   -6.8270 h1        1 JZF      0.052700
     46 H216       -2.2800   -2.9650   -7.2570 h1        1 JZF      0.052700
     47 H117       -0.6350   -2.7030   -8.6970 hc        1 JZF      0.048367
     48 H217        0.3070   -3.7400   -7.9450 hc        1 JZF      0.048367
     49 H317       -0.9040   -4.2730   -8.8420 hc        1 JZF      0.048367
     50 H118        2.9820    1.3960    1.5670 hc        1 JZF      0.043700
     51 H218        2.1180    2.7560    1.7640 hc        1 JZF      0.043700
     52 H318        3.7030    2.7880    1.9810 hc        1 JZF      0.043700
     53 H119        0.4140    5.0330    4.9740 hc        1 JZF      0.038700
     54 H219       -0.1040    3.8600    5.9490 hc        1 JZF      0.038700
     55 H319       -1.0270    4.3840    4.7460 hc        1 JZF      0.038700
@<TRIPOS>BOND
     1    1    3 1   
     2    1   11 1   
     3    1   21 1   
     4    2   16 2   
     5    3    4 2   
     6    3    5 1   
     7    5    7 1   
     8    5   27 1   
     9    5   28 1   
    10    6   11 2   
    11    7    9 1   
    12    7   12 1   
    13    7   29 1   
    14    8   26 2   
    15    9   11 1   
    16    9   30 1   
    17    9   31 1   
    18   10   22 1   
    19   10   26 1   
    20   12   13 1   
    21   12   32 1   
    22   12   33 1   
    23   13   14 1   
    24   13   15 1   
    25   13   34 1   
    26   14   16 1   
    27   14   20 1   
    28   14   35 1   
    29   15   36 1   
    30   16   17 1   
    31   17   18 1   
    32   17   24 1   
    33   17   37 1   
    34   18   19 1   
    35   18   38 1   
    36   18   39 1   
    37   19   20 1   
    38   19   25 1   
    39   19   40 1   
    40   20   41 1   
    41   20   42 1   
    42   21   26 1   
    43   21   43 1   
    44   21   44 1   
    45   22   23 1   
    46   22   45 1   
    47   22   46 1   
    48   23   47 1   
    49   23   48 1   
    50   23   49 1   
    51   24   50 1   
    52   24   51 1   
    53   24   52 1   
    54   25   53 1   
    55   25   54 1   
    56   25   55 1   
@<TRIPOS>SUBSTRUCTURE
     1 JZF         1 TEMP              0 ****  ****    0 ROOT
