@<TRIPOS>MOLECULE
JZG
   68    73     1     0     0
SMALL
bcc


@<TRIPOS>ATOM
      1 C1         -0.3370   -1.1490    2.7930 ca        1 JZG      0.005800
      2 N1          0.1380   -0.2460    1.8280 na        1 JZG     -0.081400
      3 O1         -2.8800   -3.4310    3.9730 oh        1 JZG     -0.542100
      4 C2         -1.5190   -1.8960    2.8550 ca        1 JZG     -0.237000
      5 N2          4.2290   -0.1110    4.0090 nc        1 JZG     -0.349000
      6 C3         -1.7000   -2.7400    3.9640 ca        1 JZG      0.210100
      7 N3          4.9390   -0.2150    5.0560 nd        1 JZG     -0.188800
      8 C4         -0.7220   -2.8610    4.9890 ca        1 JZG     -0.234600
      9 N4          4.1470   -0.3270    6.1560 na        1 JZG      0.041400
     10 O4          3.0680   -0.5400    9.9030 o         1 JZG     -0.637100
     11 C5          0.4500   -2.1250    4.8970 ca        1 JZG     -0.029000
     12 N5          1.4370   -1.8930    8.9550 n         1 JZG     -0.454100
     13 C6          0.6500   -1.2480    3.8340 ca        1 JZG     -0.151800
     14 C7         -0.8890   -3.7360    6.2090 c         1 JZG      0.929200
     15 C8          1.7220   -0.3310    3.4900 cc        1 JZG     -0.132000
     16 C9          1.3810    0.2730    2.2740 cd        1 JZG     -0.007300
     17 C10        -0.6450    0.2700    0.7570 c3        1 JZG      0.033600
     18 C11         2.1400    1.2630    1.5260 ca        1 JZG     -0.013800
     19 C12         2.2620    1.1850    0.1300 ca        1 JZG     -0.110500
     20 C13         3.0030    2.1390   -0.5640 ca        1 JZG     -0.135500
     21 C14         3.6290    3.1790    0.1220 ca        1 JZG     -0.137000
     22 C15         3.5180    3.2580    1.5100 ca        1 JZG     -0.135500
     23 C16         2.7780    2.3080    2.2110 ca        1 JZG     -0.110500
     24 C17         2.8530   -0.1940    4.3510 cc        1 JZG      0.350100
     25 C18         2.8040   -0.3150    5.7590 cd        1 JZG     -0.221600
     26 C20         3.7480   -1.9010    8.0550 c3        1 JZG     -0.180400
     27 C21         2.7120   -1.3820    9.0480 c         1 JZG      0.652100
     28 C22         0.3690   -1.6470    9.8380 ca        1 JZG      0.071600
     29 C23        -0.8260   -2.3930    9.6570 ca        1 JZG     -0.165500
     30 C24        -1.9120   -2.1870   10.4920 ca        1 JZG     -0.104000
     31 C25        -1.8600   -1.2470   11.5340 cp        1 JZG     -0.090000
     32 C26        -0.6830   -0.5130   11.7120 ca        1 JZG     -0.104000
     33 C27         0.4180   -0.7000   10.8810 ca        1 JZG     -0.165500
     34 C28        -3.0110   -1.0380   12.4070 cp        1 JZG     -0.006000
     35 C29        -2.8330   -0.7950   13.7780 ca        1 JZG     -0.126000
     36 C30        -3.9330   -0.5950   14.6080 ca        1 JZG     -0.134500
     37 C31        -5.2250   -0.6350   14.0850 ca        1 JZG     -0.145000
     38 C32        -5.4120   -0.8760   12.7240 ca        1 JZG     -0.134500
     39 C33        -4.3150   -1.0770   11.8890 ca        1 JZG     -0.126000
     40 HO1        -2.9240   -3.9780    4.7860 ho        1 JZG      0.481000
     41 H2         -2.2880   -1.8380    2.0770 ha        1 JZG      0.135000
     42 H5          1.2160   -2.2560    5.6800 ha        1 JZG      0.146000
     43 HN5         1.2320   -2.5590    8.2220 hn        1 JZG      0.382500
     44 H10        -0.5150   -0.3730   -0.1570 h1        1 JZG      0.042367
     45 H10A       -1.7330    0.2680    1.0410 h1        1 JZG      0.042367
     46 H10B       -0.3270    1.3170    0.5080 h1        1 JZG      0.042367
     47 H12         1.7860    0.3570   -0.4160 ha        1 JZG      0.140500
     48 H13         3.0980    2.0670   -1.6570 ha        1 JZG      0.124000
     49 H14         4.2140    3.9290   -0.4280 ha        1 JZG      0.121000
     50 H15         4.0190    4.0700    2.0570 ha        1 JZG      0.124000
     51 H16         2.7010    2.3610    3.3080 ha        1 JZG      0.140500
     52 H18         1.9680   -0.3690    6.4560 h4        1 JZG      0.207000
     53 H19         4.5120    0.1460    8.1650 h1        1 JZG      0.081200
     54 H19A        5.6570   -1.0690    7.4200 h1        1 JZG      0.081200
     55 H20         4.4360   -2.5670    8.6430 hc        1 JZG      0.087200
     56 H20A        3.2850   -2.5250    7.2450 hc        1 JZG      0.087200
     57 H23        -0.8990   -3.1400    8.8350 ha        1 JZG      0.187500
     58 H24        -2.8260   -2.7800   10.3350 ha        1 JZG      0.129500
     59 H26        -0.6230    0.2370   12.5150 ha        1 JZG      0.129500
     60 H27         1.3220   -0.0950   11.0540 ha        1 JZG      0.187500
     61 H29        -1.8160   -0.7710   14.1970 ha        1 JZG      0.138000
     62 H30        -3.7810   -0.4080   15.6810 ha        1 JZG      0.122000
     63 H31        -6.0920   -0.4770   14.7410 ha        1 JZG      0.120000
     64 H32        -6.4280   -0.9090   12.3060 ha        1 JZG      0.122000
     65 H33        -4.4660   -1.2630   10.8150 ha        1 JZG      0.138000
     66 O2         -1.9700   -4.3700    6.3840 o         1 JZG     -0.848800
     67 O3          0.0710   -3.7890    7.0400 o         1 JZG     -0.848800
     68 C19         4.5780   -0.7480    7.4770 c3        1 JZG      0.054300
@<TRIPOS>BOND
     1    1    2 1   
     2    1    4 ar  
     3    1   13 ar  
     4    2   16 1   
     5    2   17 1   
     6    3    6 1   
     7    3   40 1   
     8    4    6 ar  
     9    4   41 1   
    10    5    7 2   
    11    5   24 1   
    12    6    8 ar  
    13    7    9 1   
    14    8   11 ar  
    15    8   14 1   
    16    9   25 1   
    17    9   68 1   
    18   10   27 2   
    19   11   13 ar  
    20   11   42 1   
    21   12   27 1   
    22   12   28 1   
    23   12   43 1   
    24   13   15 1   
    25   14   66 1   
    26   14   67 1   
    27   15   16 2   
    28   15   24 1   
    29   16   18 1   
    30   17   44 1   
    31   17   45 1   
    32   17   46 1   
    33   18   19 ar  
    34   18   23 ar  
    35   19   20 ar  
    36   19   47 1   
    37   20   21 ar  
    38   20   48 1   
    39   21   22 ar  
    40   21   49 1   
    41   22   23 ar  
    42   22   50 1   
    43   23   51 1   
    44   24   25 2   
    45   25   52 1   
    46   26   27 1   
    47   26   55 1   
    48   26   56 1   
    49   26   68 1   
    50   28   29 ar  
    51   28   33 ar  
    52   29   30 ar  
    53   29   57 1   
    54   30   31 ar  
    55   30   58 1   
    56   31   32 ar  
    57   31   34 1   
    58   32   33 ar  
    59   32   59 1   
    60   33   60 1   
    61   34   35 ar  
    62   34   39 ar  
    63   35   36 ar  
    64   35   61 1   
    65   36   37 ar  
    66   36   62 1   
    67   37   38 ar  
    68   37   63 1   
    69   38   39 ar  
    70   38   64 1   
    71   39   65 1   
    72   53   68 1   
    73   54   68 1   
@<TRIPOS>SUBSTRUCTURE
     1 JZG         1 TEMP              0 ****  ****    0 ROOT
