@<TRIPOS>MOLECULE
JZG
   68    73     1     0     0
SMALL
bcc


@<TRIPOS>ATOM
      1 C1          3.2050    0.9310   -0.7640 ca        1 JZG     -0.005200
      2 N1          4.3460    0.5120   -0.0420 na        1 JZG     -0.069400
      3 O1          1.4450    3.4820   -2.6240 oh        1 JZG     -0.542100
      4 C2          2.8990    2.1580   -1.3610 ca        1 JZG     -0.228000
      5 N2          2.7570   -3.8450   -0.1360 nc        1 JZG     -0.346000
      6 C3          1.6910    2.2530   -2.0780 ca        1 JZG      0.208100
      7 N3          1.8150   -4.6920   -0.2230 nd        1 JZG     -0.188800
      8 C4          0.8070    1.1510   -2.2160 ca        1 JZG     -0.233600
      9 N4          0.6090   -4.0680   -0.1530 na        1 JZG      0.041400
     10 O4         -3.2510   -3.5490    0.1030 o         1 JZG     -0.636100
     11 C5          1.1410   -0.0630   -1.6290 ca        1 JZG     -0.030000
     12 N5         -2.6920   -1.6700   -1.1400 n         1 JZG     -0.454100
     13 C6          2.3070   -0.1830   -0.8800 ca        1 JZG     -0.152800
     14 C7         -0.5100    1.2160   -2.9510 c         1 JZG      0.930200
     15 C8          2.8930   -1.2790   -0.1250 cc        1 JZG     -0.122000
     16 C9          4.1050   -0.8250    0.3980 cd        1 JZG     -0.019300
     17 C10         5.1610    1.4360    0.6800 c3        1 JZG      0.021600
     18 C11         5.0580   -1.5660    1.2100 ca        1 JZG     -0.012800
     19 C12         6.4210   -1.5940    0.8780 ca        1 JZG     -0.110000
     20 C13         7.3170   -2.3190    1.6610 ca        1 JZG     -0.136500
     21 C14         6.8660   -3.0240    2.7760 ca        1 JZG     -0.137000
     22 C15         5.5110   -3.0080    3.1050 ca        1 JZG     -0.136500
     23 C16         4.6080   -2.2850    2.3280 ca        1 JZG     -0.110000
     24 C17         2.2170   -2.5350   -0.0410 cc        1 JZG      0.347100
     25 C18         0.8120   -2.6870   -0.0330 cd        1 JZG     -0.220600
     26 C20        -1.4850   -3.8090   -1.4920 c3        1 JZG     -0.180400
     27 C21        -2.5500   -2.9880   -0.7700 c         1 JZG      0.652100
     28 C22        -3.6820   -0.7760   -0.6950 ca        1 JZG      0.071600
     29 C23        -3.7520    0.4990   -1.3160 ca        1 JZG     -0.165500
     30 C24        -4.7030    1.4220   -0.9130 ca        1 JZG     -0.104000
     31 C25        -5.6190    1.1230    0.1080 cp        1 JZG     -0.090000
     32 C26        -5.5510   -0.1330    0.7190 ca        1 JZG     -0.104000
     33 C27        -4.6000   -1.0730    0.3330 ca        1 JZG     -0.165500
     34 C28        -6.6170    2.1040    0.5250 cp        1 JZG     -0.006000
     35 C29        -7.9150    1.7000    0.8730 ca        1 JZG     -0.126000
     36 C30        -8.8640    2.6380    1.2720 ca        1 JZG     -0.134500
     37 C31        -8.5330    3.9910    1.3290 ca        1 JZG     -0.145000
     38 C32        -7.2450    4.4030    0.9840 ca        1 JZG     -0.134500
     39 C33        -6.2930    3.4690    0.5850 ca        1 JZG     -0.126000
     40 HO1         0.5800    3.4590   -3.0860 ho        1 JZG      0.481000
     41 H2          3.5620    3.0270   -1.2860 ha        1 JZG      0.136000
     42 H5          0.4660   -0.9220   -1.7780 ha        1 JZG      0.146000
     43 HN5        -2.0700   -1.2940   -1.8450 hn        1 JZG      0.382500
     44 H10         4.6270    1.8610    1.5730 h1        1 JZG      0.042033
     45 H10A        6.0930    0.9180    1.0310 h1        1 JZG      0.042033
     46 H10B        5.4390    2.2810   -0.0060 h1        1 JZG      0.042033
     47 H12         6.7770   -1.0570   -0.0130 ha        1 JZG      0.141000
     48 H13         8.3830   -2.3410    1.3910 ha        1 JZG      0.124000
     49 H14         7.5750   -3.5970    3.3900 ha        1 JZG      0.120000
     50 H15         5.1490   -3.5730    3.9760 ha        1 JZG      0.124000
     51 H16         3.5360   -2.2830    2.5760 ha        1 JZG      0.141000
     52 H18         0.0030   -1.9640    0.0650 h4        1 JZG      0.207000
     53 H19        -0.5000   -5.6710   -0.9420 h1        1 JZG      0.081200
     54 H19A       -1.2660   -4.7790    0.4570 h1        1 JZG      0.081200
     55 H20        -0.8200   -3.1720   -2.1330 hc        1 JZG      0.087200
     56 H20A       -2.0400   -4.5090   -2.1730 hc        1 JZG      0.087200
     57 H23        -3.0340    0.7680   -2.1240 ha        1 JZG      0.187500
     58 H24        -4.7390    2.4040   -1.4120 ha        1 JZG      0.129500
     59 H26        -6.2520   -0.3860    1.5290 ha        1 JZG      0.129500
     60 H27        -4.5790   -2.0480    0.8460 ha        1 JZG      0.187500
     61 H29        -8.1830    0.6340    0.8220 ha        1 JZG      0.138000
     62 H30        -9.8780    2.3090    1.5400 ha        1 JZG      0.122000
     63 H31        -9.2830    4.7310    1.6430 ha        1 JZG      0.120000
     64 H32        -6.9790    5.4690    1.0280 ha        1 JZG      0.122000
     65 H33        -5.2770    3.7970    0.3180 ha        1 JZG      0.138000
     66 O2         -0.9020    2.3160   -3.4400 o         1 JZG     -0.848300
     67 O3         -1.1990    0.1520   -3.0370 o         1 JZG     -0.848300
     68 C19        -0.6750   -4.6510   -0.4970 c3        1 JZG      0.054300
@<TRIPOS>BOND
     1    1    2 1   
     2    1    4 ar  
     3    1   13 ar  
     4    2   16 1   
     5    2   17 1   
     6    3    6 1   
     7    3   40 1   
     8    4    6 ar  
     9    4   41 1   
    10    5    7 2   
    11    5   24 1   
    12    6    8 ar  
    13    7    9 1   
    14    8   11 ar  
    15    8   14 1   
    16    9   25 1   
    17    9   68 1   
    18   10   27 2   
    19   11   13 ar  
    20   11   42 1   
    21   12   27 1   
    22   12   28 1   
    23   12   43 1   
    24   13   15 1   
    25   14   66 1   
    26   14   67 1   
    27   15   16 2   
    28   15   24 1   
    29   16   18 1   
    30   17   44 1   
    31   17   45 1   
    32   17   46 1   
    33   18   19 ar  
    34   18   23 ar  
    35   19   20 ar  
    36   19   47 1   
    37   20   21 ar  
    38   20   48 1   
    39   21   22 ar  
    40   21   49 1   
    41   22   23 ar  
    42   22   50 1   
    43   23   51 1   
    44   24   25 2   
    45   25   52 1   
    46   26   27 1   
    47   26   55 1   
    48   26   56 1   
    49   26   68 1   
    50   28   29 ar  
    51   28   33 ar  
    52   29   30 ar  
    53   29   57 1   
    54   30   31 ar  
    55   30   58 1   
    56   31   32 ar  
    57   31   34 1   
    58   32   33 ar  
    59   32   59 1   
    60   33   60 1   
    61   34   35 ar  
    62   34   39 ar  
    63   35   36 ar  
    64   35   61 1   
    65   36   37 ar  
    66   36   62 1   
    67   37   38 ar  
    68   37   63 1   
    69   38   39 ar  
    70   38   64 1   
    71   39   65 1   
    72   53   68 1   
    73   54   68 1   
@<TRIPOS>SUBSTRUCTURE
     1 JZG         1 TEMP              0 ****  ****    0 ROOT
