@<TRIPOS>MOLECULE
JZG
   68    56     1     0     0
SMALL
bcc


@<TRIPOS>ATOM
      1 C1          0.5270    1.2010   -6.4140 c1        1 JZG     -0.049000
      2 N1          1.8990    0.9010   -6.3970 n1        1 JZG     -0.165000
      3 O1         -2.6290    2.1370   -8.2360 oh        1 JZG     -0.296000
      4 C2         -0.3820    1.3980   -7.4770 c1        1 JZG     -0.121750
      5 N2          1.0830    2.2210   -2.1330 n2        1 JZG     -0.095000
      6 O2         -4.1610    3.0500   -5.6480 o         1 JZG     -0.583000
      7 C3         -1.7400    1.6240   -7.2080 c1        1 JZG      0.163000
      8 N3          0.7270    1.9540   -0.8490 n2        1 JZG     -0.019000
      9 O3         -4.5380    0.9500   -6.0390 o         1 JZG     -0.583000
     10 C4         -2.1940    1.6550   -5.8890 c1        1 JZG     -0.214000
     11 N4          0.3870    0.6430   -0.7710 n2        1 JZG     -0.170000
     12 O4          0.1310   -0.5450    3.1580 o         1 JZG     -0.398000
     13 C5         -1.2900    1.4590   -4.8300 c1        1 JZG     -0.121750
     14 N5         -2.0520    0.2210    3.5760 n         1 JZG     -0.307000
     15 C6          0.0780    1.2310   -5.1010 c1        1 JZG     -0.049000
     16 C7         -3.7290    1.9080   -5.8380 c2        1 JZG      0.378000
     17 C8          1.1660    0.9500   -4.2680 c1        1 JZG     -0.029000
     18 C9          2.2910    0.7470   -5.0800 c2        1 JZG     -0.001000
     19 C10         2.4490    0.8590   -7.6560 c2        1 JZG     -0.073000
     20 C11         3.6660    0.5420   -4.8350 c1        1 JZG     -0.013000
     21 C12         4.5110    1.6180   -4.7450 c1        1 JZG     -0.130750
     22 C13         5.8850    1.4190   -4.5310 c1        1 JZG     -0.130750
     23 C14         6.3940    0.1180   -4.4090 c1        1 JZG     -0.130750
     24 C15         5.5460   -0.9650   -4.4990 c1        1 JZG     -0.130750
     25 C16         4.1740   -0.7630   -4.7130 c1        1 JZG     -0.120000
     26 C17         0.9640    1.0860   -2.8420 c2        1 JZG     -0.084000
     27 C18         0.5310    0.1030   -1.9950 c1        1 JZG     -0.127000
     28 C19         0.4070    0.1510    0.5870 c2        1 JZG     -0.006000
     29 C20        -0.8210    0.6580    1.3290 c3        1 JZG     -0.209000
     30 C21        -0.8440    0.0750    2.7320 c2        1 JZG      0.296000
     31 C22        -2.0870   -0.3540    4.8800 c2        1 JZG      0.079000
     32 C23        -2.2880   -1.7220    5.0310 c2        1 JZG     -0.173000
     33 C24        -2.3230   -2.2840    6.3080 c1        1 JZG     -0.110000
     34 C25        -2.1570   -1.4740    7.4300 c1        1 JZG     -0.049000
     35 C26        -1.9540   -0.1000    7.2740 c1        1 JZG     -0.121750
     36 C27        -1.9200    0.4570    6.0040 c1        1 JZG     -0.158000
     37 C28        -2.1750   -2.0460    8.7310 c1        1 JZG     -0.049000
     38 C29        -3.3790   -2.1270    9.4440 c1        1 JZG     -0.130750
     39 C30        -3.3940   -2.6760   10.7200 c1        1 JZG     -0.130750
     40 C31        -2.2190   -3.1450   11.2880 c1        1 JZG     -0.130750
     41 C32        -1.0200   -3.0650   10.5780 c1        1 JZG     -0.130750
     42 C33        -1.0020   -2.5140    9.2980 c1        1 JZG     -0.121750
     43 HO1        -2.8560    1.4660   -8.8020 ho        1 JZG      0.280000
     44 H2         -0.1040    1.7190   -8.3540 ha        1 JZG      0.137750
     45 H5         -1.8070    1.3970   -3.9590 ha        1 JZG      0.137750
     46 HN5        -2.7750    0.6610    3.2590 hn        1 JZG      0.296000
     47 H10         3.3870    0.8370   -7.5880 ha        1 JZG      0.081333
     48 H10A        2.1700    1.6720   -8.1700 ha        1 JZG      0.081333
     49 H10B        2.1460    0.0770   -8.1090 ha        1 JZG      0.081333
     50 H12         4.1610    2.5130   -4.8280 ha        1 JZG      0.129250
     51 H13         6.4680    2.1660   -4.4690 ha        1 JZG      0.129250
     52 H14         7.3700   -0.0230   -4.2580 ha        1 JZG      0.129250
     53 H15         5.9070   -1.8880   -4.4130 ha        1 JZG      0.129250
     54 H16         3.5590   -1.5430   -4.7790 ha        1 JZG      0.138000
     55 H18         0.3620   -0.7930   -2.2270 DU        1 JZG      0.208000
     56 H19         1.2160    0.4740    1.0410 ha        1 JZG      0.120500
     57 H19A        0.4070   -0.8250    0.5800 ha        1 JZG      0.120500
     58 H20        -1.6550    0.3790    0.8360 hc        1 JZG      0.126000
     59 H20A       -0.7840    1.6350    1.3830 hc        1 JZG      0.126000
     60 H23        -2.5420   -2.2720    4.2410 ha        1 JZG      0.163000
     61 H24        -2.4380   -3.2280    6.4120 ha        1 JZG      0.121000
     62 H26        -1.8330    0.4890    8.0850 ha        1 JZG      0.137750
     63 H27        -1.7740    1.4410    5.8930 ha        1 JZG      0.212000
     64 H29        -4.2390   -1.7840    9.0300 ha        1 JZG      0.129250
     65 H30        -4.2440   -2.7340   11.2240 ha        1 JZG      0.129250
     66 H31        -2.2320   -3.5480   12.2160 ha        1 JZG      0.129250
     67 H32        -0.2010   -3.3880   10.9760 ha        1 JZG      0.129250
     68 H33        -0.1830   -2.4590    8.8150 ha        1 JZG      0.137750
@<TRIPOS>BOND
     1    1    4 1   
     2    2   18 1   
     3    3    7 1   
     4    3   43 1   
     5    4   44 1   
     6    5    8 1   
     7    5   26 1   
     8    6   16 1   
     9    7   10 1   
    10    8   11 1   
    11    9   16 1   
    12   10   16 1   
    13   11   27 1   
    14   12   30 1   
    15   13   15 1   
    16   13   45 1   
    17   14   30 1   
    18   14   31 1   
    19   14   46 1   
    20   17   18 1   
    21   17   26 1   
    22   18   20 1   
    23   19   47 1   
    24   19   48 1   
    25   19   49 1   
    26   20   25 1   
    27   21   22 1   
    28   21   50 1   
    29   22   51 1   
    30   23   24 1   
    31   23   52 1   
    32   24   53 1   
    33   25   54 1   
    34   26   27 1   
    35   28   29 1   
    36   28   56 1   
    37   28   57 1   
    38   29   30 1   
    39   29   58 1   
    40   29   59 1   
    41   31   32 1   
    42   31   36 1   
    43   32   33 1   
    44   32   60 1   
    45   33   61 1   
    46   34   35 1   
    47   35   62 1   
    48   36   63 1   
    49   37   42 1   
    50   38   39 1   
    51   38   64 1   
    52   39   65 1   
    53   40   41 1   
    54   40   66 1   
    55   41   67 1   
    56   42   68 1   
@<TRIPOS>SUBSTRUCTURE
     1 JZG         1 TEMP              0 ****  ****    0 ROOT
