@<TRIPOS>MOLECULE
JZH
   41    45     1     0     0
SMALL
bcc


@<TRIPOS>ATOM
      1 O1          0.0320   -1.3990    0.5880 oh        1 JZH     -0.497100
      2 C2          1.3340   -1.0130    0.3660 ca        1 JZH      0.126100
      3 C3          2.1760   -0.9700    1.4910 ca        1 JZH     -0.184500
      4 C4          3.5010   -0.5890    1.3260 ca        1 JZH     -0.083000
      5 C5          4.0000   -0.2430    0.0590 ca        1 JZH     -0.118300
      6 C6          3.1520   -0.2970   -1.0490 ca        1 JZH     -0.083000
      7 C7          1.8190   -0.6800   -0.9050 ca        1 JZH     -0.184500
      8 C8          5.4520    0.0780   -0.0750 c3        1 JZH      0.007800
      9 C9          5.9480    1.0780    0.9720 c         1 JZH      0.705500
     10 O10         6.8280    0.7360    1.7870 o         1 JZH     -0.643500
     11 N11         5.5220    2.3990    0.9960 ns        1 JZH     -0.464100
     12 C12         4.2640    2.8600    0.5500 ca        1 JZH      0.063600
     13 C13         3.2670    3.1480    1.5150 ca        1 JZH     -0.152000
     14 C14         2.0280    3.6450    1.1360 ca        1 JZH     -0.109000
     15 C15         1.7480    3.8670   -0.2130 ca        1 JZH     -0.134000
     16 C16         2.7200    3.6070   -1.1690 ca        1 JZH     -0.111000
     17 C17         3.9880    3.1140   -0.8110 cp        1 JZH     -0.036000
     18 C18         4.9590    2.9330   -1.8920 cp        1 JZH      0.055000
     19 C19         5.1080    3.9630   -2.8260 ca        1 JZH     -0.269300
     20 C20         5.9550    3.8030   -3.9470 ca        1 JZH      0.412200
     21 N21         6.6570    2.6990   -4.2260 nb        1 JZH     -0.669000
     22 C22         6.5270    1.6980   -3.3080 ca        1 JZH      0.418800
     23 N23         7.1440    0.4370   -3.3440 na        1 JZH     -0.282100
     24 C25         6.7820   -0.2550   -2.1940 cc        1 JZH     -0.082100
     25 C26         5.9100    0.5090   -1.4110 cd        1 JZH     -0.139400
     26 C27         5.7060    1.7640   -2.0980 ca        1 JZH     -0.159100
     27 HO1        -0.4300   -1.3900   -0.2620 ho        1 JZH      0.419000
     28 H3          1.7780   -1.2390    2.4780 ha        1 JZH      0.142500
     29 H4          4.1730   -0.5590    2.1980 ha        1 JZH      0.144000
     30 H6          3.5370   -0.0320   -2.0470 ha        1 JZH      0.144000
     31 H7          1.1570   -0.7190   -1.7810 ha        1 JZH      0.142500
     32 H8          6.0030   -0.8860    0.1750 hc        1 JZH      0.090700
     33 HN11        5.9210    2.9530    1.7290 hn        1 JZH      0.316500
     34 H13         3.4730    2.9740    2.5830 ha        1 JZH      0.139000
     35 H14         1.2660    3.8570    1.9010 ha        1 JZH      0.138000
     36 H15         0.7620    4.2500   -0.5170 ha        1 JZH      0.137000
     37 H16         2.5020    3.7880   -2.2330 ha        1 JZH      0.139000
     38 H19         4.5650    4.9090   -2.6980 ha        1 JZH      0.146000
     39 H20         6.0660    4.6260   -4.6760 h4        1 JZH      0.024100
     40 HN23        7.7890    0.1390   -4.0290 hn        1 JZH      0.313700
     41 H25         7.1730   -1.2580   -2.0020 h4        1 JZH      0.175000
@<TRIPOS>BOND
     1    1    2 1   
     2    1   27 1   
     3    2    3 ar  
     4    2    7 ar  
     5    3    4 ar  
     6    3   28 1   
     7    4    5 ar  
     8    4   29 1   
     9    5    6 ar  
    10    5    8 1   
    11    6    7 ar  
    12    6   30 1   
    13    7   31 1   
    14    8    9 1   
    15    8   25 1   
    16    8   32 1   
    17    9   10 2   
    18    9   11 1   
    19   11   12 1   
    20   11   33 1   
    21   12   13 ar  
    22   12   17 ar  
    23   13   14 ar  
    24   13   34 1   
    25   14   15 ar  
    26   14   35 1   
    27   15   16 ar  
    28   15   36 1   
    29   16   17 ar  
    30   16   37 1   
    31   17   18 1   
    32   18   19 ar  
    33   18   26 ar  
    34   19   20 ar  
    35   19   38 1   
    36   20   21 ar  
    37   20   39 1   
    38   21   22 ar  
    39   22   23 1   
    40   22   26 ar  
    41   23   24 1   
    42   23   40 1   
    43   24   25 2   
    44   24   41 1   
    45   25   26 1   
@<TRIPOS>SUBSTRUCTURE
     1 JZH         1 TEMP              0 ****  ****    0 ROOT
