@<TRIPOS>MOLECULE
JZH
   41    45     1     0     0
SMALL
bcc


@<TRIPOS>ATOM
      1 O1          0.0340   -1.3990    0.5950 oh        1 JZH     -0.497100
      2 C2          1.3360   -1.0130    0.3720 ca        1 JZH      0.126100
      3 C3          2.1770   -0.9640    1.4980 ca        1 JZH     -0.184500
      4 C4          3.5010   -0.5810    1.3330 ca        1 JZH     -0.083000
      5 C5          4.0020   -0.2400    0.0660 ca        1 JZH     -0.118300
      6 C6          3.1540   -0.3000   -1.0440 ca        1 JZH     -0.083000
      7 C7          1.8230   -0.6840   -0.8990 ca        1 JZH     -0.184500
      8 C8          5.4530    0.0830   -0.0680 c3        1 JZH      0.007800
      9 C9          5.9460    1.0870    0.9750 c         1 JZH      0.705500
     10 O10         6.8260    0.7490    1.7930 o         1 JZH     -0.643500
     11 N11         5.5190    2.4080    0.9930 n         1 JZH     -0.464100
     12 C12         4.2600    2.8650    0.5450 ca        1 JZH      0.063600
     13 C13         3.2620    3.1560    1.5070 ca        1 JZH     -0.152000
     14 C14         2.0230    3.6500    1.1250 ca        1 JZH     -0.109000
     15 C15         1.7440    3.8660   -0.2250 ca        1 JZH     -0.134000
     16 C16         2.7180    3.6030   -1.1790 ca        1 JZH     -0.111000
     17 C17         3.9860    3.1130   -0.8180 cp        1 JZH     -0.036000
     18 C18         4.9580    2.9290   -1.8970 cp        1 JZH      0.055000
     19 C19         5.1070    3.9560   -2.8350 ca        1 JZH     -0.269300
     20 C20         5.9550    3.7920   -3.9540 ca        1 JZH      0.412200
     21 N21         6.6590    2.6890   -4.2280 nb        1 JZH     -0.669000
     22 C22         6.5300    1.6910   -3.3060 ca        1 JZH      0.418800
     23 N23         7.1480    0.4300   -3.3370 na        1 JZH     -0.282100
     24 C25         6.7860   -0.2580   -2.1840 cc        1 JZH     -0.082100
     25 C26         5.9110    0.5080   -1.4050 cd        1 JZH     -0.139400
     26 C27         5.7070    1.7600   -2.0970 ca        1 JZH     -0.159100
     27 HO1        -0.4270   -1.3950   -0.2570 ho        1 JZH      0.419000
     28 H3          1.7770   -1.2300    2.4860 ha        1 JZH      0.142500
     29 H4          4.1720   -0.5470    2.2060 ha        1 JZH      0.144000
     30 H6          3.5400   -0.0390   -2.0420 ha        1 JZH      0.144000
     31 H7          1.1610   -0.7280   -1.7760 ha        1 JZH      0.142500
     32 H8          6.0050   -0.8800    0.1860 hc        1 JZH      0.090700
     33 HN11        5.9160    2.9650    1.7250 hn        1 JZH      0.316500
     34 H13         3.4670    2.9860    2.5760 ha        1 JZH      0.139000
     35 H14         1.2600    3.8640    1.8880 ha        1 JZH      0.138000
     36 H15         0.7590    4.2470   -0.5320 ha        1 JZH      0.137000
     37 H16         2.5000    3.7800   -2.2450 ha        1 JZH      0.139000
     38 H19         4.5620    4.9020   -2.7120 ha        1 JZH      0.146000
     39 H20         6.0670    4.6130   -4.6870 h4        1 JZH      0.024100
     40 HN23        7.7940    0.1300   -4.0190 hn        1 JZH      0.313700
     41 H25         7.1780   -1.2590   -1.9880 h4        1 JZH      0.175000
@<TRIPOS>BOND
     1    1    2 1   
     2    1   27 1   
     3    2    3 ar  
     4    2    7 ar  
     5    3    4 ar  
     6    3   28 1   
     7    4    5 ar  
     8    4   29 1   
     9    5    6 ar  
    10    5    8 1   
    11    6    7 ar  
    12    6   30 1   
    13    7   31 1   
    14    8    9 1   
    15    8   25 1   
    16    8   32 1   
    17    9   10 2   
    18    9   11 1   
    19   11   12 1   
    20   11   33 1   
    21   12   13 ar  
    22   12   17 ar  
    23   13   14 ar  
    24   13   34 1   
    25   14   15 ar  
    26   14   35 1   
    27   15   16 ar  
    28   15   36 1   
    29   16   17 ar  
    30   16   37 1   
    31   17   18 1   
    32   18   19 ar  
    33   18   26 ar  
    34   19   20 ar  
    35   19   38 1   
    36   20   21 ar  
    37   20   39 1   
    38   21   22 ar  
    39   22   23 1   
    40   22   26 ar  
    41   23   24 1   
    42   23   40 1   
    43   24   25 2   
    44   24   41 1   
    45   25   26 1   
@<TRIPOS>SUBSTRUCTURE
     1 JZH         1 TEMP              0 ****  ****    0 ROOT
