@<TRIPOS>MOLECULE
JZH
   41    45     1     0     0
SMALL
bcc


@<TRIPOS>ATOM
      1 O1          0.0240   -1.3960    0.5840 oh        1 JZH     -0.497100
      2 C2          1.3260   -1.0120    0.3620 ca        1 JZH      0.126100
      3 C3          2.1680   -0.9720    1.4870 ca        1 JZH     -0.184500
      4 C4          3.4940   -0.5920    1.3230 ca        1 JZH     -0.083000
      5 C5          3.9940   -0.2450    0.0570 ca        1 JZH     -0.118300
      6 C6          3.1450   -0.2970   -1.0520 ca        1 JZH     -0.083000
      7 C7          1.8120   -0.6780   -0.9080 ca        1 JZH     -0.184500
      8 C8          5.4460    0.0740   -0.0760 c3        1 JZH      0.007800
      9 C9          5.9420    1.0720    0.9720 c         1 JZH      0.705500
     10 O10         6.8220    0.7270    1.7870 o         1 JZH     -0.643500
     11 N11         5.5190    2.3940    0.9980 n         1 JZH     -0.464100
     12 C12         4.2610    2.8570    0.5530 ca        1 JZH      0.063600
     13 C13         3.2650    3.1450    1.5180 ca        1 JZH     -0.152000
     14 C14         2.0260    3.6440    1.1390 ca        1 JZH     -0.109000
     15 C15         1.7460    3.8690   -0.2090 ca        1 JZH     -0.134000
     16 C16         2.7190    3.6080   -1.1650 ca        1 JZH     -0.111000
     17 C17         3.9860    3.1130   -0.8090 cp        1 JZH     -0.036000
     18 C18         4.9570    2.9330   -1.8890 cp        1 JZH      0.055000
     19 C19         5.1070    3.9640   -2.8220 ca        1 JZH     -0.269300
     20 C20         5.9540    3.8040   -3.9430 ca        1 JZH      0.412200
     21 N21         6.6540    2.7000   -4.2240 nb        1 JZH     -0.669000
     22 C22         6.5240    1.6970   -3.3060 ca        1 JZH      0.418800
     23 N23         7.1380    0.4350   -3.3450 na        1 JZH     -0.282100
     24 C25         6.7760   -0.2580   -2.1960 cc        1 JZH     -0.082100
     25 C26         5.9040    0.5060   -1.4110 cd        1 JZH     -0.139400
     26 C27         5.7020    1.7620   -2.0960 ca        1 JZH     -0.159100
     27 HO1        -0.4390   -1.3860   -0.2670 ho        1 JZH      0.419000
     28 H3          1.7690   -1.2420    2.4750 ha        1 JZH      0.142500
     29 H4          4.1660   -0.5650    2.1960 ha        1 JZH      0.144000
     30 H6          3.5300   -0.0310   -2.0490 ha        1 JZH      0.144000
     31 H7          1.1500   -0.7140   -1.7840 ha        1 JZH      0.142500
     32 H8          5.9960   -0.8910    0.1720 hc        1 JZH      0.090700
     33 HN11        5.9180    2.9460    1.7320 hn        1 JZH      0.316500
     34 H13         3.4700    2.9690    2.5860 ha        1 JZH      0.139000
     35 H14         1.2640    3.8560    1.9040 ha        1 JZH      0.138000
     36 H15         0.7620    4.2530   -0.5130 ha        1 JZH      0.137000
     37 H16         2.5010    3.7910   -2.2300 ha        1 JZH      0.139000
     38 H19         4.5650    4.9110   -2.6930 ha        1 JZH      0.146000
     39 H20         6.0670    4.6280   -4.6710 h4        1 JZH      0.024100
     40 HN23        7.7830    0.1370   -4.0300 hn        1 JZH      0.313700
     41 H25         7.1650   -1.2620   -2.0050 h4        1 JZH      0.175000
@<TRIPOS>BOND
     1    1    2 1   
     2    1   27 1   
     3    2    3 ar  
     4    2    7 ar  
     5    3    4 ar  
     6    3   28 1   
     7    4    5 ar  
     8    4   29 1   
     9    5    6 ar  
    10    5    8 1   
    11    6    7 ar  
    12    6   30 1   
    13    7   31 1   
    14    8    9 1   
    15    8   25 1   
    16    8   32 1   
    17    9   10 2   
    18    9   11 1   
    19   11   12 1   
    20   11   33 1   
    21   12   13 ar  
    22   12   17 ar  
    23   13   14 ar  
    24   13   34 1   
    25   14   15 ar  
    26   14   35 1   
    27   15   16 ar  
    28   15   36 1   
    29   16   17 ar  
    30   16   37 1   
    31   17   18 1   
    32   18   19 ar  
    33   18   26 ar  
    34   19   20 ar  
    35   19   38 1   
    36   20   21 ar  
    37   20   39 1   
    38   21   22 ar  
    39   22   23 1   
    40   22   26 ar  
    41   23   24 1   
    42   23   40 1   
    43   24   25 2   
    44   24   41 1   
    45   25   26 1   
@<TRIPOS>SUBSTRUCTURE
     1 JZH         1 TEMP              0 ****  ****    0 ROOT
