@<TRIPOS>MOLECULE
JZI
   45    47     1     0     0
SMALL
bcc


@<TRIPOS>ATOM
      1 C1         -0.0010    0.3150   -0.7450 ce        1 JZI     -0.086200
      2 C2          1.3950    0.5660   -1.0690 ca        1 JZI     -0.067800
      3 C3          2.0700    1.6110   -0.4180 ca        1 JZI     -0.117000
      4 C4          3.4050    1.8760   -0.7090 ca        1 JZI     -0.132000
      5 C5          4.0880    1.0970   -1.6440 ca        1 JZI     -0.125000
      6 C6          3.4280    0.0510   -2.2870 ca        1 JZI     -0.132000
      7 C7          2.0900   -0.2150   -2.0030 ca        1 JZI     -0.117000
      8 C8         -3.2360    0.5820   -1.6580 c3        1 JZI     -0.057500
      9 C9         -2.2950   -0.5210   -1.1990 c3        1 JZI     -0.061200
     10 C10        -4.7280    0.2270   -1.1840 c         1 JZI      0.934600
     11 O11        -4.8530   -0.0360    0.0220 o         1 JZI     -0.759800
     12 O12        -5.5970    0.2710   -2.0980 o         1 JZI     -0.759800
     13 C13        -0.8800   -0.2750   -1.5650 c2        1 JZI     -0.202200
     14 C14         0.6530    2.2540   -9.3240 ca        1 JZI     -0.099000
     15 C15         1.3620    2.9900   -8.3440 ca        1 JZI     -0.121000
     16 C16         0.8840    3.0750   -7.0590 ca        1 JZI     -0.103000
     17 C17        -0.5220    1.6180   -9.0030 ca        1 JZI     -0.126000
     18 C18        -0.3290    2.4260   -6.7000 ca        1 JZI     -0.057000
     19 C19        -1.0400    1.6900   -7.6830 ca        1 JZI     -0.009000
     20 C20        -2.2580    1.0480   -7.3210 ca        1 JZI     -0.102000
     21 C21        -2.7390    1.1220   -6.0380 ca        1 JZI     -0.120000
     22 C22        -2.0190    1.8500   -5.0520 ca        1 JZI     -0.193600
     23 C23        -0.8450    2.5010   -5.3800 ca        1 JZI     -0.019000
     24 N25        -3.2380    0.7720   -3.1450 n4        1 JZI     -0.655800
     25 O26        -2.3600    2.9350   -2.9340 o         1 JZI     -0.442100
     26 H1         -0.3210    0.6640    0.2550 ha        1 JZI      0.139000
     27 H3          1.5370    2.2240    0.3250 ha        1 JZI      0.134000
     28 H4          3.9250    2.6990   -0.1950 ha        1 JZI      0.133500
     29 H5          5.1440    1.3040   -1.8680 ha        1 JZI      0.133000
     30 H6          3.9650   -0.5720   -3.0180 ha        1 JZI      0.133500
     31 H7          1.5810   -1.0520   -2.5040 ha        1 JZI      0.134000
     32 H8         -2.9620    1.5610   -1.1760 hx        1 JZI      0.111700
     33 H9         -2.4280   -0.5810   -0.0810 hc        1 JZI      0.088200
     34 H9A        -2.6280   -1.5100   -1.6150 hc        1 JZI      0.088200
     35 H13        -0.5770   -0.6300   -2.5640 ha        1 JZI      0.107000
     36 H17        -1.0800    1.0460   -9.7600 ha        1 JZI      0.144000
     37 H20        -2.8120    0.4940   -8.0950 ha        1 JZI      0.150000
     38 H21        -3.6970    0.6410   -5.7880 ha        1 JZI      0.141000
     39 H23        -0.2970    3.0840   -4.6190 ha        1 JZI      0.162000
     40 HN25       -2.8700   -0.0670   -3.5960 hn        1 JZI      0.467800
     41 C24        -2.5120    1.9610   -3.6660 c         1 JZI      0.559700
     42 H14         1.0560    2.2010  -10.3470 ha        1 JZI      0.144000
     43 H15         2.3010    3.4910   -8.6270 ha        1 JZI      0.145000
     44 H252       -4.2630    0.8570   -3.3960 hn        1 JZI      0.467800
     45 H16         1.4280    3.6450   -6.2890 ha        1 JZI      0.145000
@<TRIPOS>BOND
     1    1    2 1   
     2    1   13 2   
     3    1   26 1   
     4    2    3 ar  
     5    2    7 ar  
     6    3    4 ar  
     7    3   27 1   
     8    4    5 ar  
     9    4   28 1   
    10    5    6 ar  
    11    5   29 1   
    12    6    7 ar  
    13    6   30 1   
    14    7   31 1   
    15    8    9 1   
    16    8   10 1   
    17    8   24 1   
    18    8   32 1   
    19    9   13 1   
    20    9   33 1   
    21    9   34 1   
    22   10   11 1   
    23   10   12 1   
    24   13   35 1   
    25   14   15 ar  
    26   14   17 ar  
    27   14   42 1   
    28   15   16 ar  
    29   15   43 1   
    30   16   18 ar  
    31   16   45 1   
    32   17   19 ar  
    33   17   36 1   
    34   18   19 ar  
    35   18   23 ar  
    36   19   20 ar  
    37   20   21 ar  
    38   20   37 1   
    39   21   22 ar  
    40   21   38 1   
    41   22   23 ar  
    42   22   41 1   
    43   23   39 1   
    44   24   40 1   
    45   24   41 1   
    46   24   44 1   
    47   25   41 2   
@<TRIPOS>SUBSTRUCTURE
     1 JZI         1 TEMP              0 ****  ****    0 ROOT
