@<TRIPOS>MOLECULE
JZI
   44    46     1     0     0
SMALL
bcc


@<TRIPOS>ATOM
      1 C1          3.8120   -0.0580   -0.5360 ce        1 JZI     -0.196200
      2 C2          4.2300    1.2570   -0.0830 ca        1 JZI     -0.014800
      3 C3          5.4600    1.7790   -0.5170 ca        1 JZI     -0.135000
      4 C4          5.8830    3.0390   -0.1010 ca        1 JZI     -0.134000
      5 C5          5.0840    3.8010    0.7510 ca        1 JZI     -0.155000
      6 C6          3.8580    3.2950    1.1830 ca        1 JZI     -0.134000
      7 C7          3.4300    2.0350    0.7700 ca        1 JZI     -0.135000
      8 C8          1.1000   -2.5830    0.1170 c3        1 JZI     -0.049300
      9 C9          2.4710   -2.1460   -0.4170 c3        1 JZI     -0.061200
     10 C10         0.9060   -4.0940   -0.2930 c         1 JZI      0.914600
     11 O11        -0.0230   -4.3850   -1.0960 o         1 JZI     -0.824300
     12 O12         1.7120   -4.9090    0.2240 o         1 JZI     -0.824300
     13 C13         2.8820   -0.8110    0.0700 c2        1 JZI     -0.094200
     14 C14        -5.9480    2.1710    0.9020 ca        1 JZI     -0.144000
     15 C15        -6.2660    2.2180   -0.4770 ca        1 JZI     -0.134000
     16 C16        -5.4030    1.6960   -1.4070 ca        1 JZI     -0.121000
     17 C17        -4.7730    1.6000    1.3220 ca        1 JZI     -0.106000
     18 C18        -3.8590    1.0500    0.3810 ca        1 JZI     -0.047000
     19 C19        -4.1770    1.0990   -1.0010 ca        1 JZI     -0.029000
     20 C20        -3.2610    0.5520   -1.9390 ca        1 JZI     -0.138000
     21 C21        -2.0870   -0.0240   -1.5210 ca        1 JZI     -0.092000
     22 C22        -1.7700   -0.0800   -0.1390 ca        1 JZI     -0.118600
     23 C23        -2.6370    0.4540    0.7900 ca        1 JZI     -0.074000
     24 N25         0.0070   -1.7570   -0.3500 n         1 JZI     -0.508900
     25 O26         0.0940   -0.1880    1.3400 o         1 JZI     -0.660100
     26 H1          4.3260   -0.4270   -1.4400 ha        1 JZI      0.116000
     27 H3          6.0940    1.1820   -1.1890 ha        1 JZI      0.140000
     28 H4          6.8490    3.4330   -0.4450 ha        1 JZI      0.118500
     29 H5          5.4180    4.7940    1.0790 ha        1 JZI      0.115000
     30 H6          3.2230    3.8930    1.8520 ha        1 JZI      0.118500
     31 H7          2.4560    1.6470    1.1090 ha        1 JZI      0.140000
     32 H8          1.1320   -2.5380    1.2450 h1        1 JZI      0.060700
     33 H9          3.2070   -2.9200   -0.0560 hc        1 JZI      0.068700
     34 H9A         2.4750   -2.1790   -1.5380 hc        1 JZI      0.068700
     35 H13         2.3610   -0.4630    0.9830 ha        1 JZI      0.149000
     36 H16        -5.6410    1.7270   -2.4810 ha        1 JZI      0.126000
     37 H17        -4.5150    1.5560    2.3910 ha        1 JZI      0.132000
     38 H20        -3.5130    0.5980   -3.0090 ha        1 JZI      0.128000
     39 H21        -1.3820   -0.4400   -2.2590 ha        1 JZI      0.150000
     40 H23        -2.3780    0.4270    1.8620 ha        1 JZI      0.154000
     41 HN25       -0.5840   -2.2180   -1.0160 hn        1 JZI      0.333500
     42 C24        -0.4880   -0.6920    0.3470 c         1 JZI      0.652700
     43 H14        -6.6560    2.5960    1.6270 ha        1 JZI      0.123000
     44 H15        -7.2150    2.6790   -0.7900 ha        1 JZI      0.122000
@<TRIPOS>BOND
     1    1    2 1   
     2    1   13 2   
     3    1   26 1   
     4    2    3 ar  
     5    2    7 ar  
     6    3    4 ar  
     7    3   27 1   
     8    4    5 ar  
     9    4   28 1   
    10    5    6 ar  
    11    5   29 1   
    12    6    7 ar  
    13    6   30 1   
    14    7   31 1   
    15    8    9 1   
    16    8   10 1   
    17    8   24 1   
    18    8   32 1   
    19    9   13 1   
    20    9   33 1   
    21    9   34 1   
    22   10   11 1   
    23   10   12 1   
    24   13   35 1   
    25   14   15 ar  
    26   14   17 ar  
    27   14   43 1   
    28   15   16 ar  
    29   15   44 1   
    30   16   19 ar  
    31   16   36 1   
    32   17   18 ar  
    33   17   37 1   
    34   18   19 ar  
    35   18   23 ar  
    36   19   20 ar  
    37   20   21 ar  
    38   20   38 1   
    39   21   22 ar  
    40   21   39 1   
    41   22   23 ar  
    42   22   42 1   
    43   23   40 1   
    44   24   41 1   
    45   24   42 1   
    46   25   42 2   
@<TRIPOS>SUBSTRUCTURE
     1 JZI         1 TEMP              0 ****  ****    0 ROOT
