@<TRIPOS>MOLECULE
JZJ
   38    38     1     0     0
SMALL
bcc


@<TRIPOS>ATOM
      1 N1         -1.7830   -0.0320    3.5130 n8        1 JZJ     -0.343000
      2 N3          4.3730   -1.6250   -0.5550 n2        1 JZJ     -0.107000
      3 C4          3.1010   -1.1490   -0.4530 c2        1 JZJ     -0.022000
      4 C5         -0.5740    1.2560    1.7870 c2        1 JZJ     -0.097000
      5 C6          0.7660    0.6760    1.9750 c2        1 JZJ     -0.062000
      6 C7         -0.7950    2.5020    1.3360 c2        1 JZJ     -0.053000
      7 C8          1.4210    0.8120    3.1390 c2        1 JZJ     -0.189000
      8 C10         0.1100    4.6470    0.4810 c1        1 JZJ      0.214000
      9 C13         5.6380   -2.9230   -2.3070 c2        1 JZJ      0.036000
     10 C15         6.6680   -3.2850   -1.3370 c2        1 JZJ     -0.143000
     11 C17         7.0950   -4.5530   -1.2030 c2        1 JZJ     -0.075000
     12 C18         6.5430   -5.6360   -1.9960 c2        1 JZJ     -0.451000
     13 C14         5.7780   -3.2230   -3.6190 c2        1 JZJ     -0.217000
     14 C16         5.8670   -5.4710   -3.1350 c1        1 JZJ      0.203000
     15 C11         4.4490   -2.2660   -1.7960 c2        1 JZJ     -0.101000
     16 N2          2.3560   -1.4770   -1.6070 na        1 JZJ     -0.190000
     17 C12         3.1970   -2.1750   -2.4570 c2        1 JZJ     -0.125000
     18 C1          2.5740   -0.4040    0.6790 c2        1 JZJ     -0.083000
     19 C2         -1.7230    0.3410    2.1190 c3        1 JZJ     -0.037000
     20 C3          1.2820   -0.0740    0.8370 c2        1 JZJ     -0.124000
     21 C9          0.2470    3.4260    0.9540 c2        1 JZJ     -0.456000
     22 HN1        -2.3470   -0.8500    3.6270 hn        1 JZJ      0.148000
     23 H7         -1.8300    2.8760    1.2380 ha        1 JZJ      0.135000
     24 H8          0.9990    1.3810    3.9790 ha        1 JZJ      0.127000
     25 H10         2.4060    0.3640    3.3200 ha        1 JZJ      0.127000
     26 H15         7.0470   -2.4750   -0.6930 ha        1 JZJ      0.164000
     27 H17         7.8750   -4.8150   -0.4700 ha        1 JZJ      0.147000
     28 H14         6.7290   -3.5860   -4.0410 ha        1 JZJ      0.135500
     29 H16         4.9920   -3.0150   -4.3550 ha        1 JZJ      0.135500
     30 HN2         2.8750   -2.5580   -3.4240 h4        1 JZJ      0.186000
     31 H12         1.4140   -1.2420   -1.7770 hn        1 JZJ      0.256000
     32 H1         -0.8680   -0.2060    3.8830 hn        1 JZJ      0.148000
     33 H2         -1.6350   -0.5560    1.4320 h1        1 JZJ      0.072500
     34 H2A        -2.7000    0.8510    1.8740 h1        1 JZJ      0.072500
     35 H3          3.3390   -0.1220    1.4260 ha        1 JZJ      0.159000
     36 H3A         0.5150   -0.3530    0.0930 ha        1 JZJ      0.121000
     37 H9          1.2900    3.0550    1.0820 ha        1 JZJ      0.201000
     38 Br          6.7590   -7.3950   -1.3830 br        1 JZJ      0.088000
@<TRIPOS>BOND
     1    1   19 1   
     2    1   22 1   
     3    1   32 1   
     4    2    3 1   
     5    2   15 1   
     6    3   16 1   
     7    3   18 1   
     8    4    5 1   
     9    4    6 1   
    10    4   19 1   
    11    5    7 1   
    12    5   20 1   
    13    6   21 1   
    14    6   23 1   
    15    7   24 1   
    16    7   25 1   
    17    8   21 1   
    18    9   10 1   
    19    9   13 1   
    20    9   15 1   
    21   10   11 1   
    22   10   26 1   
    23   11   12 1   
    24   11   27 1   
    25   12   14 1   
    26   12   38 1   
    27   13   28 1   
    28   13   29 1   
    29   15   17 1   
    30   16   17 1   
    31   16   31 1   
    32   17   30 1   
    33   18   20 1   
    34   18   35 1   
    35   19   33 1   
    36   19   34 1   
    37   20   36 1   
    38   21   37 1   
@<TRIPOS>SUBSTRUCTURE
     1 JZJ         1 TEMP              0 ****  ****    0 ROOT
