@<TRIPOS>MOLECULE
JZJ
   38    41     1     0     0
SMALL
bcc


@<TRIPOS>ATOM
      1 N1          3.8810    1.5880   -0.6160 n3        1 JZJ     -0.829200
      2 N3          0.4840    0.2740   -0.5000 nc        1 JZJ     -0.653000
      3 C4          1.6410    0.8030   -0.0320 cd        1 JZJ      0.387800
      4 C5          5.8310    0.0500   -0.3820 ca        1 JZJ     -0.083300
      5 C6          5.0440   -0.8450    0.3550 ca        1 JZJ     -0.069300
      6 C7          7.1940   -0.2080   -0.5640 ca        1 JZJ     -0.125000
      7 C8          5.6310   -1.9930    0.9000 ca        1 JZJ     -0.125000
      8 C10         6.9880   -2.2450    0.7150 ca        1 JZJ     -0.126000
      9 C13        -1.9570    0.6580    0.0040 ca        1 JZJ     -0.082500
     10 C15        -2.3910   -0.4710   -0.7070 ca        1 JZJ     -0.119500
     11 C17        -3.7510   -0.7180   -0.8780 ca        1 JZJ     -0.105000
     12 C18        -4.6980    0.1580   -0.3410 ca        1 JZJ     -0.029900
     13 C14        -2.9160    1.5350    0.5360 ca        1 JZJ     -0.119500
     14 C16        -4.2750    1.2870    0.3670 ca        1 JZJ     -0.105000
     15 C11        -0.5460    0.9260    0.1960 cc        1 JZJ      0.341800
     16 N2          1.3920    1.7770    0.9500 na        1 JZJ     -0.292900
     17 C12         0.0160    1.8650    1.0970 cd        1 JZJ     -0.232600
     18 C1          3.0350    0.4060   -0.4590 c3        1 JZJ      0.150200
     19 C2          5.2450    1.2810   -1.0060 c3        1 JZJ      0.209100
     20 C3          3.6020   -0.5710    0.5860 c3        1 JZJ     -0.031100
     21 C9          7.7710   -1.3510   -0.0170 ca        1 JZJ     -0.128000
     22 HN1         3.4700    2.2090   -1.2890 hn        1 JZJ      0.371800
     23 H7          7.8090    0.4980   -1.1420 ha        1 JZJ      0.132000
     24 H8          5.0130   -2.6980    1.4760 ha        1 JZJ      0.134000
     25 H10         7.4430   -3.1500    1.1450 ha        1 JZJ      0.133000
     26 H15        -1.6560   -1.1700   -1.1370 ha        1 JZJ      0.144000
     27 H17        -4.0720   -1.6090   -1.4390 ha        1 JZJ      0.145000
     28 H14        -2.5960    2.4300    1.0890 ha        1 JZJ      0.144000
     29 H16        -5.0110    1.9870    0.7930 ha        1 JZJ      0.145000
     30 HN2         2.0770    2.3130    1.4160 hn        1 JZJ      0.315700
     31 H12        -0.4560    2.5470    1.8020 h4        1 JZJ      0.180000
     32 H1          2.9420   -0.1600   -1.4390 h1        1 JZJ      0.062700
     33 H2          5.3440    1.1670   -2.1280 h1        1 JZJ      0.045700
     34 H2A         5.8660    2.1740   -0.7020 h1        1 JZJ      0.045700
     35 H3          3.0070   -1.5200    0.5340 hc        1 JZJ      0.066200
     36 H3A         3.4760   -0.1450    1.6180 hc        1 JZJ      0.066200
     37 H9          8.8430   -1.5490   -0.1630 ha        1 JZJ      0.133000
     38 BR         -6.5270   -0.1760   -0.5680 br        1 JZJ     -0.094100
@<TRIPOS>BOND
     1    1   18 1   
     2    1   19 1   
     3    1   22 1   
     4    2    3 2   
     5    2   15 1   
     6    3   16 1   
     7    3   18 1   
     8    4    5 ar  
     9    4    6 ar  
    10    4   19 1   
    11    5    7 ar  
    12    5   20 1   
    13    6   21 ar  
    14    6   23 1   
    15    7    8 ar  
    16    7   24 1   
    17    8   21 ar  
    18    8   25 1   
    19    9   10 ar  
    20    9   13 ar  
    21    9   15 1   
    22   10   11 ar  
    23   10   26 1   
    24   11   12 ar  
    25   11   27 1   
    26   12   14 ar  
    27   12   38 1   
    28   13   14 ar  
    29   13   28 1   
    30   14   29 1   
    31   15   17 2   
    32   16   17 1   
    33   16   30 1   
    34   17   31 1   
    35   18   20 1   
    36   18   32 1   
    37   19   33 1   
    38   19   34 1   
    39   20   35 1   
    40   20   36 1   
    41   21   37 1   
@<TRIPOS>SUBSTRUCTURE
     1 JZJ         1 TEMP              0 ****  ****    0 ROOT
