@<TRIPOS>MOLECULE
JZJ
   38    38     1     0     0
SMALL
bcc


@<TRIPOS>ATOM
      1 N1         -1.3410   -0.6450    1.7790 n3        1 JZJ     -0.334000
      2 N3          3.1810   -2.2460   -0.4680 n2        1 JZJ     -0.114000
      3 C4          2.2260   -1.3440   -0.8210 c2        1 JZJ     -0.015000
      4 C5          0.0520    1.4670    1.7270 c2        1 JZJ     -0.131000
      5 C6          1.1740    0.6760    2.2470 c2        1 JZJ     -0.067000
      6 C7          0.1240    2.7940    1.5080 c2        1 JZJ     -0.071000
      7 C8          1.5930    0.8180    3.5160 c2        1 JZJ     -0.184000
      8 C10         1.4450    4.8930    1.5310 c1        1 JZJ      0.210000
      9 C13         4.5200   -3.9800   -1.7170 c2        1 JZJ      0.038000
     10 C15         5.4640   -4.0860   -0.6080 c2        1 JZJ     -0.143000
     11 C17         6.7930   -4.0260   -0.8060 c2        1 JZJ     -0.074000
     12 C18         7.3630   -3.8310   -2.1260 c2        1 JZJ     -0.452000
     13 C14         4.6000   -4.8120   -2.7810 c2        1 JZJ     -0.218000
     14 C16         6.7120   -4.0490   -3.2720 c1        1 JZJ      0.204000
     15 C11         3.5260   -2.9250   -1.6430 c2        1 JZJ     -0.102000
     16 N2          1.9510   -1.4270   -2.2050 na        1 JZJ     -0.193000
     17 C12         2.7640   -2.4180   -2.7270 c2        1 JZJ     -0.122000
     18 C1          1.5430   -0.4000    0.0490 c2        1 JZJ     -0.108000
     19 C2         -1.2450    0.7480    1.4400 c3        1 JZJ     -0.046000
     20 C3          1.8340   -0.2700    1.3540 c2        1 JZJ     -0.091000
     21 C9          1.2990    3.6000    1.7360 c2        1 JZJ     -0.455000
     22 HN1        -0.6300   -1.1770    1.3140 hn        1 JZJ      0.148500
     23 H7         -0.7610    3.3300    1.1220 ha        1 JZJ      0.130000
     24 H8          1.1250    1.5280    4.2100 ha        1 JZJ      0.124000
     25 H10         2.4240    0.2300    3.9280 ha        1 JZJ      0.124000
     26 H15         5.0330   -4.1760    0.4020 ha        1 JZJ      0.162000
     27 H17         7.4980   -4.1110    0.0370 ha        1 JZJ      0.146000
     28 H14         5.2470   -5.7040   -2.7830 ha        1 JZJ      0.135500
     29 H16         3.9420   -4.7130   -3.6530 ha        1 JZJ      0.135500
     30 HN2         2.7650   -2.6870   -3.7820 h4        1 JZJ      0.186000
     31 H12         1.3080   -0.8700   -2.7020 hn        1 JZJ      0.257000
     32 H1         -1.2500   -0.7830    2.7660 hn        1 JZJ      0.148500
     33 H2         -1.4540    0.8430    0.3330 h1        1 JZJ      0.098000
     34 H2A        -2.0720    1.2920    1.9850 h1        1 JZJ      0.098000
     35 H3          0.7600    0.2180   -0.4260 ha        1 JZJ      0.136000
     36 H3A         2.6230   -0.8880    1.8220 ha        1 JZJ      0.152000
     37 H9          2.1860    3.0530    2.1340 ha        1 JZJ      0.201000
     38 BR          9.1250   -3.2030   -2.2580 br        1 JZJ      0.088000
@<TRIPOS>BOND
     1    1   19 1   
     2    1   22 1   
     3    1   32 1   
     4    2    3 1   
     5    2   15 1   
     6    3   16 1   
     7    3   18 1   
     8    4    5 1   
     9    4    6 1   
    10    4   19 1   
    11    5    7 1   
    12    5   20 1   
    13    6   21 1   
    14    6   23 1   
    15    7   24 1   
    16    7   25 1   
    17    8   21 1   
    18    9   10 1   
    19    9   13 1   
    20    9   15 1   
    21   10   11 1   
    22   10   26 1   
    23   11   12 1   
    24   11   27 1   
    25   12   14 1   
    26   12   38 1   
    27   13   28 1   
    28   13   29 1   
    29   15   17 1   
    30   16   17 1   
    31   16   31 1   
    32   17   30 1   
    33   18   20 1   
    34   18   35 1   
    35   19   33 1   
    36   19   34 1   
    37   20   36 1   
    38   21   37 1   
@<TRIPOS>SUBSTRUCTURE
     1 JZJ         1 TEMP              0 ****  ****    0 ROOT
