@<TRIPOS>MOLECULE
JZJ
   38    32     1     0     0
SMALL
bcc


@<TRIPOS>ATOM
      1 N1         -1.7080    0.3340    0.8420 n3        1 JZJ     -0.308000
      2 N3          0.1430   -0.5100   -1.2720 n2        1 JZJ     -0.153000
      3 C4          0.2670   -0.8390    0.0400 c1        1 JZJ     -0.058000
      4 C5         -1.7410    1.5720    3.0510 c1        1 JZJ     -0.076000
      5 C6         -0.4140    1.0410    3.3430 c1        1 JZJ     -0.062000
      6 C7         -2.4060    2.3010    4.0000 c1        1 JZJ     -0.125000
      7 C8          0.1670    1.2730    4.5740 c1        1 JZJ     -0.125000
      8 C10        -0.5130    2.0150    5.5410 c1        1 JZJ     -0.127000
      9 C13         1.0760   -1.3440   -3.3620 c1        1 JZJ      0.025000
     10 C15         0.3260   -2.1780   -4.1840 c1        1 JZJ     -0.132000
     11 C17         0.5050   -2.1440   -5.5600 c1        1 JZJ     -0.104000
     12 BR          1.5520   -1.1220   -8.0070 br        1 JZJ      0.046000
     13 C18         1.4240   -1.2830   -6.1150 c2        1 JZJ     -0.170000
     14 C14         1.9960   -0.4820   -3.9130 c1        1 JZJ     -0.107000
     15 C16         2.1760   -0.4460   -5.2940 c2        1 JZJ     -0.106000
     16 C11         0.8880   -1.3730   -1.9900 c1        1 JZJ     -0.118500
     17 N2          1.0950   -1.9110    0.1260 n2        1 JZJ     -0.153000
     18 C12         1.4790   -2.2430   -1.1200 c1        1 JZJ     -0.118500
     19 C1         -0.2710    0.3750    0.8890 c2        1 JZJ      0.047000
     20 C2         -2.3930    1.2190    1.6130 c3        1 JZJ     -0.034000
     21 C3          0.3390    0.3120    2.2030 c3        1 JZJ     -0.117000
     22 C9         -1.8040    2.5350    5.2610 c1        1 JZJ     -0.127000
     23 HN1        -1.9980    0.4060   -0.0640 hn        1 JZJ      0.166000
     24 H7         -3.2970    2.6600    3.8090 ha        1 JZJ      0.132000
     25 H8          1.0560    0.9180    4.7670 ha        1 JZJ      0.134000
     26 H10        -0.1160    2.1700    6.3790 ha        1 JZJ      0.133000
     27 H15        -0.3080   -2.7720   -3.8040 ha        1 JZJ      0.131000
     28 H17        -0.0010   -2.7060   -6.1130 ha        1 JZJ      0.144000
     29 H14         2.5450    0.1290   -3.3120 ha        1 JZJ      0.157000
     30 H16         2.8430    0.1800   -5.6960 ha        1 JZJ      0.146000
     31 HN2         1.3420   -2.3260    0.8790 DU        1 JZJ      0.223000
     32 H12         2.1030   -3.0090   -1.3720 DU        1 JZJ      0.223000
     33 H1          0.0280    1.2080    0.4560 h4        1 JZJ      0.102000
     34 H2         -3.3110    0.8270    1.7860 h1        1 JZJ      0.085000
     35 H2A        -2.4620    2.0450    1.1150 h1        1 JZJ      0.085000
     36 H3          1.2540    0.7260    2.1350 hc        1 JZJ      0.105500
     37 H3A         0.4020   -0.6010    2.4430 hc        1 JZJ      0.105500
     38 H9         -2.2660    3.0440    5.9250 ha        1 JZJ      0.133000
@<TRIPOS>BOND
     1    1   19 1   
     2    1   20 1   
     3    1   23 1   
     4    2    3 1   
     5    2   16 1   
     6    3   17 1   
     7    4    6 1   
     8    4   20 1   
     9    5    7 1   
    10    5   21 1   
    11    6   24 1   
    12    7   25 1   
    13    8   22 1   
    14    8   26 1   
    15    9   10 1   
    16   10   27 1   
    17   11   13 1   
    18   11   28 1   
    19   12   13 1   
    20   13   15 1   
    21   14   15 1   
    22   14   29 1   
    23   15   30 1   
    24   16   18 1   
    25   17   18 1   
    26   19   21 1   
    27   19   33 1   
    28   20   34 1   
    29   20   35 1   
    30   21   36 1   
    31   21   37 1   
    32   22   38 1   
@<TRIPOS>SUBSTRUCTURE
     1 JZJ         1 TEMP              0 ****  ****    0 ROOT
