@<TRIPOS>MOLECULE
JZJ
   38    39     1     0     0
SMALL
bcc


@<TRIPOS>ATOM
      1 N1         -1.9800   -0.1360    2.8860 n3        1 JZJ     -0.343000
      2 N3          3.5090   -1.8600   -0.5060 n2        1 JZJ     -0.115000
      3 C4          2.4740   -1.0470   -0.8460 c2        1 JZJ     -0.006000
      4 C5         -0.2260    1.1890    1.7560 c2        1 JZJ     -0.096000
      5 C6          0.9450    0.4860    2.3000 c2        1 JZJ     -0.072000
      6 C7         -0.2240    2.4810    1.3850 c2        1 JZJ     -0.057000
      7 C8          1.2070    0.5020    3.6170 c2        1 JZJ     -0.180000
      8 C10         1.0240    4.6030    1.0750 c1        1 JZJ      0.213000
      9 C13         5.1510   -3.2570   -1.8160 c2        1 JZJ      0.036000
     10 C15         5.8230   -3.7360   -0.7300 c2        1 JZJ     -0.185000
     11 C17         6.9270   -4.6340   -0.8860 c2        1 JZJ      0.020000
     12 C18         7.3370   -5.0370   -2.1310 c2        1 JZJ     -0.277000
     13 C14         5.5680   -3.6700   -3.1840 c3        1 JZJ     -0.204000
     14 C16         6.6940   -4.5860   -3.3100 c1        1 JZJ     -0.067000
     15 C11         4.0320   -2.3500   -1.7110 c2        1 JZJ     -0.115000
     16 N2          2.3160   -1.0040   -2.2510 na        1 JZJ     -0.192000
     17 C12         3.2920   -1.8170   -2.7990 c2        1 JZJ     -0.122000
     18 C1          1.6060   -0.3000    0.0510 c2        1 JZJ     -0.115000
     19 C2         -1.4760    0.3570    1.6250 c3        1 JZJ     -0.039000
     20 C3          1.8000   -0.2530    1.3800 c2        1 JZJ     -0.079000
     21 C9          0.9360    3.3400    1.4390 c2        1 JZJ     -0.457000
     22 HN1        -2.5970   -0.9090    2.7320 hn        1 JZJ      0.148500
     23 H7         -1.1520    2.9480    1.0090 ha        1 JZJ      0.134000
     24 H8          0.5770    1.0490    4.3310 ha        1 JZJ      0.127000
     25 H10         2.0650   -0.0290    4.0500 ha        1 JZJ      0.127000
     26 H15         5.5380   -3.4480    0.2940 ha        1 JZJ      0.158000
     27 H17         7.4250   -4.9830    0.0350 ha        1 JZJ      0.145000
     28 H14         5.8320   -2.7540   -3.7930 hc        1 JZJ      0.163500
     29 H16         4.6970   -4.1600   -3.7150 hc        1 JZJ      0.163500
     30 HN2         3.4040   -1.9680   -3.8720 h4        1 JZJ      0.185000
     31 H12         1.6420   -0.4790   -2.7430 hn        1 JZJ      0.258000
     32 H1         -1.2330   -0.4240    3.4880 hn        1 JZJ      0.148500
     33 H2         -1.2370   -0.4760    0.8950 h1        1 JZJ      0.073000
     34 H2A        -2.3000    0.9760    1.1630 h1        1 JZJ      0.073000
     35 H3          0.7660    0.2370   -0.4230 ha        1 JZJ      0.136000
     36 H3A         2.6450   -0.7900    1.8490 ha        1 JZJ      0.150000
     37 H9          1.8640    2.8720    1.8430 ha        1 JZJ      0.202000
     38 BR          8.7800   -6.2120   -2.3290 br        1 JZJ      0.060000
@<TRIPOS>BOND
     1    1   19 1   
     2    1   22 1   
     3    1   32 1   
     4    2    3 1   
     5    2   15 1   
     6    3   16 1   
     7    3   18 1   
     8    4    5 1   
     9    4    6 1   
    10    4   19 1   
    11    5    7 1   
    12    5   20 1   
    13    6   21 1   
    14    6   23 1   
    15    7   24 1   
    16    7   25 1   
    17    8   21 1   
    18    9   10 1   
    19    9   13 1   
    20    9   15 1   
    21   10   11 1   
    22   10   26 1   
    23   11   12 1   
    24   11   27 1   
    25   12   14 1   
    26   12   38 1   
    27   13   14 1   
    28   13   28 1   
    29   13   29 1   
    30   15   17 1   
    31   16   17 1   
    32   16   31 1   
    33   17   30 1   
    34   18   20 1   
    35   18   35 1   
    36   19   33 1   
    37   19   34 1   
    38   20   36 1   
    39   21   37 1   
@<TRIPOS>SUBSTRUCTURE
     1 JZJ         1 TEMP              0 ****  ****    0 ROOT
