@<TRIPOS>MOLECULE
JZK
   54    57     1     0     0
SMALL
bcc


@<TRIPOS>ATOM
      1 N1         -0.0550   -0.3110    0.3140 nz        1 JZK     -0.764400
      2 C2          1.4660   -0.1610    0.2470 c         1 JZK      0.581700
      3 O3          1.9780   -0.1020    1.3570 o         1 JZK     -0.439100
      4 C4          2.0650   -0.1160   -1.0690 ca        1 JZK     -0.236600
      5 C5          1.3170   -0.1730   -2.2690 ca        1 JZK     -0.104000
      6 C6          1.9310   -0.1270   -3.5080 ca        1 JZK     -0.116000
      7 C7          3.3290   -0.0220   -3.5530 ca        1 JZK     -0.009200
      8 N8          4.2360    0.0110   -4.6040 na        1 JZK     -0.167300
      9 C9          3.9340    0.0750   -6.0070 c3        1 JZK      0.034300
     10 C10         4.0250    1.4690   -6.6480 c3        1 JZK     -0.089700
     11 C11         3.9890    1.3050   -8.1620 c3        1 JZK     -0.073900
     12 C12         4.0400    2.6530   -8.8530 c3        1 JZK     -0.077400
     13 C13         2.9230    3.5600   -8.3810 c3        1 JZK     -0.080400
     14 C14         2.9400    3.7120   -6.8740 c3        1 JZK     -0.077400
     15 C15         2.8870    2.3650   -6.1830 c3        1 JZK     -0.073900
     16 C16         5.5450    0.1460   -3.9960 cc        1 JZK      0.654700
     17 N17         6.6910    0.3380   -4.7570 nu        1 JZK     -0.775200
     18 C18         7.9770    0.1330   -4.1090 c3        1 JZK      0.247100
     19 C19         9.1100    0.1260   -5.0920 ca        1 JZK     -0.115300
     20 C20        10.0420    1.1690   -5.0690 ca        1 JZK     -0.096000
     21 C21        11.1350    1.1600   -5.9350 ca        1 JZK     -0.122000
     22 C22        11.3040    0.1110   -6.8370 ca        1 JZK     -0.103000
     23 C23        10.3810   -0.9330   -6.8780 ca        1 JZK     -0.118000
     24 C24         9.2860   -0.9220   -6.0080 ca        1 JZK      0.018400
     25 Cl25        8.1730   -2.2110   -6.0780 cl        1 JZK     -0.104400
     26 N26         5.4800    0.1400   -2.6250 nd        1 JZK     -0.601100
     27 C27         4.1150    0.0410   -2.3220 ca        1 JZK      0.086400
     28 C28         3.4710   -0.0070   -1.0900 ca        1 JZK      0.014000
     29 HN1        -0.3540   -0.3440    1.2950 hn        1 JZK      0.462133
     30 HN1A       -0.3380   -1.1730   -0.1570 hn        1 JZK      0.462133
     31 H5          0.2210   -0.2520   -2.2550 ha        1 JZK      0.114000
     32 H6          1.3360   -0.1670   -4.4340 ha        1 JZK      0.161000
     33 H9          4.6480   -0.6180   -6.5420 h1        1 JZK      0.070200
     34 H9A         2.8890   -0.3260   -6.1520 h1        1 JZK      0.070200
     35 H10         5.0020    1.9530   -6.3650 hc        1 JZK      0.072700
     36 H11         3.0500    0.7670   -8.4580 hc        1 JZK      0.040450
     37 H11A        4.8590    0.6810   -8.4960 hc        1 JZK      0.040450
     38 H12         3.9610    2.5030   -9.9610 hc        1 JZK      0.049700
     39 H12A        5.0300    3.1400   -8.6490 hc        1 JZK      0.049700
     40 H13         1.9360    3.1380   -8.7050 hc        1 JZK      0.048700
     41 H13A        3.0320    4.5680   -8.8610 hc        1 JZK      0.048700
     42 H14         3.8710    4.2550   -6.5620 hc        1 JZK      0.049700
     43 H14A        2.0640    4.3310   -6.5480 hc        1 JZK      0.049700
     44 H15         1.9060    1.8680   -6.4070 hc        1 JZK      0.040450
     45 H15A        2.9490    2.5120   -5.0740 hc        1 JZK      0.040450
     46 HN17        6.6370    0.0400   -5.7110 hn        1 JZK      0.434800
     47 H18         8.1130    0.9730   -3.3660 h1        1 JZK      0.077200
     48 H18A        7.9900   -0.8390   -3.5320 h1        1 JZK      0.077200
     49 H20         9.9120    2.0000   -4.3590 ha        1 JZK      0.146000
     50 H21        11.8650    1.9840   -5.9040 ha        1 JZK      0.149000
     51 H22        12.1680    0.1010   -7.5200 ha        1 JZK      0.151000
     52 H23        10.5150   -1.7640   -7.5890 ha        1 JZK      0.157000
     53 H28         4.0470    0.0390   -0.1500 ha        1 JZK      0.183000
     54 H131       -0.5010    0.4840   -0.1500 hn        1 JZK      0.462133
@<TRIPOS>BOND
     1    1    2 1   
     2    1   29 1   
     3    1   30 1   
     4    1   54 1   
     5    2    3 2   
     6    2    4 1   
     7    4    5 ar  
     8    4   28 ar  
     9    5    6 ar  
    10    5   31 1   
    11    6    7 ar  
    12    6   32 1   
    13    7    8 1   
    14    7   27 ar  
    15    8    9 1   
    16    8   16 1   
    17    9   10 1   
    18    9   33 1   
    19    9   34 1   
    20   10   11 1   
    21   10   15 1   
    22   10   35 1   
    23   11   12 1   
    24   11   36 1   
    25   11   37 1   
    26   12   13 1   
    27   12   38 1   
    28   12   39 1   
    29   13   14 1   
    30   13   40 1   
    31   13   41 1   
    32   14   15 1   
    33   14   42 1   
    34   14   43 1   
    35   15   44 1   
    36   15   45 1   
    37   16   17 1   
    38   16   26 2   
    39   17   18 1   
    40   17   46 1   
    41   18   19 1   
    42   18   47 1   
    43   18   48 1   
    44   19   20 ar  
    45   19   24 ar  
    46   20   21 ar  
    47   20   49 1   
    48   21   22 ar  
    49   21   50 1   
    50   22   23 ar  
    51   22   51 1   
    52   23   24 ar  
    53   23   52 1   
    54   24   25 1   
    55   26   27 1   
    56   27   28 ar  
    57   28   53 1   
@<TRIPOS>SUBSTRUCTURE
     1 JZK         1 TEMP              0 ****  ****    0 ROOT
