@<TRIPOS>MOLECULE
JZK
   54    57     1     0     0
SMALL
bcc


@<TRIPOS>ATOM
      1 N1         -0.0600   -0.3090    0.3090 n4        1 JZK     -0.764400
      2 C2          1.4610   -0.1640    0.2440 c         1 JZK      0.581700
      3 O3          1.9730   -0.1080    1.3540 o         1 JZK     -0.439100
      4 C4          2.0610   -0.1170   -1.0720 ca        1 JZK     -0.236600
      5 C5          1.3140   -0.1700   -2.2720 ca        1 JZK     -0.104000
      6 C6          1.9280   -0.1230   -3.5110 ca        1 JZK     -0.116000
      7 C7          3.3260   -0.0210   -3.5550 ca        1 JZK     -0.010200
      8 N8          4.2340    0.0120   -4.6060 na        1 JZK     -0.167300
      9 C9          3.9330    0.0790   -6.0090 c3        1 JZK      0.034300
     10 C10         4.0270    1.4740   -6.6470 c3        1 JZK     -0.089700
     11 C11         3.9900    1.3130   -8.1620 c3        1 JZK     -0.073900
     12 C12         4.0460    2.6620   -8.8500 c3        1 JZK     -0.077400
     13 C13         2.9320    3.5720   -8.3760 c3        1 JZK     -0.080400
     14 C14         2.9500    3.7210   -6.8690 c3        1 JZK     -0.077400
     15 C15         2.8920    2.3720   -6.1810 c3        1 JZK     -0.073900
     16 C16         5.5430    0.1420   -3.9980 cc        1 JZK      0.654700
     17 N17         6.6900    0.3330   -4.7580 nh        1 JZK     -0.775200
     18 C18         7.9750    0.1250   -4.1090 c3        1 JZK      0.247100
     19 C19         9.1080    0.1160   -5.0910 ca        1 JZK     -0.115300
     20 C20        10.0420    1.1570   -5.0660 ca        1 JZK     -0.096000
     21 C21        11.1360    1.1480   -5.9310 ca        1 JZK     -0.122000
     22 C22        11.3030    0.0990   -6.8350 ca        1 JZK     -0.103000
     23 C23        10.3780   -0.9430   -6.8780 ca        1 JZK     -0.118000
     24 C24         9.2830   -0.9300   -6.0090 ca        1 JZK      0.018400
     25 CL25        8.1670   -2.2180   -6.0810 cl        1 JZK     -0.104400
     26 N26         5.4770    0.1340   -2.6260 nd        1 JZK     -0.601100
     27 C27         4.1120    0.0370   -2.3240 ca        1 JZK      0.086400
     28 C28         3.4670   -0.0110   -1.0920 ca        1 JZK      0.014000
     29 HN1        -0.5030    0.4880   -0.1530 hn        1 JZK      0.462133
     30 HN1A       -0.3590   -0.3430    1.2910 hn        1 JZK      0.462133
     31 H5          0.2170   -0.2470   -2.2590 ha        1 JZK      0.114000
     32 H6          1.3330   -0.1610   -4.4370 ha        1 JZK      0.161000
     33 H9          4.6450   -0.6150   -6.5450 h1        1 JZK      0.070200
     34 H9A         2.8870   -0.3190   -6.1550 h1        1 JZK      0.070200
     35 H10         5.0060    1.9550   -6.3640 hc        1 JZK      0.072700
     36 H11         4.8580    0.6870   -8.4970 hc        1 JZK      0.040450
     37 H11A        3.0500    0.7780   -8.4590 hc        1 JZK      0.040450
     38 H12         5.0370    3.1450   -8.6450 hc        1 JZK      0.049700
     39 H12A        3.9660    2.5140   -9.9590 hc        1 JZK      0.049700
     40 H13         3.0430    4.5800   -8.8540 hc        1 JZK      0.048700
     41 H13A        1.9430    3.1540   -8.7000 hc        1 JZK      0.048700
     42 H14         3.8820    4.2600   -6.5560 hc        1 JZK      0.049700
     43 H14A        2.0750    4.3420   -6.5420 hc        1 JZK      0.049700
     44 H15         1.9090    1.8790   -6.4050 hc        1 JZK      0.040450
     45 H15A        2.9550    2.5170   -5.0710 hc        1 JZK      0.040450
     46 HN17        6.6350    0.0360   -5.7120 hn        1 JZK      0.433800
     47 H18         8.1120    0.9630   -3.3640 h1        1 JZK      0.077200
     48 H18A        7.9860   -0.8490   -3.5330 h1        1 JZK      0.077200
     49 H20         9.9140    1.9880   -4.3550 ha        1 JZK      0.146000
     50 H21        11.8670    1.9700   -5.8990 ha        1 JZK      0.149000
     51 H22        12.1680    0.0890   -7.5170 ha        1 JZK      0.151000
     52 H23        10.5110   -1.7720   -7.5900 ha        1 JZK      0.157000
     53 H28         4.0430    0.0320   -0.1510 ha        1 JZK      0.183000
     54 H131       -0.3450   -1.1700   -0.1630 hn        1 JZK      0.462133
@<TRIPOS>BOND
     1    1    2 1   
     2    1   29 1   
     3    1   30 1   
     4    1   54 1   
     5    2    3 2   
     6    2    4 1   
     7    4    5 ar  
     8    4   28 ar  
     9    5    6 ar  
    10    5   31 1   
    11    6    7 ar  
    12    6   32 1   
    13    7    8 1   
    14    7   27 ar  
    15    8    9 1   
    16    8   16 1   
    17    9   10 1   
    18    9   33 1   
    19    9   34 1   
    20   10   11 1   
    21   10   15 1   
    22   10   35 1   
    23   11   12 1   
    24   11   36 1   
    25   11   37 1   
    26   12   13 1   
    27   12   38 1   
    28   12   39 1   
    29   13   14 1   
    30   13   40 1   
    31   13   41 1   
    32   14   15 1   
    33   14   42 1   
    34   14   43 1   
    35   15   44 1   
    36   15   45 1   
    37   16   17 1   
    38   16   26 2   
    39   17   18 1   
    40   17   46 1   
    41   18   19 1   
    42   18   47 1   
    43   18   48 1   
    44   19   20 ar  
    45   19   24 ar  
    46   20   21 ar  
    47   20   49 1   
    48   21   22 ar  
    49   21   50 1   
    50   22   23 ar  
    51   22   51 1   
    52   23   24 ar  
    53   23   52 1   
    54   24   25 1   
    55   26   27 1   
    56   27   28 ar  
    57   28   53 1   
@<TRIPOS>SUBSTRUCTURE
     1 JZK         1 TEMP              0 ****  ****    0 ROOT
