@<TRIPOS>MOLECULE
JZK
   55    58     1     0     0
SMALL
bcc


@<TRIPOS>ATOM
      1 N1          0.0440   -0.3080    0.4620 n4        1 JZK     -0.756400
      2 C2          1.5220    0.0180    0.3680 c         1 JZK      0.568700
      3 O3          2.0470    0.2250    1.4520 o         1 JZK     -0.398100
      4 C4          2.1380    0.0480   -0.9570 ca        1 JZK     -0.215600
      5 C5          1.4280   -0.2250   -2.1560 ca        1 JZK     -0.071000
      6 C6          2.0390   -0.1890   -3.3920 ca        1 JZK     -0.100000
      7 C7          3.4110    0.1320   -3.4430 ca        1 JZK      0.005800
      8 N8          4.3170    0.2320   -4.4940 na        1 JZK     -0.108300
      9 C9          4.0500    0.1130   -5.9070 c3        1 JZK      0.005300
     10 C10         4.0040    1.4360   -6.6870 c3        1 JZK     -0.082700
     11 C11         4.0600    1.1140   -8.1770 c3        1 JZK     -0.076400
     12 C12         3.9920    2.3830   -9.0030 c3        1 JZK     -0.078400
     13 C13         2.7600    3.1970   -8.6700 c3        1 JZK     -0.085400
     14 C14         2.6830    3.4990   -7.1880 c3        1 JZK     -0.078400
     15 C15         2.7480    2.2300   -6.3620 c3        1 JZK     -0.076400
     16 C16         5.5570    0.5980   -3.8840 cc        1 JZK      0.438700
     17 N17         6.7900    0.8120   -4.6420 n4        1 JZK     -0.700000
     18 C18         7.7970   -0.2920   -4.3930 c3        1 JZK      0.189100
     19 C19         9.0430   -0.0480   -5.1680 ca        1 JZK     -0.198300
     20 C20        10.2490    0.1440   -4.4840 ca        1 JZK     -0.071000
     21 C21        11.4450    0.2740   -5.1890 ca        1 JZK     -0.109000
     22 C22        11.4470    0.2210   -6.5830 ca        1 JZK     -0.060000
     23 C23        10.2490    0.0430   -7.2830 ca        1 JZK     -0.099000
     24 C24         9.0560   -0.0850   -6.5750 ca        1 JZK      0.023400
     25 CL25        7.5930   -0.2820   -7.4380 cl        1 JZK     -0.103400
     26 N26         5.4870    0.6980   -2.5280 nd        1 JZK     -0.467100
     27 C27         4.1500    0.4130   -2.2200 ca        1 JZK      0.038400
     28 C28         3.5010    0.3680   -0.9780 ca        1 JZK      0.065000
     29 HN1        -0.1380   -1.2410    0.0810 hn        1 JZK      0.475467
     30 HN1A       -0.2480   -0.2870    1.4510 hn        1 JZK      0.475467
     31 H5          0.3550   -0.4770   -2.1310 ha        1 JZK      0.141000
     32 H6          1.4720   -0.4010   -4.3130 ha        1 JZK      0.182000
     33 H9          4.8430   -0.5590   -6.3510 h1        1 JZK      0.089700
     34 H9A         3.0550   -0.4100   -6.0190 h1        1 JZK      0.089700
     35 H10         4.9000    2.0680   -6.4270 hc        1 JZK      0.035700
     36 H11         5.0090    0.5640   -8.4110 hc        1 JZK      0.045450
     37 H11A        3.2010    0.4450   -8.4470 hc        1 JZK      0.045450
     38 H12         3.9800    2.1110  -10.0910 hc        1 JZK      0.057700
     39 H12A        4.9120    3.0000   -8.8220 hc        1 JZK      0.057700
     40 H13         2.7810    4.1590   -9.2460 hc        1 JZK      0.063200
     41 H13A        1.8420    2.6360   -8.9880 hc        1 JZK      0.063200
     42 H14         3.5250    4.1810   -6.8970 hc        1 JZK      0.057700
     43 H14A        1.7240    4.0360   -6.9630 hc        1 JZK      0.057700
     44 H15         1.8440    1.6000   -6.5760 hc        1 JZK      0.045450
     45 H15A        2.7320    2.4910   -5.2720 hc        1 JZK      0.045450
     46 HN17        6.5880    0.8550   -5.6600 hn        1 JZK      0.482300
     47 H18         8.0040   -0.3260   -3.2840 hx        1 JZK      0.122200
     48 H18A        7.3110   -1.2620   -4.7060 hx        1 JZK      0.122200
     49 H20        10.2610    0.1760   -3.3820 ha        1 JZK      0.155000
     50 H21        12.3920    0.4150   -4.6400 ha        1 JZK      0.175000
     51 H22        12.3950    0.3170   -7.1410 ha        1 JZK      0.178000
     52 H23        10.2540    0.0020   -8.3860 ha        1 JZK      0.181000
     53 H28         4.0570    0.5810   -0.0450 ha        1 JZK      0.203000
     54 H131       -0.5040    0.3820   -0.0620 hn        1 JZK      0.475467
     55 H172        7.1980    1.7150   -4.3510 hn        1 JZK      0.482300
@<TRIPOS>BOND
     1    1    2 1   
     2    1   29 1   
     3    1   30 1   
     4    1   54 1   
     5    2    3 2   
     6    2    4 1   
     7    4    5 ar  
     8    4   28 ar  
     9    5    6 ar  
    10    5   31 1   
    11    6    7 ar  
    12    6   32 1   
    13    7    8 1   
    14    7   27 ar  
    15    8    9 1   
    16    8   16 1   
    17    9   10 1   
    18    9   33 1   
    19    9   34 1   
    20   10   11 1   
    21   10   15 1   
    22   10   35 1   
    23   11   12 1   
    24   11   36 1   
    25   11   37 1   
    26   12   13 1   
    27   12   38 1   
    28   12   39 1   
    29   13   14 1   
    30   13   40 1   
    31   13   41 1   
    32   14   15 1   
    33   14   42 1   
    34   14   43 1   
    35   15   44 1   
    36   15   45 1   
    37   16   17 1   
    38   16   26 2   
    39   17   18 1   
    40   17   46 1   
    41   17   55 1   
    42   18   19 1   
    43   18   47 1   
    44   18   48 1   
    45   19   20 ar  
    46   19   24 ar  
    47   20   21 ar  
    48   20   49 1   
    49   21   22 ar  
    50   21   50 1   
    51   22   23 ar  
    52   22   51 1   
    53   23   24 ar  
    54   23   52 1   
    55   24   25 1   
    56   26   27 1   
    57   27   28 ar  
    58   28   53 1   
@<TRIPOS>SUBSTRUCTURE
     1 JZK         1 TEMP              0 ****  ****    0 ROOT
