@<TRIPOS>MOLECULE
JZK
   53    49     1     0     0
SMALL
bcc


@<TRIPOS>ATOM
      1 N1         -2.9640    6.0190    0.5690 n         1 JZK     -0.435000
      2 C2         -1.9020    5.1680    1.0170 c2        1 JZK      0.348000
      3 O3         -1.6880    5.0390    2.2070 o         1 JZK     -0.378000
      4 C4         -1.0560    4.4080    0.0030 c2        1 JZK     -0.141000
      5 C5          0.3340    4.3830   -0.0220 c2        1 JZK     -0.073000
      6 C6          1.0070    3.1740   -0.1880 c1        1 JZK     -0.143000
      7 C7          0.2770    1.9740   -0.3290 c1        1 JZK     -0.008000
      8 N8          0.6730    0.6730   -0.4300 n1        1 JZK     -0.182000
      9 C9          1.9970    0.3630   -0.9660 c2        1 JZK     -0.015000
     10 C10         2.6570   -0.7290   -0.1060 c3        1 JZK     -0.122000
     11 C11         2.4200   -2.0800   -0.7590 c3        1 JZK     -0.157000
     12 C12         3.1890   -2.2380   -2.0630 c3        1 JZK     -0.157000
     13 C13         4.6710   -1.9180   -1.9080 c3        1 JZK     -0.156000
     14 C14         4.9080   -0.5650   -1.2540 c3        1 JZK     -0.157000
     15 C15         4.1410   -0.4080    0.0490 c3        1 JZK     -0.157000
     16 C16        -0.4490   -0.1080   -0.4670 c1        1 JZK      0.094000
     17 N17        -1.6610   -0.8970   -0.5170 n2        1 JZK     -0.233000
     18 C18        -1.6710   -2.2330    0.0210 c3        1 JZK     -0.035000
     19 C19        -2.8790   -2.4000    0.9550 c2        1 JZK     -0.114000
     20 C20        -2.7730   -2.0460    2.2960 c2        1 JZK     -0.103000
     21 C21        -3.8320   -2.2880    3.1650 c1        1 JZK     -0.126000
     22 C22        -4.9970   -2.8840    2.6930 c1        1 JZK     -0.117000
     23 C23        -5.1030   -3.2380    1.3540 c1        1 JZK     -0.117000
     24 C24        -4.0450   -2.9960    0.4830 c1        1 JZK     -0.049000
     25 CL25       -4.1600   -3.4870   -1.1900 cl        1 JZK     -0.019000
     26 N26        -1.5390    0.7120   -0.3890 n2        1 JZK     -0.163000
     27 C27        -1.0940    1.9980   -0.3040 c1        1 JZK     -0.075000
     28 C28        -1.7760    3.2250   -0.1360 c1        1 JZK     -0.047000
     29 HN1        -2.7700    6.8340    0.1920 hn        1 JZK      0.225500
     30 HN1A       -3.8370    5.7730    0.7060 hn        1 JZK      0.225500
     31 H5          0.8430    5.2240    0.0440 ha        1 JZK      0.157000
     32 H6          1.9880    3.1560   -0.2060 ha        1 JZK      0.143000
     33 H9          1.9100    0.0430   -1.8920 ha        1 JZK      0.110000
     34 H9A         2.5540    1.1720   -0.9500 ha        1 JZK      0.110000
     35 H10         2.2390   -0.7290    0.7810 hc        1 JZK      0.090000
     36 H11         2.7010   -2.7870   -0.1370 hc        1 JZK      0.086000
     37 H11A        1.4630   -2.1800   -0.9420 hc        1 JZK      0.086000
     38 H12         2.8030   -1.6350   -2.7350 hc        1 JZK      0.080750
     39 H12A        3.0960   -3.1640   -2.3760 hc        1 JZK      0.080750
     40 H13         5.0900   -1.9190   -2.7960 hc        1 JZK      0.082000
     41 H13A        5.0910   -2.6160   -1.3570 hc        1 JZK      0.082000
     42 H14         4.6280    0.1410   -1.8740 hc        1 JZK      0.080750
     43 H14A        5.8690   -0.4650   -1.0710 hc        1 JZK      0.080750
     44 H15         4.2340    0.5180    0.3620 hc        1 JZK      0.086000
     45 H15A        4.5290   -1.0120    0.7210 hc        1 JZK      0.086000
     46 HN17       -2.4000   -0.5740   -0.9570 hn        1 JZK      0.209000
     47 H18        -0.8450   -2.3890    0.5240 h1        1 JZK      0.110500
     48 H18A       -1.7340   -2.8820   -0.7160 h1        1 JZK      0.110500
     49 H20        -1.9520   -1.6250    2.6290 ha        1 JZK      0.137000
     50 H21        -3.7560   -2.0380    4.1130 ha        1 JZK      0.139000
     51 H22        -5.7440   -3.0550    3.3070 ha        1 JZK      0.145000
     52 H23        -5.9250   -3.6590    1.0210 ha        1 JZK      0.145000
     53 H28        -2.7600    3.2500   -0.1740 ha        1 JZK      0.148000
@<TRIPOS>BOND
     1    1    2 1   
     2    1   29 1   
     3    1   30 1   
     4    2    3 1   
     5    2    4 1   
     6    4    5 1   
     7    4   28 1   
     8    5    6 1   
     9    5   31 1   
    10    6   32 1   
    11    7   27 1   
    12    8   16 1   
    13    9   10 1   
    14    9   33 1   
    15    9   34 1   
    16   10   11 1   
    17   10   15 1   
    18   10   35 1   
    19   11   12 1   
    20   11   36 1   
    21   11   37 1   
    22   12   13 1   
    23   12   38 1   
    24   12   39 1   
    25   13   14 1   
    26   13   40 1   
    27   13   41 1   
    28   14   15 1   
    29   14   42 1   
    30   14   43 1   
    31   15   44 1   
    32   15   45 1   
    33   16   26 1   
    34   17   18 1   
    35   17   46 1   
    36   18   19 1   
    37   18   47 1   
    38   18   48 1   
    39   19   20 1   
    40   19   24 1   
    41   20   21 1   
    42   20   49 1   
    43   21   50 1   
    44   22   23 1   
    45   22   51 1   
    46   23   52 1   
    47   24   25 1   
    48   26   27 1   
    49   28   53 1   
@<TRIPOS>SUBSTRUCTURE
     1 JZK         1 TEMP              0 ****  ****    0 ROOT
