@<TRIPOS>MOLECULE
JZK
   53    56     1     0     0
SMALL
bcc


@<TRIPOS>ATOM
      1 N1          6.7470    1.8680    0.4650 n         1 JZK     -0.677000
      2 C2          5.5590    2.5320    0.2680 c         1 JZK      0.673700
      3 O3          5.5240    3.7760    0.3670 o         1 JZK     -0.610100
      4 C4          4.3470    1.7260   -0.0530 ca        1 JZK     -0.160600
      5 C5          4.4300    0.6030   -0.8960 ca        1 JZK     -0.104000
      6 C6          3.3070   -0.1510   -1.2140 ca        1 JZK     -0.136000
      7 C7          2.0830    0.2380   -0.6630 ca        1 JZK     -0.059200
      8 N8          0.7780   -0.2570   -0.8180 na        1 JZK     -0.177300
      9 C9          0.4240   -1.5380   -1.3510 c3        1 JZK      0.046300
     10 C10         0.2810   -2.6840   -0.3360 c3        1 JZK     -0.092700
     11 C11        -0.4060   -3.8590   -1.0190 c3        1 JZK     -0.073900
     12 C12        -0.5420   -5.0340   -0.0710 c3        1 JZK     -0.075900
     13 C13         0.8010   -5.4470    0.4940 c3        1 JZK     -0.078400
     14 C14         1.5000   -4.2790    1.1580 c3        1 JZK     -0.075900
     15 C15         1.6360   -3.1070    0.2090 c3        1 JZK     -0.073900
     16 C16        -0.0490    0.5670    0.0320 cc        1 JZK      0.599700
     17 N17        -1.4120    0.2740    0.2410 nh        1 JZK     -0.758200
     18 C18        -2.2150    1.3660    0.7710 c3        1 JZK      0.227100
     19 C19        -3.6790    1.0310    0.7960 ca        1 JZK     -0.091300
     20 C20        -4.3070    0.8040    2.0260 ca        1 JZK     -0.100000
     21 C21        -5.6730    0.5360    2.0860 ca        1 JZK     -0.128000
     22 C22        -6.4280    0.4860    0.9150 ca        1 JZK     -0.115000
     23 C23        -5.8170    0.7020   -0.3190 ca        1 JZK     -0.124000
     24 C24        -4.4460    0.9710   -0.3760 ca        1 JZK      0.017400
     25 CL25       -3.7300    1.2310   -1.9000 cl        1 JZK     -0.098400
     26 N26         0.6520    1.5820    0.6150 nd        1 JZK     -0.603100
     27 C27         1.9860    1.3990    0.2040 ca        1 JZK      0.081400
     28 C28         3.1330    2.1440    0.4920 ca        1 JZK     -0.029000
     29 HN1         7.5530    2.3820    0.7210 hn        1 JZK      0.310000
     30 HN1A        6.7830    0.8830    0.4800 hn        1 JZK      0.310000
     31 H5          5.3980    0.3170   -1.3350 ha        1 JZK      0.133000
     32 H6          3.3820   -1.0230   -1.8780 ha        1 JZK      0.137000
     33 H9         -0.5560   -1.4220   -1.8990 h1        1 JZK      0.059200
     34 H9A         1.2120   -1.8200   -2.1080 h1        1 JZK      0.059200
     35 H10        -0.3620   -2.3450    0.5230 hc        1 JZK      0.073700
     36 H11        -1.4220   -3.5470   -1.3750 hc        1 JZK      0.041950
     37 H11A        0.1890   -4.1690   -1.9190 hc        1 JZK      0.041950
     38 H12        -1.2310   -4.7560    0.7690 hc        1 JZK      0.042950
     39 H12A       -1.0040   -5.8980   -0.6150 hc        1 JZK      0.042950
     40 H13         0.6560   -6.2720    1.2390 hc        1 JZK      0.040200
     41 H13A        1.4460   -5.8490   -0.3310 hc        1 JZK      0.040200
     42 H14         0.9180   -3.9610    2.0630 hc        1 JZK      0.042950
     43 H14A        2.5170   -4.5970    1.5060 hc        1 JZK      0.042950
     44 H15         2.3090   -3.3910   -0.6430 hc        1 JZK      0.041950
     45 H15A        2.1140   -2.2440    0.7420 hc        1 JZK      0.041950
     46 HN17       -1.8380   -0.1820   -0.5440 hn        1 JZK      0.403800
     47 H18        -1.8510    1.5670    1.8210 h1        1 JZK      0.073200
     48 H18A       -2.0750    2.3180    0.1780 h1        1 JZK      0.073200
     49 H20        -3.7120    0.8390    2.9530 ha        1 JZK      0.146000
     50 H21        -6.1550    0.3630    3.0600 ha        1 JZK      0.140000
     51 H22        -7.5070    0.2760    0.9600 ha        1 JZK      0.140000
     52 H23        -6.4120    0.6630   -1.2450 ha        1 JZK      0.149000
     53 H28         3.0830    3.0450    1.1240 ha        1 JZK      0.169000
@<TRIPOS>BOND
     1    1    2 1   
     2    1   29 1   
     3    1   30 1   
     4    2    3 2   
     5    2    4 1   
     6    4    5 ar  
     7    4   28 ar  
     8    5    6 ar  
     9    5   31 1   
    10    6    7 ar  
    11    6   32 1   
    12    7    8 1   
    13    7   27 ar  
    14    8    9 1   
    15    8   16 1   
    16    9   10 1   
    17    9   33 1   
    18    9   34 1   
    19   10   11 1   
    20   10   15 1   
    21   10   35 1   
    22   11   12 1   
    23   11   36 1   
    24   11   37 1   
    25   12   13 1   
    26   12   38 1   
    27   12   39 1   
    28   13   14 1   
    29   13   40 1   
    30   13   41 1   
    31   14   15 1   
    32   14   42 1   
    33   14   43 1   
    34   15   44 1   
    35   15   45 1   
    36   16   17 1   
    37   16   26 2   
    38   17   18 1   
    39   17   46 1   
    40   18   19 1   
    41   18   47 1   
    42   18   48 1   
    43   19   20 ar  
    44   19   24 ar  
    45   20   21 ar  
    46   20   49 1   
    47   21   22 ar  
    48   21   50 1   
    49   22   23 ar  
    50   22   51 1   
    51   23   24 ar  
    52   23   52 1   
    53   24   25 1   
    54   26   27 1   
    55   27   28 ar  
    56   28   53 1   
@<TRIPOS>SUBSTRUCTURE
     1 JZK         1 TEMP              0 ****  ****    0 ROOT
