@<TRIPOS>MOLECULE
JZL
   60    63     1     0     0
SMALL
bcc


@<TRIPOS>ATOM
      1 N1         -0.0220   -0.7660   -0.0280 n4        1 JZL     -0.765400
      2 C2          1.4090   -0.2270    0.0180 c         1 JZL      0.580700
      3 O3          1.7990   -0.0120    1.1570 o         1 JZL     -0.435100
      4 C4          2.0860   -0.0980   -1.2590 ca        1 JZL     -0.184600
      5 C5          1.3790   -0.0260   -2.4810 ca        1 JZL     -0.236000
      6 C6          2.0390    0.0580   -3.7200 ca        1 JZL      0.213600
      7 N7          1.3270    0.0710   -4.9070 nh        1 JZL     -0.839200
      8 C8          3.4670    0.0560   -3.6810 ca        1 JZL     -0.074200
      9 N9          4.4450    0.0730   -4.6800 na        1 JZL     -0.155300
     10 C10         4.2580    0.1010   -6.0990 c3        1 JZL      0.025300
     11 C11         4.1460    1.4850   -6.7730 c3        1 JZL     -0.078700
     12 C12         3.3810    2.5490   -6.0020 c3        1 JZL     -0.075400
     13 C13         4.0110    3.9190   -6.1630 c3        1 JZL     -0.077400
     14 C14         3.7830    4.5350   -7.5260 c3        1 JZL     -0.080400
     15 C15         4.2430    3.6700   -8.6810 c3        1 JZL     -0.073400
     16 C16         3.2960    2.5280   -8.9760 c3        1 JZL     -0.110400
     17 C17         3.5230    1.2580   -8.1600 c3        1 JZL      0.145100
     18 O18         2.2730    0.6000   -7.9370 oh        1 JZL     -0.634800
     19 C19         5.7120    0.1410   -3.9930 cc        1 JZL      0.638700
     20 N20         6.9190    0.3340   -4.6670 nh        1 JZL     -0.768200
     21 C21         8.1430    0.0790   -3.9210 c3        1 JZL      0.241100
     22 C22         9.3540    0.0810   -4.8070 ca        1 JZL     -0.111300
     23 C23        10.2920    1.1100   -4.6780 ca        1 JZL     -0.097000
     24 C24        11.4530    1.1100   -5.4500 ca        1 JZL     -0.123000
     25 C25        11.6850    0.0820   -6.3640 ca        1 JZL     -0.104000
     26 C26        10.7570   -0.9470   -6.5100 ca        1 JZL     -0.118000
     27 C27         9.5930   -0.9430   -5.7340 ca        1 JZL      0.017400
     28 CL28        8.4750   -2.2160   -5.9330 cl        1 JZL     -0.104400
     29 N29         5.5590    0.0920   -2.6290 nd        1 JZL     -0.600100
     30 C30         4.1780    0.0370   -2.4170 ca        1 JZL      0.108400
     31 C31         3.4810   -0.0400   -1.2050 ca        1 JZL     -0.016000
     32 HN1        -0.3290   -1.0210    0.9170 hn        1 JZL      0.461800
     33 HN1A       -0.6470   -0.0490   -0.4020 hn        1 JZL      0.461800
     34 H5          0.2810    0.0050   -2.4840 ha        1 JZL      0.112000
     35 HN7         0.3550    0.2600   -4.8300 hn        1 JZL      0.428300
     36 HN7A        1.7690    0.4710   -5.7090 hn        1 JZL      0.428300
     37 H10         5.1360   -0.4280   -6.5780 h1        1 JZL      0.080700
     38 H10A        3.3570   -0.5330   -6.3510 h1        1 JZL      0.080700
     39 H11         5.2010    1.8510   -6.9330 hc        1 JZL      0.073700
     40 H12         3.3490    2.3140   -4.9060 hc        1 JZL      0.044700
     41 H12A        2.3180    2.5800   -6.3640 hc        1 JZL      0.044700
     42 H13         3.5750    4.6050   -5.3880 hc        1 JZL      0.048200
     43 H13A        5.1130    3.8530   -5.9610 hc        1 JZL      0.048200
     44 H14         4.3380    5.5110   -7.5670 hc        1 JZL      0.047700
     45 H14A        2.6920    4.7720   -7.6500 hc        1 JZL      0.047700
     46 H15         5.2780    3.2860   -8.4900 hc        1 JZL      0.049700
     47 H15A        4.3010    4.3180   -9.5990 hc        1 JZL      0.049700
     48 H16         2.2390    2.8740   -8.8130 hc        1 JZL      0.053200
     49 H16A        3.3860    2.2530  -10.0620 hc        1 JZL      0.053200
     50 H17         4.1940    0.5570   -8.7370 h1        1 JZL      0.039700
     51 HO18        1.8490    0.4980   -8.7970 ho        1 JZL      0.420000
     52 HN20        6.9340    0.0090   -5.6140 hn        1 JZL      0.423800
     53 H21         8.2310    0.8910   -3.1410 h1        1 JZL      0.077200
     54 H21A        8.0940   -0.9120   -3.3780 h1        1 JZL      0.077200
     55 H23        10.1130    1.9240   -3.9580 ha        1 JZL      0.146000
     56 H24        12.1880    1.9220   -5.3360 ha        1 JZL      0.148000
     57 H25        12.6030    0.0790   -6.9720 ha        1 JZL      0.150000
     58 H26        10.9410   -1.7600   -7.2290 ha        1 JZL      0.157000
     59 H31         4.0230   -0.0610   -0.2450 ha        1 JZL      0.180000
     60 H131       -0.0560   -1.5870   -0.6380 hn        1 JZL      0.461800
@<TRIPOS>BOND
     1    1    2 1   
     2    1   32 1   
     3    1   33 1   
     4    1   60 1   
     5    2    3 2   
     6    2    4 1   
     7    4    5 ar  
     8    4   31 ar  
     9    5    6 ar  
    10    5   34 1   
    11    6    7 1   
    12    6    8 ar  
    13    7   35 1   
    14    7   36 1   
    15    8    9 1   
    16    8   30 ar  
    17    9   10 1   
    18    9   19 1   
    19   10   11 1   
    20   10   37 1   
    21   10   38 1   
    22   11   12 1   
    23   11   17 1   
    24   11   39 1   
    25   12   13 1   
    26   12   40 1   
    27   12   41 1   
    28   13   14 1   
    29   13   42 1   
    30   13   43 1   
    31   14   15 1   
    32   14   44 1   
    33   14   45 1   
    34   15   16 1   
    35   15   46 1   
    36   15   47 1   
    37   16   17 1   
    38   16   48 1   
    39   16   49 1   
    40   17   18 1   
    41   17   50 1   
    42   18   51 1   
    43   19   20 1   
    44   19   29 2   
    45   20   21 1   
    46   20   52 1   
    47   21   22 1   
    48   21   53 1   
    49   21   54 1   
    50   22   23 ar  
    51   22   27 ar  
    52   23   24 ar  
    53   23   55 1   
    54   24   25 ar  
    55   24   56 1   
    56   25   26 ar  
    57   25   57 1   
    58   26   27 ar  
    59   26   58 1   
    60   27   28 1   
    61   29   30 1   
    62   30   31 ar  
    63   31   59 1   
@<TRIPOS>SUBSTRUCTURE
     1 JZL         1 TEMP              0 ****  ****    0 ROOT
