@<TRIPOS>MOLECULE
JZL
   62    65     1     0     0
SMALL
bcc


@<TRIPOS>ATOM
      1 N1          1.4310   -0.6950    0.9060 n4        1 JZL     -0.750400
      2 C2          0.8740   -0.3290   -0.4450 c         1 JZL      0.557700
      3 O3         -0.3360   -0.1570   -0.4690 o         1 JZL     -0.364100
      4 C4          1.7910   -0.2190   -1.5940 ca        1 JZL     -0.191600
      5 C5          1.1530   -0.0270   -2.8470 ca        1 JZL      0.006000
      6 C6          1.8770    0.1040   -4.0330 ca        1 JZL     -0.035400
      7 N7          1.1790    0.3320   -5.2920 n4        1 JZL     -0.713000
      8 C8          3.2930    0.0300   -3.9710 ca        1 JZL      0.012800
      9 N9          4.3130    0.0830   -4.9150 na        1 JZL     -0.127300
     10 C10         4.1930    0.2060   -6.3470 c3        1 JZL     -0.002700
     11 C11         4.0670    1.6210   -6.9530 c3        1 JZL     -0.100700
     12 C12         3.5180    2.7240   -6.0610 c3        1 JZL     -0.083400
     13 C13         4.2500    4.0370   -6.2870 c3        1 JZL     -0.076400
     14 C14         3.8830    4.7160   -7.5880 c3        1 JZL     -0.091400
     15 C15         4.0590    3.8530   -8.8190 c3        1 JZL     -0.081400
     16 C16         2.9790    2.8040   -8.9700 c3        1 JZL     -0.115400
     17 C17         3.2440    1.4860   -8.2490 c3        1 JZL      0.153100
     18 O18         1.9990    0.8720   -7.8800 oh        1 JZL     -0.713800
     19 C19         5.5360   -0.0210   -4.1600 cc        1 JZL      0.494700
     20 N20         6.8510    0.0060   -4.7950 n4        1 JZL     -0.735000
     21 C21         8.0160   -0.1260   -3.8210 c3        1 JZL      0.206100
     22 C22         9.2970   -0.1510   -4.5760 ca        1 JZL     -0.211300
     23 C23        10.3040    0.7610   -4.2360 ca        1 JZL     -0.065000
     24 C24        11.5660    0.6690   -4.8270 ca        1 JZL     -0.102000
     25 C25        11.8300   -0.3240   -5.7680 ca        1 JZL     -0.049000
     26 C26        10.8270   -1.2300   -6.1390 ca        1 JZL     -0.087000
     27 C27         9.5710   -1.1320   -5.5480 ca        1 JZL      0.011400
     28 CL28        8.3380   -2.2260   -6.0320 cl        1 JZL     -0.089400
     29 N29         5.3250   -0.1640   -2.8290 nd        1 JZL     -0.453100
     30 C30         3.9300   -0.1440   -2.6700 ca        1 JZL      0.064400
     31 C31         3.1790   -0.2700   -1.4930 ca        1 JZL      0.052000
     32 HN1         1.9300   -1.5910    0.8640 hn        1 JZL      0.488800
     33 HN1A        2.0690    0.0340    1.2450 hn        1 JZL      0.488800
     34 H5          0.0420    0.0250   -2.8550 ha        1 JZL      0.204000
     35 HN7         1.1910   -0.5190   -5.8740 hn        1 JZL      0.490467
     36 HN7A        1.6410    1.0910   -5.8370 hn        1 JZL      0.490467
     37 H10         5.0990   -0.2820   -6.8140 h1        1 JZL      0.090200
     38 H10A        3.3160   -0.4340   -6.6640 h1        1 JZL      0.090200
     39 H11         5.1080    1.9220   -7.2740 hc        1 JZL      0.090700
     40 H12         2.4280    2.8870   -6.2870 hc        1 JZL      0.032700
     41 H12A        3.6020    2.4630   -4.9750 hc        1 JZL      0.032700
     42 H13         5.3580    3.8610   -6.2520 hc        1 JZL      0.055200
     43 H13A        3.9990    4.7330   -5.4410 hc        1 JZL      0.055200
     44 H14         2.8210    5.0770   -7.5340 hc        1 JZL      0.073700
     45 H14A        4.5300    5.6300   -7.6970 hc        1 JZL      0.073700
     46 H15         4.0120    4.5270   -9.7200 hc        1 JZL      0.067700
     47 H15A        5.0750    3.3810   -8.8270 hc        1 JZL      0.067700
     48 H16         2.8540    2.5680  -10.0630 hc        1 JZL      0.074200
     49 H16A        2.0000    3.2260   -8.6150 hc        1 JZL      0.074200
     50 H17         3.7840    0.7740   -8.9390 h1        1 JZL      0.069700
     51 HO18        1.4240    0.9020   -8.6580 ho        1 JZL      0.464000
     52 HN20        6.9520    0.8860   -5.3200 hn        1 JZL      0.483800
     53 H21         7.8700   -1.0940   -3.2550 hx        1 JZL      0.126700
     54 H21A        7.9730    0.7390   -3.1000 hx        1 JZL      0.126700
     55 H23        10.1150    1.5420   -3.4800 ha        1 JZL      0.157000
     56 H24        12.3580    1.3840   -4.5390 ha        1 JZL      0.185000
     57 H25        12.8320   -0.4040   -6.2280 ha        1 JZL      0.190000
     58 H26        11.0400   -2.0130   -6.8880 ha        1 JZL      0.190000
     59 H31         3.7160   -0.3990   -0.5360 ha        1 JZL      0.185000
     60 H131        0.6490   -0.7840    1.5810 hn        1 JZL      0.488800
     61 H73         0.2000    0.5990   -5.1190 hn        1 JZL      0.490467
     62 H202        6.9490   -0.8140   -5.4650 hn        1 JZL      0.483800
@<TRIPOS>BOND
     1    1    2 1   
     2    1   32 1   
     3    1   33 1   
     4    1   60 1   
     5    2    3 2   
     6    2    4 1   
     7    4    5 ar  
     8    4   31 ar  
     9    5    6 ar  
    10    5   34 1   
    11    6    7 1   
    12    6    8 ar  
    13    7   35 1   
    14    7   36 1   
    15    7   61 1   
    16    8    9 1   
    17    8   30 ar  
    18    9   10 1   
    19    9   19 1   
    20   10   11 1   
    21   10   37 1   
    22   10   38 1   
    23   11   12 1   
    24   11   17 1   
    25   11   39 1   
    26   12   13 1   
    27   12   40 1   
    28   12   41 1   
    29   13   14 1   
    30   13   42 1   
    31   13   43 1   
    32   14   15 1   
    33   14   44 1   
    34   14   45 1   
    35   15   16 1   
    36   15   46 1   
    37   15   47 1   
    38   16   17 1   
    39   16   48 1   
    40   16   49 1   
    41   17   18 1   
    42   17   50 1   
    43   18   51 1   
    44   19   20 1   
    45   19   29 2   
    46   20   21 1   
    47   20   52 1   
    48   20   62 1   
    49   21   22 1   
    50   21   53 1   
    51   21   54 1   
    52   22   23 ar  
    53   22   27 ar  
    54   23   24 ar  
    55   23   55 1   
    56   24   25 ar  
    57   24   56 1   
    58   25   26 ar  
    59   25   57 1   
    60   26   27 ar  
    61   26   58 1   
    62   27   28 1   
    63   29   30 1   
    64   30   31 ar  
    65   31   59 1   
@<TRIPOS>SUBSTRUCTURE
     1 JZL         1 TEMP              0 ****  ****    0 ROOT
