@<TRIPOS>MOLECULE
JZL
   59    55     1     0     0
SMALL
bcc


@<TRIPOS>ATOM
      1 N1         -4.1290   -1.4750    5.9670 n         1 JZL     -0.437000
      2 C2         -3.6560   -0.2960    5.3270 c2        1 JZL      0.346000
      3 O3         -3.7970    0.7800    5.8660 o         1 JZL     -0.367000
      4 C4         -2.9420   -0.3860    3.9610 c2        1 JZL     -0.098000
      5 C5         -3.6480   -0.3070    2.7610 c2        1 JZL     -0.177000
      6 C6         -2.9600   -0.2770    1.5430 c1        1 JZL      0.053000
      7 N7         -4.0860   -0.7670    0.7880 n2        1 JZL     -0.317000
      8 C8         -1.5440   -0.3290    1.5270 c1        1 JZL     -0.068000
      9 N9         -0.6240   -0.3390    0.4840 n1        1 JZL     -0.183000
     10 C10        -0.9300   -0.5100   -0.9510 c2        1 JZL     -0.027000
     11 C11        -0.6920    0.8290   -1.6840 c3        1 JZL     -0.118000
     12 C12        -2.0140    1.5490   -1.8420 c3        1 JZL     -0.157000
     13 C13        -1.8380    3.0520   -1.6760 c3        1 JZL     -0.157000
     14 C14        -1.3690    3.6910   -2.9730 c3        1 JZL     -0.156000
     15 C15        -0.1300    3.0030   -3.4980 c3        1 JZL     -0.149000
     16 C16        -0.4580    1.6300   -4.0250 c3        1 JZL     -0.187000
     17 C17        -0.0640    0.5630   -3.0240 c3        1 JZL      0.037000
     18 O18        -0.4980   -0.7190   -3.5030 oh        1 JZL     -0.339000
     19 C19         0.6280   -0.4230    1.0250 c1        1 JZL      0.112000
     20 N20         1.9860   -0.6310    0.4560 n2        1 JZL     -0.248000
     21 C21         3.1070   -0.9620    1.3400 c3        1 JZL     -0.015000
     22 C22         4.2340   -1.4980    0.5340 c2        1 JZL     -0.085000
     23 C23         5.2870   -0.6450    0.1510 c2        1 JZL     -0.101000
     24 C24         6.3960   -1.1610   -0.5020 c1        1 JZL     -0.129000
     25 C25         6.4720   -2.5270   -0.7820 c1        1 JZL     -0.120000
     26 C26         5.4240   -3.3790   -0.4010 c1        1 JZL     -0.120000
     27 C27         4.3070   -2.8610    0.2570 c1        1 JZL     -0.061000
     28 CL28        3.0650   -3.9580    0.8840 cl        1 JZL     -0.019000
     29 N29         0.4960   -0.4650    2.4030 n2        1 JZL     -0.184000
     30 C30        -0.8490   -0.4060    2.7050 c1        1 JZL     -0.024000
     31 C31        -1.5550   -0.4360    3.9490 c1        1 JZL     -0.072000
     32 HN1        -4.4820   -1.4230    6.8420 hn        1 JZL      0.223500
     33 HN1A       -4.1260   -2.2960    5.5090 hn        1 JZL      0.223500
     34 H5         -4.5900   -0.3380    2.7680 ha        1 JZL      0.134000
     35 HN7        -4.8890   -0.3490    0.8490 hn        1 JZL      0.179000
     36 HN7A       -3.9810   -1.4440    0.2240 hn        1 JZL      0.179000
     37 H10        -1.8770   -0.7820   -1.0580 ha        1 JZL      0.111500
     38 H10A       -0.3520   -1.1950   -1.3280 ha        1 JZL      0.111500
     39 H11        -0.0680    1.4000   -1.1330 hc        1 JZL      0.112000
     40 H12        -2.3750    1.3650   -2.7280 hc        1 JZL      0.096500
     41 H12A       -2.6400    1.2240   -1.1670 hc        1 JZL      0.096500
     42 H13        -2.7360    3.4680   -1.4010 hc        1 JZL      0.084000
     43 H13A       -1.1630    3.2270   -0.9640 hc        1 JZL      0.084000
     44 H14        -1.1740    4.6020   -2.8150 hc        1 JZL      0.078000
     45 H14A       -2.0700    3.6270   -3.6290 hc        1 JZL      0.078000
     46 H15         0.5390    2.9210   -2.7580 hc        1 JZL      0.082000
     47 H15A        0.2570    3.5440   -4.2250 hc        1 JZL      0.082000
     48 H16        -1.4350    1.5700   -4.2000 hc        1 JZL      0.084500
     49 H16A        0.0350    1.4810   -4.8700 hc        1 JZL      0.084500
     50 H17         0.9290    0.5570   -2.9260 h1        1 JZL      0.068000
     51 HO18        0.1690   -1.1200   -3.9220 ho        1 JZL      0.200000
     52 HN20        2.1200   -0.5770   -0.4710 hn        1 JZL      0.205000
     53 H21         2.8240   -1.6300    1.9870 h1        1 JZL      0.111500
     54 H21A        3.4050   -0.1420    1.8190 h1        1 JZL      0.111500
     55 H23         5.2370    0.2970    0.3430 ha        1 JZL      0.146000
     56 H24         7.1400   -0.5560   -0.7730 ha        1 JZL      0.140000
     57 H25         7.2590   -2.8910   -1.2460 ha        1 JZL      0.144500
     58 H26         5.4780   -4.3440   -0.5980 ha        1 JZL      0.144500
     59 H31        -1.0550   -0.5360    4.8020 ha        1 JZL      0.168000
@<TRIPOS>BOND
     1    1    2 1   
     2    1   32 1   
     3    1   33 1   
     4    2    3 1   
     5    2    4 1   
     6    4    5 1   
     7    4   31 1   
     8    5    6 1   
     9    5   34 1   
    10    6    8 1   
    11    7   35 1   
    12    7   36 1   
    13    8   30 1   
    14    9   19 1   
    15   10   11 1   
    16   10   37 1   
    17   10   38 1   
    18   11   12 1   
    19   11   17 1   
    20   11   39 1   
    21   12   13 1   
    22   12   40 1   
    23   12   41 1   
    24   13   14 1   
    25   13   42 1   
    26   13   43 1   
    27   14   15 1   
    28   14   44 1   
    29   14   45 1   
    30   15   16 1   
    31   15   46 1   
    32   15   47 1   
    33   16   17 1   
    34   16   48 1   
    35   16   49 1   
    36   17   18 1   
    37   17   50 1   
    38   18   51 1   
    39   19   29 1   
    40   20   21 1   
    41   20   52 1   
    42   21   22 1   
    43   21   53 1   
    44   21   54 1   
    45   22   23 1   
    46   22   27 1   
    47   23   24 1   
    48   23   55 1   
    49   24   56 1   
    50   25   26 1   
    51   25   57 1   
    52   26   58 1   
    53   27   28 1   
    54   29   30 1   
    55   31   59 1   
@<TRIPOS>SUBSTRUCTURE
     1 JZL         1 TEMP              0 ****  ****    0 ROOT
