@<TRIPOS>MOLECULE
JZL
   60    63     1     0     0
SMALL
bcc


@<TRIPOS>ATOM
      1 N1         -0.0180   -0.7500   -0.0200 nz        1 JZL     -0.765400
      2 C2          1.4110   -0.2060    0.0230 c         1 JZL      0.580700
      3 O3          1.8000    0.0160    1.1610 o         1 JZL     -0.435100
      4 C4          2.0870   -0.0830   -1.2550 ca        1 JZL     -0.184600
      5 C5          1.3810   -0.0170   -2.4760 ca        1 JZL     -0.236000
      6 C6          2.0400    0.0610   -3.7160 ca        1 JZL      0.213600
      7 N7          1.3290    0.0680   -4.9030 nv        1 JZL     -0.839200
      8 C8          3.4680    0.0610   -3.6780 ca        1 JZL     -0.074200
      9 N9          4.4470    0.0760   -4.6760 na        1 JZL     -0.155300
     10 C10         4.2590    0.0970   -6.0960 c3        1 JZL      0.025300
     11 C11         4.1440    1.4780   -6.7750 c3        1 JZL     -0.078700
     12 C12         3.3780    2.5430   -6.0080 c3        1 JZL     -0.075400
     13 C13         4.0060    3.9140   -6.1760 c3        1 JZL     -0.077400
     14 C14         3.7760    4.5240   -7.5410 c3        1 JZL     -0.080400
     15 C15         4.2370    3.6550   -8.6930 c3        1 JZL     -0.073400
     16 C16         3.2930    2.5100   -8.9830 c3        1 JZL     -0.110400
     17 C17         3.5220    1.2440   -8.1610 c3        1 JZL      0.145100
     18 O18         2.2730    0.5850   -7.9350 oh        1 JZL     -0.634800
     19 C19         5.7140    0.1480   -3.9890 cc        1 JZL      0.638700
     20 N20         6.9200    0.3390   -4.6650 nu        1 JZL     -0.768200
     21 C21         8.1440    0.0890   -3.9180 c3        1 JZL      0.241100
     22 C22         9.3550    0.0870   -4.8030 ca        1 JZL     -0.111300
     23 C23        10.2930    1.1170   -4.6810 ca        1 JZL     -0.097000
     24 C24        11.4540    1.1120   -5.4520 ca        1 JZL     -0.123000
     25 C25        11.6870    0.0790   -6.3600 ca        1 JZL     -0.104000
     26 C26        10.7580   -0.9510   -6.5000 ca        1 JZL     -0.118000
     27 C27         9.5950   -0.9430   -5.7250 ca        1 JZL      0.017400
     28 Cl28        8.4770   -2.2170   -5.9160 cl        1 JZL     -0.104400
     29 N29         5.5600    0.1050   -2.6250 nd        1 JZL     -0.600100
     30 C30         4.1790    0.0500   -2.4130 ca        1 JZL      0.108400
     31 C31         3.4830   -0.0220   -1.2010 ca        1 JZL     -0.016000
     32 HN1        -0.0510   -1.5730   -0.6260 hn        1 JZL      0.461800
     33 HN1A       -0.3250   -1.0010    0.9250 hn        1 JZL      0.461800
     34 H5          0.2820    0.0130   -2.4800 ha        1 JZL      0.112000
     35 HN7         1.7690    0.4650   -5.7070 hn        1 JZL      0.428300
     36 HN7A        0.3560    0.2560   -4.8270 hn        1 JZL      0.428300
     37 H10         5.1380   -0.4330   -6.5720 h1        1 JZL      0.080700
     38 H10A        3.3590   -0.5400   -6.3440 h1        1 JZL      0.080700
     39 H11         5.1990    1.8450   -6.9380 hc        1 JZL      0.073700
     40 H12         2.3150    2.5710   -6.3700 hc        1 JZL      0.044700
     41 H12A        3.3470    2.3140   -4.9120 hc        1 JZL      0.044700
     42 H13         5.1080    3.8500   -5.9730 hc        1 JZL      0.048200
     43 H13A        3.5690    4.6030   -5.4030 hc        1 JZL      0.048200
     44 H14         2.6860    4.7590   -7.6660 hc        1 JZL      0.047700
     45 H14A        4.3300    5.5010   -7.5860 hc        1 JZL      0.047700
     46 H15         5.2730    3.2730   -8.5010 hc        1 JZL      0.049700
     47 H15A        4.2940    4.2990   -9.6130 hc        1 JZL      0.049700
     48 H16         2.2350    2.8550   -8.8210 hc        1 JZL      0.053200
     49 H16A        3.3820    2.2310  -10.0670 hc        1 JZL      0.053200
     50 H17         4.1940    0.5410   -8.7350 h1        1 JZL      0.039700
     51 HO18        1.8480    0.4790   -8.7940 ho        1 JZL      0.420000
     52 HN20        6.9350    0.0090   -5.6090 hn        1 JZL      0.423800
     53 H21         8.0960   -0.8990   -3.3690 h1        1 JZL      0.077200
     54 H21A        8.2320    0.9050   -3.1420 h1        1 JZL      0.077200
     55 H23        10.1140    1.9350   -3.9650 ha        1 JZL      0.146000
     56 H24        12.1880    1.9250   -5.3430 ha        1 JZL      0.148000
     57 H25        12.6040    0.0730   -6.9680 ha        1 JZL      0.150000
     58 H26        10.9430   -1.7680   -7.2150 ha        1 JZL      0.157000
     59 H31         4.0250   -0.0380   -0.2410 ha        1 JZL      0.180000
     60 H131       -0.6460   -0.0360   -0.3970 hn        1 JZL      0.461800
@<TRIPOS>BOND
     1    1    2 1   
     2    1   32 1   
     3    1   33 1   
     4    1   60 1   
     5    2    3 2   
     6    2    4 1   
     7    4    5 ar  
     8    4   31 ar  
     9    5    6 ar  
    10    5   34 1   
    11    6    7 1   
    12    6    8 ar  
    13    7   35 1   
    14    7   36 1   
    15    8    9 1   
    16    8   30 ar  
    17    9   10 1   
    18    9   19 1   
    19   10   11 1   
    20   10   37 1   
    21   10   38 1   
    22   11   12 1   
    23   11   17 1   
    24   11   39 1   
    25   12   13 1   
    26   12   40 1   
    27   12   41 1   
    28   13   14 1   
    29   13   42 1   
    30   13   43 1   
    31   14   15 1   
    32   14   44 1   
    33   14   45 1   
    34   15   16 1   
    35   15   46 1   
    36   15   47 1   
    37   16   17 1   
    38   16   48 1   
    39   16   49 1   
    40   17   18 1   
    41   17   50 1   
    42   18   51 1   
    43   19   20 1   
    44   19   29 2   
    45   20   21 1   
    46   20   52 1   
    47   21   22 1   
    48   21   53 1   
    49   21   54 1   
    50   22   23 ar  
    51   22   27 ar  
    52   23   24 ar  
    53   23   55 1   
    54   24   25 ar  
    55   24   56 1   
    56   25   26 ar  
    57   25   57 1   
    58   26   27 ar  
    59   26   58 1   
    60   27   28 1   
    61   29   30 1   
    62   30   31 ar  
    63   31   59 1   
@<TRIPOS>SUBSTRUCTURE
     1 JZL         1 TEMP              0 ****  ****    0 ROOT
