@<TRIPOS>MOLECULE
JZL
   59    62     1     0     0
SMALL
bcc


@<TRIPOS>ATOM
      1 N1          6.6720    2.1130    0.6650 n         1 JZL     -0.678000
      2 C2          5.5120    2.7790    0.3420 c         1 JZL      0.673700
      3 O3          5.5020    4.0270    0.3310 o         1 JZL     -0.608100
      4 C4          4.3000    1.9680    0.0290 ca        1 JZL     -0.126600
      5 C5          4.4050    0.8040   -0.7470 ca        1 JZL     -0.175000
      6 C6          3.2850    0.0230   -1.0850 ca        1 JZL      0.124600
      7 N7          3.4070   -1.0790   -1.9490 nh        1 JZL     -0.806200
      8 C8          2.0310    0.4550   -0.5840 ca        1 JZL     -0.085200
      9 N9          0.7130   -0.0150   -0.7420 na        1 JZL     -0.165300
     10 C10         0.2580   -1.2640   -1.2720 c3        1 JZL      0.043300
     11 C11         0.0350   -2.3960   -0.2480 c3        1 JZL     -0.080700
     12 C12         1.3330   -2.8650    0.3870 c3        1 JZL     -0.074400
     13 C13         1.1500   -3.3040    1.8260 c3        1 JZL     -0.077400
     14 C14         0.4700   -4.6450    1.9800 c3        1 JZL     -0.077400
     15 C15        -0.8760   -4.7270    1.2900 c3        1 JZL     -0.071400
     16 C16        -0.7500   -4.8550   -0.2110 c3        1 JZL     -0.109400
     17 C17        -0.7230   -3.5260   -0.9610 c3        1 JZL      0.147100
     18 O18        -0.1090   -3.7080   -2.2360 oh        1 JZL     -0.610800
     19 C19        -0.1110    0.8760    0.0340 cc        1 JZL      0.588700
     20 N20        -1.4920    0.6400    0.2210 nh        1 JZL     -0.757200
     21 C21        -2.2540    1.7700    0.7330 c3        1 JZL      0.224100
     22 C22        -3.7290    1.4920    0.7570 ca        1 JZL     -0.090300
     23 C23        -4.3690    1.3050    1.9880 ca        1 JZL     -0.102000
     24 C24        -5.7450    1.0910    2.0470 ca        1 JZL     -0.129000
     25 C25        -6.4980    1.0560    0.8740 ca        1 JZL     -0.116000
     26 C26        -5.8770    1.2330   -0.3600 ca        1 JZL     -0.124000
     27 C27        -4.4960    1.4470   -0.4170 ca        1 JZL      0.016400
     28 CL28       -3.7670    1.6610   -1.9420 cl        1 JZL     -0.096400
     29 N29         0.6040    1.8960    0.5900 nd        1 JZL     -0.607100
     30 C30         1.9380    1.6570    0.2230 ca        1 JZL      0.104400
     31 C31         3.0780    2.4160    0.5160 ca        1 JZL     -0.062000
     32 HN1         7.4760    2.6310    0.9150 hn        1 JZL      0.309500
     33 HN1A        6.6840    1.1310    0.7580 hn        1 JZL      0.309500
     34 H5          5.3940    0.5090   -1.1350 ha        1 JZL      0.132000
     35 HN7         4.3580   -1.3000   -2.1610 hn        1 JZL      0.381800
     36 HN7A        2.9060   -1.8850   -1.6330 hn        1 JZL      0.381800
     37 H10        -0.7290   -1.0770   -1.7930 h1        1 JZL      0.075700
     38 H10A        0.9650   -1.6210   -2.0710 h1        1 JZL      0.075700
     39 H11        -0.6480   -2.0130    0.5640 hc        1 JZL      0.073700
     40 H12         1.7670   -3.7010   -0.2220 hc        1 JZL      0.046700
     41 H12A        2.0780   -2.0240    0.3850 hc        1 JZL      0.046700
     42 H13         2.1620   -3.3630    2.3110 hc        1 JZL      0.044200
     43 H13A        0.5650   -2.5230    2.3820 hc        1 JZL      0.044200
     44 H14         1.1420   -5.4520    1.5830 hc        1 JZL      0.040700
     45 H14A        0.3260   -4.8460    3.0760 hc        1 JZL      0.040700
     46 H15        -1.4170   -5.6310    1.6800 hc        1 JZL      0.044700
     47 H15A       -1.4970   -3.8320    1.5540 hc        1 JZL      0.044700
     48 H16         0.1800   -5.4310   -0.4660 hc        1 JZL      0.046700
     49 H16A       -1.6190   -5.4490   -0.6040 hc        1 JZL      0.046700
     50 H17        -1.7850   -3.1770   -1.1270 h1        1 JZL      0.030700
     51 HO18       -0.5460   -4.4590   -2.6540 ho        1 JZL      0.404000
     52 HN20       -1.9210    0.2200   -0.5830 hn        1 JZL      0.400800
     53 H21        -1.8870    1.9720    1.7810 h1        1 JZL      0.073200
     54 H21A       -2.0760    2.7090    0.1270 h1        1 JZL      0.073200
     55 H23        -3.7760    1.3290    2.9150 ha        1 JZL      0.145000
     56 H24        -6.2360    0.9500    3.0220 ha        1 JZL      0.139000
     57 H25        -7.5850    0.8880    0.9200 ha        1 JZL      0.140000
     58 H26        -6.4710    1.2060   -1.2870 ha        1 JZL      0.149000
     59 H31         3.0070    3.3460    1.1010 ha        1 JZL      0.168000
@<TRIPOS>BOND
     1    1    2 1   
     2    1   32 1   
     3    1   33 1   
     4    2    3 2   
     5    2    4 1   
     6    4    5 ar  
     7    4   31 ar  
     8    5    6 ar  
     9    5   34 1   
    10    6    7 1   
    11    6    8 ar  
    12    7   35 1   
    13    7   36 1   
    14    8    9 1   
    15    8   30 ar  
    16    9   10 1   
    17    9   19 1   
    18   10   11 1   
    19   10   37 1   
    20   10   38 1   
    21   11   12 1   
    22   11   17 1   
    23   11   39 1   
    24   12   13 1   
    25   12   40 1   
    26   12   41 1   
    27   13   14 1   
    28   13   42 1   
    29   13   43 1   
    30   14   15 1   
    31   14   44 1   
    32   14   45 1   
    33   15   16 1   
    34   15   46 1   
    35   15   47 1   
    36   16   17 1   
    37   16   48 1   
    38   16   49 1   
    39   17   18 1   
    40   17   50 1   
    41   18   51 1   
    42   19   20 1   
    43   19   29 2   
    44   20   21 1   
    45   20   52 1   
    46   21   22 1   
    47   21   53 1   
    48   21   54 1   
    49   22   23 ar  
    50   22   27 ar  
    51   23   24 ar  
    52   23   55 1   
    53   24   25 ar  
    54   24   56 1   
    55   25   26 ar  
    56   25   57 1   
    57   26   27 ar  
    58   26   58 1   
    59   27   28 1   
    60   29   30 1   
    61   30   31 ar  
    62   31   59 1   
@<TRIPOS>SUBSTRUCTURE
     1 JZL         1 TEMP              0 ****  ****    0 ROOT
