@<TRIPOS>MOLECULE
JZM
   31    33     1     0     0
SMALL
bcc


@<TRIPOS>ATOM
      1 C1          2.7860    1.4010   -0.1520 ca        1 JZM      0.475600
      2 C2          1.8960    0.4650    0.4680 ca        1 JZM     -0.299600
      3 C3          2.3380   -0.9360    0.4120 ca        1 JZM      0.751200
      4 N4          3.4420   -1.3090   -0.2810 nb        1 JZM     -0.842000
      5 C5          4.1810   -0.3050   -0.9090 ca        1 JZM      0.914900
      6 N6          3.9210    1.0350   -0.8260 nb        1 JZM     -0.804000
      7 N7          1.6790   -1.9240    1.0950 nh        1 JZM     -0.971500
      8 C8          2.4870    2.8050   -0.0740 ca        1 JZM     -0.165300
      9 C9          1.3500    3.2360    0.5540 ca        1 JZM     -0.117000
     10 C12         0.4520    2.3050    1.1160 ca        1 JZM     -0.106000
     11 C13         0.7080    0.9480    1.0750 ca        1 JZM     -0.001100
     12 N14         5.2420   -0.7240   -1.7210 nh        1 JZM     -0.924500
     13 S20        -0.4750   -0.0060    1.8850 ss        1 JZM     -0.147800
     14 C22        -1.6770   -0.3570    0.7320 ca        1 JZM     -0.023100
     15 C23        -1.6240   -0.0260   -0.6240 ca        1 JZM     -0.117000
     16 C24        -2.6680   -0.3740   -1.4790 ca        1 JZM     -0.110500
     17 C25        -3.7750   -1.0600   -0.9730 ca        1 JZM      0.011400
     18 CL25       -5.0510   -1.4900   -2.0100 cl        1 JZM     -0.090400
     19 C26        -3.8410   -1.3950    0.3850 ca        1 JZM     -0.110500
     20 C27        -2.7950   -1.0420    1.2300 ca        1 JZM     -0.117000
     21 HN7         0.8200   -1.7220    1.5560 hn        1 JZM      0.449800
     22 HN7A        1.9660   -2.8680    0.9970 hn        1 JZM      0.449800
     23 H8          3.1870    3.5210   -0.5320 ha        1 JZM      0.156000
     24 H9          1.1180    4.3110    0.6220 ha        1 JZM      0.141000
     25 H12        -0.4690    2.6770    1.5950 ha        1 JZM      0.149000
     26 HN14        5.5880   -1.6410   -1.5600 hn        1 JZM      0.424800
     27 HN1A        5.9210   -0.0340   -1.9480 hn        1 JZM      0.424800
     28 H23        -0.7530    0.5160   -1.0250 ha        1 JZM      0.147500
     29 H24        -2.6150   -0.1090   -2.5460 ha        1 JZM      0.151000
     30 H26        -4.7140   -1.9330    0.7840 ha        1 JZM      0.151000
     31 H27        -2.8470   -1.2990    2.3000 ha        1 JZM      0.147500
@<TRIPOS>BOND
     1    1    2 ar  
     2    1    6 ar  
     3    1    8 ar  
     4    2    3 ar  
     5    2   11 ar  
     6    3    4 ar  
     7    3    7 1   
     8    4    5 ar  
     9    5    6 ar  
    10    5   12 1   
    11    7   21 1   
    12    7   22 1   
    13    8    9 ar  
    14    8   23 1   
    15    9   10 ar  
    16    9   24 1   
    17   10   11 ar  
    18   10   25 1   
    19   11   13 1   
    20   12   26 1   
    21   12   27 1   
    22   13   14 1   
    23   14   15 ar  
    24   14   20 ar  
    25   15   16 ar  
    26   15   28 1   
    27   16   17 ar  
    28   16   29 1   
    29   17   18 1   
    30   17   19 ar  
    31   19   20 ar  
    32   19   30 1   
    33   20   31 1   
@<TRIPOS>SUBSTRUCTURE
     1 JZM         1 TEMP              0 ****  ****    0 ROOT
