@<TRIPOS>MOLECULE
JZM
   33    35     1     0     0
SMALL
bcc


@<TRIPOS>ATOM
      1 C1         -0.1200   -0.0930   -0.0290 ca        1 JZM      0.421600
      2 C2          1.2950   -0.3270   -0.2270 ca        1 JZM     -0.172600
      3 C3          2.1220   -0.0770    0.9370 ca        1 JZM      0.583200
      4 N4          1.6270    0.2940    2.1280 nb        1 JZM     -0.684000
      5 C5          0.2470    0.4490    2.1920 ca        1 JZM      0.704900
      6 N6         -0.6330    0.2850    1.1890 nb        1 JZM     -0.582000
      7 N7          3.5830   -0.2160    0.8480 n4        1 JZM     -0.919300
      8 C8         -1.0250   -0.2520   -1.1280 ca        1 JZM     -0.110300
      9 C9         -0.5420   -0.6310   -2.3570 ca        1 JZM     -0.074000
     10 C12         0.8340   -0.8930   -2.5370 ca        1 JZM      0.010000
     11 C13         1.7440   -0.7610   -1.5000 ca        1 JZM     -0.094100
     12 N14        -0.2980    0.8460    3.5230 n4        1 JZM     -0.810300
     13 S20         3.3610   -1.2780   -1.7840 ss        1 JZM     -0.001800
     14 C22         3.9840   -0.3060   -3.0230 ca        1 JZM     -0.162100
     15 C23         4.4250    1.0080   -2.8110 ca        1 JZM     -0.051500
     16 C24         5.0510    1.7150   -3.8280 ca        1 JZM     -0.127500
     17 C25         5.2450    1.1090   -5.0820 ca        1 JZM      0.084400
     18 CL25        6.0080    1.9630   -6.3140 cl        1 JZM      0.008600
     19 C26         4.8020   -0.2020   -5.3030 ca        1 JZM     -0.127500
     20 C27         4.1660   -0.8990   -4.2790 ca        1 JZM     -0.051500
     21 HN7         3.9120   -0.9320    1.5060 hn        1 JZM      0.476133
     22 HN7A        3.8490   -0.5260   -0.2110 hn        1 JZM      0.476133
     23 H8         -2.1060   -0.0660   -0.9750 ha        1 JZM      0.203000
     24 H9         -1.2310   -0.7490   -3.2160 ha        1 JZM      0.202000
     25 H12         1.1860   -1.2220   -3.5360 ha        1 JZM      0.193000
     26 HN14        0.1310    1.7360    3.8180 hn        1 JZM      0.495133
     27 HN1A       -0.0770    0.1140    4.2130 hn        1 JZM      0.495133
     28 H23         4.2790    1.4910   -1.8330 ha        1 JZM      0.140500
     29 H24         5.3990    2.7480   -3.6540 ha        1 JZM      0.181500
     30 H26         4.9560   -0.6830   -6.2850 ha        1 JZM      0.181500
     31 H27         3.8210   -1.9320   -4.4590 ha        1 JZM      0.140500
     32 H73         4.0390    0.6720    1.0840 hn        1 JZM      0.476133
     33 H143       -1.3230    0.9630    3.4650 hn        1 JZM      0.495133
@<TRIPOS>BOND
     1    1    2 ar  
     2    1    6 ar  
     3    1    8 ar  
     4    2    3 ar  
     5    2   11 ar  
     6    3    4 ar  
     7    3    7 1   
     8    4    5 ar  
     9    5    6 ar  
    10    5   12 1   
    11    7   21 1   
    12    7   22 1   
    13    7   32 1   
    14    8    9 ar  
    15    8   23 1   
    16    9   10 ar  
    17    9   24 1   
    18   10   11 ar  
    19   10   25 1   
    20   11   13 1   
    21   12   26 1   
    22   12   27 1   
    23   12   33 1   
    24   13   14 1   
    25   14   15 ar  
    26   14   20 ar  
    27   15   16 ar  
    28   15   28 1   
    29   16   17 ar  
    30   16   29 1   
    31   17   18 1   
    32   17   19 ar  
    33   19   20 ar  
    34   19   30 1   
    35   20   31 1   
@<TRIPOS>SUBSTRUCTURE
     1 JZM         1 TEMP              0 ****  ****    0 ROOT
