@<TRIPOS>MOLECULE
JZM
   31    33     1     0     0
SMALL
bcc


@<TRIPOS>ATOM
      1 C1          0.0000   -0.2530   -0.0130 ca        1 JZM      0.478600
      2 C2          1.2680    0.3790   -0.2370 ca        1 JZM     -0.297600
      3 C3          2.1210    0.4870    0.9550 ca        1 JZM      0.746200
      4 N4          1.7370   -0.0060    2.1560 nb        1 JZM     -0.840000
      5 C5          0.4830   -0.6140    2.2380 ca        1 JZM      0.914900
      6 N6         -0.4050   -0.7290    1.2060 nb        1 JZM     -0.802000
      7 N7          3.3310    1.1390    0.9220 nh        1 JZM     -0.963500
      8 C8         -0.9080   -0.4090   -1.1150 ca        1 JZM     -0.172300
      9 C9         -0.5650    0.0360   -2.3630 ca        1 JZM     -0.110000
     10 C12         0.6790    0.6620   -2.5760 ca        1 JZM     -0.127000
     11 C13         1.5820    0.8370   -1.5430 ca        1 JZM      0.007900
     12 N14         0.1500   -1.1990    3.4660 nh        1 JZM     -0.925500
     13 S20         2.9980    1.7260   -1.9400 ss        1 JZM     -0.132800
     14 C22         3.8160    0.8410   -3.1390 ca        1 JZM     -0.025100
     15 C23         4.9070    1.5070   -3.7190 ca        1 JZM     -0.117500
     16 C24         5.6830    0.8830   -4.6880 ca        1 JZM     -0.110500
     17 C25         5.3680   -0.4200   -5.0920 ca        1 JZM      0.012400
     18 CL25        6.3130   -1.1870   -6.2770 cl        1 JZM     -0.089400
     19 C26         4.2810   -1.0910   -4.5260 ca        1 JZM     -0.110500
     20 C27         3.5110   -0.4570   -3.5530 ca        1 JZM     -0.117500
     21 HN7         3.9130    1.1150    1.7270 hn        1 JZM      0.444300
     22 HN7A        3.7600    1.3240    0.0410 hn        1 JZM      0.444300
     23 H8         -1.8800   -0.8960   -0.9350 ha        1 JZM      0.156000
     24 H9         -1.2560   -0.0830   -3.2120 ha        1 JZM      0.141000
     25 H12         0.9260    1.0220   -3.5880 ha        1 JZM      0.147000
     26 HN14       -0.8130   -1.4000    3.6110 hn        1 JZM      0.425300
     27 HN1A        0.6580   -0.8860    4.2600 hn        1 JZM      0.425300
     28 H23         5.1490    2.5350   -3.4040 ha        1 JZM      0.148000
     29 H24         6.5380    1.4130   -5.1350 ha        1 JZM      0.151000
     30 H26         4.0310   -2.1160   -4.8420 ha        1 JZM      0.151000
     31 H27         2.6530   -0.9890   -3.1100 ha        1 JZM      0.148000
@<TRIPOS>BOND
     1    1    2 ar  
     2    1    6 ar  
     3    1    8 ar  
     4    2    3 ar  
     5    2   11 ar  
     6    3    4 ar  
     7    3    7 1   
     8    4    5 ar  
     9    5    6 ar  
    10    5   12 1   
    11    7   21 1   
    12    7   22 1   
    13    8    9 ar  
    14    8   23 1   
    15    9   10 ar  
    16    9   24 1   
    17   10   11 ar  
    18   10   25 1   
    19   11   13 1   
    20   12   26 1   
    21   12   27 1   
    22   13   14 1   
    23   14   15 ar  
    24   14   20 ar  
    25   15   16 ar  
    26   15   28 1   
    27   16   17 ar  
    28   16   29 1   
    29   17   18 1   
    30   17   19 ar  
    31   19   20 ar  
    32   19   30 1   
    33   20   31 1   
@<TRIPOS>SUBSTRUCTURE
     1 JZM         1 TEMP              0 ****  ****    0 ROOT
