@<TRIPOS>MOLECULE
JZM
   31    33     1     0     0
SMALL
bcc


@<TRIPOS>ATOM
      1 C1         -0.0250   -0.1690   -0.1500 ca        1 JZM      0.475600
      2 C2          1.2000    0.5150   -0.4390 ca        1 JZM     -0.299600
      3 C3          2.1800    0.5130    0.6580 ca        1 JZM      0.751200
      4 N4          1.9730   -0.1880    1.8000 nb        1 JZM     -0.842000
      5 C5          0.7670   -0.8790    1.9230 ca        1 JZM      0.914900
      6 N6         -0.2550   -0.8530    1.0150 nb        1 JZM     -0.804000
      7 N7          3.3280    1.2580    0.5950 nv        1 JZM     -0.971500
      8 C8         -1.0810   -0.1480   -1.1250 ca        1 JZM     -0.165300
      9 C9         -0.9040    0.4860   -2.3240 ca        1 JZM     -0.117000
     10 C12         0.3240    1.1120   -2.6220 ca        1 JZM     -0.106000
     11 C13         1.3610    1.1270   -1.7080 ca        1 JZM     -0.001100
     12 N14         0.6270   -1.6970    3.0520 nv        1 JZM     -0.924500
     13 S20         2.7420    2.0080   -2.2400 ss        1 JZM     -0.147800
     14 C22         3.7170    0.9010   -3.0870 ca        1 JZM     -0.023100
     15 C23         4.8510    1.4560   -3.6990 ca        1 JZM     -0.117000
     16 C24         5.7340    0.6530   -4.4120 ca        1 JZM     -0.110500
     17 C25         5.4840   -0.7210   -4.5200 ca        1 JZM      0.011400
     18 Cl25        6.5600   -1.7060   -5.3910 cl        1 JZM     -0.090400
     19 C26         4.3560   -1.2840   -3.9180 ca        1 JZM     -0.110500
     20 C27         3.4780   -0.4700   -3.2050 ca        1 JZM     -0.117000
     21 HN7         3.9970    1.1980    1.3240 hn        1 JZM      0.449800
     22 HN7A        3.5690    1.7310   -0.2480 hn        1 JZM      0.449800
     23 H8         -2.0300   -0.6570   -0.8870 ha        1 JZM      0.156000
     24 H9         -1.7110    0.5090   -3.0720 ha        1 JZM      0.141000
     25 H12         0.4510    1.5940   -3.6050 ha        1 JZM      0.150000
     26 HN14        1.2290   -1.5020    3.8170 hn        1 JZM      0.424800
     27 HN1A       -0.3000   -1.9720    3.2830 hn        1 JZM      0.424800
     28 H23         5.0420    2.5380   -3.6170 ha        1 JZM      0.147500
     29 H24         6.6210    1.0960   -4.8880 ha        1 JZM      0.151000
     30 H26         4.1570   -2.3630   -4.0030 ha        1 JZM      0.151000
     31 H27         2.5880   -0.9160   -2.7320 ha        1 JZM      0.147500
@<TRIPOS>BOND
     1    1    2 ar  
     2    1    6 ar  
     3    1    8 ar  
     4    2    3 ar  
     5    2   11 ar  
     6    3    4 ar  
     7    3    7 1   
     8    4    5 ar  
     9    5    6 ar  
    10    5   12 1   
    11    7   21 1   
    12    7   22 1   
    13    8    9 ar  
    14    8   23 1   
    15    9   10 ar  
    16    9   24 1   
    17   10   11 ar  
    18   10   25 1   
    19   11   13 1   
    20   12   26 1   
    21   12   27 1   
    22   13   14 1   
    23   14   15 ar  
    24   14   20 ar  
    25   15   16 ar  
    26   15   28 1   
    27   16   17 ar  
    28   16   29 1   
    29   17   18 1   
    30   17   19 ar  
    31   19   20 ar  
    32   19   30 1   
    33   20   31 1   
@<TRIPOS>SUBSTRUCTURE
     1 JZM         1 TEMP              0 ****  ****    0 ROOT
