@<TRIPOS>MOLECULE
JZN
   84    88     1     0     0
SMALL
bcc


@<TRIPOS>ATOM
      1 C1         10.3920    1.1780   -1.8930 c3        1 JZN      0.111700
      2 F1          6.6390    2.4450    3.0250 f         1 JZN     -0.139900
      3 N1          1.6620   -1.4320   -0.9520 nh        1 JZN     -0.735600
      4 O1          9.2870    0.4400   -1.3810 os        1 JZN     -0.332900
      5 C2          8.6230    0.9900   -0.2980 ca        1 JZN      0.116100
      6 F2          2.5480    1.3580   -1.0450 f         1 JZN     -0.229633
      7 N2         -3.0290   -1.1720   -0.8850 na        1 JZN      0.139800
      8 O2          3.9750   -0.6100   -2.2750 oh        1 JZN     -0.574800
      9 C3          9.2040    2.0040    0.4740 ca        1 JZN     -0.178000
     10 F3          4.6500    1.8300   -0.9490 f         1 JZN     -0.229633
     11 N3         -2.5350   -0.4290   -1.9120 nc        1 JZN     -0.503100
     12 O3         -8.3100    0.5370   -2.0860 o         1 JZN     -0.609100
     13 C4          8.5500    2.5060    1.5930 ca        1 JZN     -0.133000
     14 F4          3.6040    1.1500    0.8360 f         1 JZN     -0.229633
     15 N4         -7.9460    1.4110   -0.0050 n         1 JZN     -0.455800
     16 C5          7.2980    1.9790    1.9360 ca        1 JZN      0.100900
     17 C6          6.7130    0.9660    1.1530 ca        1 JZN     -0.146000
     18 C7          7.3480    0.4490    0.0250 ca        1 JZN     -0.058300
     19 C8          6.7430   -0.6720   -0.7890 c3        1 JZN      0.022300
     20 C9          6.6730   -0.2980   -2.2640 c3        1 JZN     -0.094100
     21 C10         7.6720   -1.8900   -0.6380 c3        1 JZN     -0.094100
     22 C11         5.3600   -1.1580   -0.3110 c3        1 JZN     -0.102400
     23 C12         4.0420   -0.5940   -0.8620 c3        1 JZN      0.123800
     24 C13         2.9090   -1.4660   -0.2310 c3        1 JZN      0.147800
     25 C14         0.4880   -1.7700   -0.2720 ca        1 JZN      0.225600
     26 C15         0.4730   -2.5910    0.8710 ca        1 JZN     -0.230000
     27 C16        -0.7310   -2.9820    1.4860 ca        1 JZN     -0.003300
     28 C17        -0.6540   -3.8410    2.6930 c3        1 JZN     -0.059800
     29 C18        -1.9710   -2.5860    0.9950 ca        1 JZN     -0.187000
     30 C19        -1.9830   -1.7790   -0.1490 ca        1 JZN      0.007800
     31 C20        -1.1960   -0.5030   -1.8790 cd        1 JZN      0.370800
     32 C21        -0.7610   -1.3520   -0.7780 ca        1 JZN     -0.272900
     33 C22        -4.4170   -1.4050   -0.7060 ca        1 JZN      0.041800
     34 C23        -4.8860   -2.6750   -0.3080 ca        1 JZN     -0.138000
     35 C24        -6.2480   -2.8820   -0.1090 ca        1 JZN     -0.117000
     36 C25        -7.1630   -1.8510   -0.3140 ca        1 JZN     -0.103000
     37 C26        -6.7020   -0.5980   -0.7240 ca        1 JZN     -0.115600
     38 C27        -5.3410   -0.3620   -0.9240 ca        1 JZN     -0.102000
     39 C28        -7.6870    0.4890   -1.0050 c         1 JZN      0.676700
     40 C29        -7.1090    1.5640    1.1730 c3        1 JZN      0.085000
     41 C30        -7.2080    3.0270    1.6330 c3        1 JZN     -0.091400
     42 C31        -8.1930    3.7110    0.6930 c3        1 JZN     -0.088400
     43 C32        -8.7210    2.6200   -0.2640 c3        1 JZN      0.030700
     44 C33       -10.2390    2.4010   -0.0710 c         1 JZN      0.653100
     45 C34         3.7340    0.9180   -0.5100 c3        1 JZN      0.636900
     46 H1         10.6350    0.6460   -2.8480 h1        1 JZN      0.046367
     47 H1A        10.1100    2.2400   -2.0940 h1        1 JZN      0.046367
     48 H1B        11.2560    1.1250   -1.1870 h1        1 JZN      0.046367
     49 HN1         1.5690   -0.6580   -1.5810 hn        1 JZN      0.425800
     50 HO2         4.0500   -1.5330   -2.5530 ho        1 JZN      0.429000
     51 H3         10.1890    2.4150    0.2090 ha        1 JZN      0.143000
     52 H4          9.0030    3.3010    2.2020 ha        1 JZN      0.151000
     53 HN5       -11.8250    1.3330   -0.7890 hn        1 JZN      0.323000
     54 HN5A      -10.3430    0.9760   -1.5580 hn        1 JZN      0.323000
     55 H6          5.7150    0.6190    1.4620 ha        1 JZN      0.150000
     56 H9          7.6890   -0.0880   -2.6760 hc        1 JZN      0.046700
     57 H9A         6.2380   -1.1470   -2.8470 hc        1 JZN      0.046700
     58 H9B         6.0320    0.6040   -2.4090 hc        1 JZN      0.046700
     59 H10         7.6750   -2.2440    0.4200 hc        1 JZN      0.046700
     60 H10A        7.3270   -2.7210   -1.2990 hc        1 JZN      0.046700
     61 H10B        8.7150   -1.6250   -0.9310 hc        1 JZN      0.046700
     62 H11         5.3170   -2.2550   -0.5800 hc        1 JZN      0.061200
     63 H11A        5.3080   -1.1080    0.8080 hc        1 JZN      0.061200
     64 H13         2.7880   -1.1370    0.8430 h1        1 JZN      0.061700
     65 H13A        3.2510   -2.5410   -0.2220 h1        1 JZN      0.061700
     66 H15         1.4160   -2.9500    1.3070 ha        1 JZN      0.133000
     67 H17        -0.0630   -3.3300    3.4930 hc        1 JZN      0.048033
     68 H17A       -1.6710   -4.0690    3.0980 hc        1 JZN      0.048033
     69 H17B       -0.1470   -4.8080    2.4470 hc        1 JZN      0.048033
     70 H18        -2.9020   -2.8830    1.4960 ha        1 JZN      0.144000
     71 H20        -0.5670    0.0210   -2.6010 h4        1 JZN      0.057800
     72 H23        -4.1820   -3.5110   -0.1670 ha        1 JZN      0.151000
     73 H24        -6.6050   -3.8750    0.2020 ha        1 JZN      0.142000
     74 H25        -8.2390   -2.0230   -0.1650 ha        1 JZN      0.149000
     75 H27        -5.0010    0.6290   -1.2660 ha        1 JZN      0.163000
     76 H29        -7.4840    0.8710    1.9760 h1        1 JZN      0.053700
     77 H29A       -6.0430    1.2870    0.9410 h1        1 JZN      0.053700
     78 H30        -7.5680    3.0730    2.6900 hc        1 JZN      0.057200
     79 H30A       -6.2050    3.5170    1.5890 hc        1 JZN      0.057200
     80 H31        -9.0360    4.1790    1.2620 hc        1 JZN      0.075700
     81 H31A       -7.6880    4.5120    0.0990 hc        1 JZN      0.075700
     82 H32        -8.5740    2.9380   -1.3400 h1        1 JZN      0.083700
     83 O4        -10.8990    3.0640    0.7560 o         1 JZN     -0.625100
     84 N5        -10.8490    1.4730   -0.8670 n         1 JZN     -0.665000
@<TRIPOS>BOND
     1    1    4 1   
     2    1   46 1   
     3    1   47 1   
     4    1   48 1   
     5    2   16 1   
     6    3   24 1   
     7    3   25 1   
     8    3   49 1   
     9    4    5 1   
    10    5    9 ar  
    11    5   18 ar  
    12    6   45 1   
    13    7   11 1   
    14    7   30 1   
    15    7   33 1   
    16    8   23 1   
    17    8   50 1   
    18    9   13 ar  
    19    9   51 1   
    20   10   45 1   
    21   11   31 2   
    22   12   39 2   
    23   13   16 ar  
    24   13   52 1   
    25   14   45 1   
    26   15   39 1   
    27   15   40 1   
    28   15   43 1   
    29   16   17 ar  
    30   17   18 ar  
    31   17   55 1   
    32   18   19 1   
    33   19   20 1   
    34   19   21 1   
    35   19   22 1   
    36   20   56 1   
    37   20   57 1   
    38   20   58 1   
    39   21   59 1   
    40   21   60 1   
    41   21   61 1   
    42   22   23 1   
    43   22   62 1   
    44   22   63 1   
    45   23   24 1   
    46   23   45 1   
    47   24   64 1   
    48   24   65 1   
    49   25   26 ar  
    50   25   32 ar  
    51   26   27 ar  
    52   26   66 1   
    53   27   28 1   
    54   27   29 ar  
    55   28   67 1   
    56   28   68 1   
    57   28   69 1   
    58   29   30 ar  
    59   29   70 1   
    60   30   32 ar  
    61   31   32 1   
    62   31   71 1   
    63   33   34 ar  
    64   33   38 ar  
    65   34   35 ar  
    66   34   72 1   
    67   35   36 ar  
    68   35   73 1   
    69   36   37 ar  
    70   36   74 1   
    71   37   38 ar  
    72   37   39 1   
    73   38   75 1   
    74   40   41 1   
    75   40   76 1   
    76   40   77 1   
    77   41   42 1   
    78   41   78 1   
    79   41   79 1   
    80   42   43 1   
    81   42   80 1   
    82   42   81 1   
    83   43   44 1   
    84   43   82 1   
    85   44   83 2   
    86   44   84 1   
    87   53   84 1   
    88   54   84 1   
@<TRIPOS>SUBSTRUCTURE
     1 JZN         1 TEMP              0 ****  ****    0 ROOT
