@<TRIPOS>MOLECULE
JZN
   84    80     1     0     0
SMALL
bcc


@<TRIPOS>ATOM
      1 C1         -8.8330    2.3880   -4.3760 c3        1 JZN     -0.079000
      2 F1         -3.1700    0.7060   -6.4160 f         1 JZN     -0.108000
      3 N1         -1.2740    1.9820    0.4140 n3        1 JZN     -0.271000
      4 O1         -7.6240    2.5510   -3.6710 os        1 JZN     -0.209000
      5 C2         -6.4530    2.2920   -4.4530 c2        1 JZN      0.075000
      6 F2         -2.9610    5.3350   -0.2300 f         1 JZN     -0.161667
      7 N2          2.0260   -1.1660    1.2810 n3        1 JZN     -0.125000
      8 O2         -3.7800    1.9190   -0.2550 oh        1 JZN     -0.303000
      9 C3         -6.5890    1.7610   -5.7410 c2        1 JZN     -0.182000
     10 F3         -3.6120    4.0130    1.3070 f         1 JZN     -0.161667
     11 N3          0.8050   -1.7560    0.9850 n2        1 JZN     -0.030000
     12 O3          3.3850   -6.2180    2.4280 o         1 JZN     -0.340000
     13 C4         -5.4890    1.2060   -6.3860 c1        1 JZN     -0.131000
     14 F4         -4.9600    4.5240   -0.3070 f         1 JZN     -0.161667
     15 N4          5.5730   -5.6390    2.2650 n         1 JZN     -0.317000
     16 O4          5.9840   -4.0890    4.5660 o         1 JZN     -0.358000
     17 C5         -4.2480    1.1750   -5.7540 c1        1 JZN      0.056000
     18 N5          7.8670   -2.8710    3.9470 n         1 JZN     -0.443000
     19 C6         -4.1040    1.7060   -4.4610 c1        1 JZN     -0.149000
     20 C7         -5.2030    2.2630   -3.8120 c1        1 JZN     -0.057000
     21 C8         -5.0420    2.8760   -2.4140 c3        1 JZN      0.016000
     22 C9         -5.9650    4.1620   -2.2920 c3        1 JZN     -0.217000
     23 C10        -5.4590    1.8400   -1.3570 c3        1 JZN     -0.217000
     24 C11        -3.5480    3.2950   -2.1940 c3        1 JZN     -0.182000
     25 C12        -3.1770    3.1090   -0.7560 c3        1 JZN      0.024000
     26 C13        -1.6170    3.0050   -0.6190 c3        1 JZN     -0.082000
     27 C14         0.1150    1.7850    0.8140 c2        1 JZN      0.145000
     28 C15         0.9860    2.8270    1.1040 c2        1 JZN     -0.251000
     29 C16         2.3000    2.5560    1.4460 c1        1 JZN      0.003000
     30 C17         3.3730    3.6630    1.6780 c2        1 JZN     -0.185000
     31 C18         2.7430    1.2600    1.4980 c2        1 JZN     -0.186000
     32 C19         1.8690    0.2080    1.2070 c1        1 JZN      0.053000
     33 C20        -0.0970   -0.7590    0.7290 c1        1 JZN     -0.134000
     34 C21         0.5660    0.4700    0.8670 c1        1 JZN     -0.187000
     35 C22         2.6610   -1.8920    2.2420 c1        1 JZN      0.074000
     36 C23         2.6390   -1.4610    3.5700 c1        1 JZN     -0.129500
     37 C24         3.1770   -2.2590    4.5640 c1        1 JZN     -0.129500
     38 C25         3.7370   -3.4820    4.2420 c1        1 JZN     -0.100000
     39 C26         3.7580   -3.9090    2.9200 c1        1 JZN     -0.106000
     40 C27         3.2160   -3.1050    1.9230 c1        1 JZN     -0.094000
     41 C28         4.2030   -5.3680    2.5760 c2        1 JZN      0.358000
     42 C29         6.1540   -6.9800    1.7290 c3        1 JZN     -0.025000
     43 C30         7.3580   -6.7150    1.3550 c3        1 JZN     -0.173000
     44 C31         7.8650   -5.4840    2.2450 c3        1 JZN     -0.166000
     45 C32         6.7940   -4.6370    2.3950 c3        1 JZN      0.020000
     46 C33         6.8000   -3.8350    3.6900 c2        1 JZN      0.287000
     47 C34        -3.6810    4.2840    0.0310 c3        1 JZN      0.425000
     48 H1         -9.6070    2.7730   -3.8200 h1        1 JZN      0.086667
     49 H1A        -8.7800    2.8430   -5.1980 h1        1 JZN      0.086667
     50 H1B        -8.9940    1.4050   -4.5440 h1        1 JZN      0.086667
     51 HN1        -1.9180    1.4890    0.7840 hn        1 JZN      0.218000
     52 HO2        -3.4620    1.2130   -0.7020 ho        1 JZN      0.228000
     53 H3         -7.4620    1.7800   -6.1920 ha        1 JZN      0.144000
     54 H4         -5.5940    0.8050   -7.3580 ha        1 JZN      0.151000
     55 HN5         7.8360   -2.3460    4.6920 hn        1 JZN      0.225000
     56 HN5A        8.5450   -2.7760    3.3530 hn        1 JZN      0.225000
     57 H6         -3.1890    1.6830   -3.9950 ha        1 JZN      0.146000
     58 H9         -6.8500    3.9010   -2.1800 hc        1 JZN      0.089167
     59 H9A        -5.8820    4.7200   -3.1390 hc        1 JZN      0.089167
     60 H9B        -5.6740    4.7110   -1.4970 hc        1 JZN      0.089167
     61 H10        -5.1750    2.1340   -0.4880 hc        1 JZN      0.089167
     62 H10A       -6.4700    1.7360   -1.3660 hc        1 JZN      0.089167
     63 H10B       -5.0230    0.9430   -1.5710 hc        1 JZN      0.089167
     64 H11        -2.9510    2.7340   -2.7740 hc        1 JZN      0.099000
     65 H11A       -3.4370    4.2710   -2.4400 hc        1 JZN      0.099000
     66 H13        -1.2110    2.7360   -1.5130 h1        1 JZN      0.116000
     67 H13A       -1.2630    3.8600   -0.3500 h1        1 JZN      0.116000
     68 H15         0.6800    3.7230    1.0710 ha        1 JZN      0.127000
     69 H17         3.0350    4.5080    1.3650 ha        1 JZN      0.087000
     70 H17A        3.5820    3.7300    2.6770 ha        1 JZN      0.087000
     71 H17B        4.2100    3.4310    1.1760 ha        1 JZN      0.087000
     72 H18         3.6650    1.0720    1.7360 ha        1 JZN      0.145000
     73 H20        -1.0430   -0.8830    0.4910 DU        1 JZN      0.187000
     74 H23         2.2410   -0.5940    3.7960 ha        1 JZN      0.146000
     75 H24         3.1620   -1.9510    5.5170 ha        1 JZN      0.146000
     76 H25         4.1260   -4.0570    4.9570 ha        1 JZN      0.172000
     77 H27         3.2300   -3.4040    0.9980 ha        1 JZN      0.165000
     78 H29         6.1590   -7.6820    2.4670 h1        1 JZN      0.105000
     79 H29A        5.6050   -7.3090    0.9350 h1        1 JZN      0.105000
     80 H30         7.9290   -7.4880    1.4990 hc        1 JZN      0.096500
     81 H30A        7.3630   -6.4600    0.3910 hc        1 JZN      0.096500
     82 H31         8.1920   -5.8280    3.1880 hc        1 JZN      0.096500
     83 H31A        8.5760   -5.0350    1.8000 hc        1 JZN      0.096500
     84 H32         6.7770   -3.9250    1.7090 h1        1 JZN      0.110000
@<TRIPOS>BOND
     1    1    4 1   
     2    1   48 1   
     3    1   49 1   
     4    1   50 1   
     5    2   17 1   
     6    3   26 1   
     7    3   27 1   
     8    3   51 1   
     9    4    5 1   
    10    5    9 1   
    11    5   20 1   
    12    6   47 1   
    13    7   11 1   
    14    7   32 1   
    15    7   35 1   
    16    8   25 1   
    17    8   52 1   
    18    9   13 1   
    19    9   53 1   
    20   10   47 1   
    21   11   33 1   
    22   12   41 1   
    23   13   54 1   
    24   14   47 1   
    25   15   41 1   
    26   15   42 1   
    27   15   45 1   
    28   16   46 1   
    29   17   19 1   
    30   18   46 1   
    31   18   55 1   
    32   18   56 1   
    33   19   57 1   
    34   20   21 1   
    35   21   22 1   
    36   21   23 1   
    37   21   24 1   
    38   22   58 1   
    39   22   59 1   
    40   22   60 1   
    41   23   61 1   
    42   23   62 1   
    43   23   63 1   
    44   24   25 1   
    45   24   64 1   
    46   24   65 1   
    47   25   26 1   
    48   25   47 1   
    49   26   66 1   
    50   26   67 1   
    51   27   28 1   
    52   27   34 1   
    53   28   29 1   
    54   28   68 1   
    55   29   31 1   
    56   30   69 1   
    57   30   70 1   
    58   30   71 1   
    59   31   32 1   
    60   31   72 1   
    61   33   34 1   
    62   35   40 1   
    63   36   37 1   
    64   36   74 1   
    65   37   75 1   
    66   38   39 1   
    67   38   76 1   
    68   39   41 1   
    69   40   77 1   
    70   42   43 1   
    71   42   78 1   
    72   42   79 1   
    73   43   44 1   
    74   43   80 1   
    75   43   81 1   
    76   44   45 1   
    77   44   82 1   
    78   44   83 1   
    79   45   46 1   
    80   45   84 1   
@<TRIPOS>SUBSTRUCTURE
     1 JZN         1 TEMP              0 ****  ****    0 ROOT
