@<TRIPOS>MOLECULE
JZN
   85    86     1     0     0
SMALL
bcc


@<TRIPOS>ATOM
      1 C1          0.6080   -1.7650    1.9000 c1        1 JZN     -0.014000
      2 F1          3.7860    3.4150    3.4170 f         1 JZN     -0.095000
      3 N1          8.3530   -3.2900    0.2180 n3        1 JZN     -0.133000
      4 O1          1.5700   -1.1540    1.2240 os        1 JZN     -0.163000
      5 C2          2.1260   -0.0060    1.8300 ca        1 JZN      0.033000
      6 F2          5.8340   -4.6270    0.8090 f         1 JZN     -0.160667
      7 N2         11.2420   -6.7660    0.2430 n3        1 JZN     -0.046000
      8 O2          5.9210   -2.4160   -0.8260 oh        1 JZN     -0.390000
      9 C3          1.3880    0.7450    2.7520 ca        1 JZN     -0.099000
     10 F3          4.1610   -3.4140    1.4590 f         1 JZN     -0.160667
     11 N3          9.9380   -6.9990   -0.3770 n2        1 JZN     -0.115000
     12 O3         11.1490  -11.8880    0.7510 o         1 JZN     -0.202000
     13 C4          1.9420    1.8980    3.2920 ca        1 JZN     -0.144000
     14 F4          5.9790   -3.4770    2.6510 f         1 JZN     -0.160667
     15 N4         10.4650  -11.6160    2.9430 n         1 JZN     -0.123000
     16 C5          3.2370    2.2910    2.9000 ca        1 JZN      0.096000
     17 C6          3.9700    1.5250    1.9770 ca        1 JZN     -0.161000
     18 C7          3.4210    0.3600    1.4330 ca        1 JZN     -0.058000
     19 C8          4.2070   -0.4570    0.4530 c3        1 JZN     -0.052000
     20 C9          3.3590   -2.8730   -1.5570 c1        1 JZN     -0.045000
     21 C10         4.4170    0.3180   -0.8350 c3        1 JZN     -0.219000
     22 C11         5.5400   -0.8720    1.0720 c3        1 JZN     -0.187000
     23 C12         6.1200   -2.1830    0.5310 c3        1 JZN      0.091000
     24 C13         7.6600   -2.1370    0.7570 c3        1 JZN     -0.078000
     25 C14         9.6330   -3.5500    0.4210 c2        1 JZN      0.241000
     26 C15        10.5190   -2.7750    1.2710 c2        1 JZN     -0.274000
     27 C16        11.7060   -3.2900    1.7060 c2        1 JZN      0.107000
     28 C17        12.6180   -2.5110    2.5700 c3        1 JZN     -0.219000
     29 C18        12.0860   -4.6670    1.4240 c2        1 JZN     -0.149000
     30 C19        11.3730   -5.3530    0.5070 c2        1 JZN     -0.013000
     31 C20         9.3730   -5.8810   -0.6540 c1        1 JZN     -0.241000
     32 C21        10.2700   -4.6860   -0.3050 c3        1 JZN     -0.143000
     33 C22        12.1430   -7.7020    0.4980 c2        1 JZN      0.211000
     34 C23        13.5140   -7.4280    1.0120 c3        1 JZN     -0.258000
     35 C24        11.9120   -8.5790    3.8260 c1        1 JZN     -0.210000
     36 C25        11.4690   -9.0180    2.7720 c1        1 JZN     -0.697000
     37 C26        10.9480   -9.5580    1.5600 c3        1 JZN      0.070000
     38 C27        11.7940   -9.1600    0.3390 c3        1 JZN     -0.150000
     39 C28        10.9030  -11.0860    1.6390 c2        1 JZN      0.314000
     40 C29         9.0200  -11.8450    3.1660 c3        1 JZN     -0.078000
     41 C30         8.8720  -12.2120    4.6580 c3        1 JZN     -0.182000
     42 C31        10.2930  -12.1510    5.2290 c3        1 JZN     -0.179000
     43 C32        11.1610  -11.7760    4.0500 c2        1 JZN      0.169000
     44 C33        12.6710  -11.7740    4.2220 c2        1 JZN      0.315000
     45 C34         5.5260   -3.4090    1.3580 c3        1 JZN      0.359000
     46 H1          2.0180   -3.5290    2.6800 ha        1 JZN      0.006000
     47 H1A         2.0750   -3.0830    3.1900 ha        1 JZN      0.006000
     48 H1B         0.2790   -2.6260    1.2590 ha        1 JZN      0.037000
     49 HN1         7.8150   -3.9180   -0.3790 hn        1 JZN      0.322000
     50 HO2         4.9260   -2.5330   -1.0290 ho        1 JZN      0.304000
     51 H3          0.3820    0.4020    3.0490 ha        1 JZN      0.183000
     52 H4          1.3820    2.5060    4.0180 ha        1 JZN      0.166000
     53 HN5        12.7530   -9.8350    4.9450 hn        1 JZN      0.269500
     54 HN5A       10.3980  -11.3700    6.0290 hc        1 JZN      0.162500
     55 H6          4.9780    1.8500    1.6810 ha        1 JZN      0.150000
     56 H9          2.7070   -3.5950   -1.0500 ha        1 JZN      0.065500
     57 H9A         3.6180   -1.3940    0.2170 hc        1 JZN      0.103000
     58 H9B         2.9180   -2.4050   -2.4450 ha        1 JZN      0.065500
     59 H10         5.0030   -0.2980   -1.5600 hc        1 JZN      0.089667
     60 H10A        3.4310    0.5750   -1.2930 hc        1 JZN      0.089667
     61 H10B        4.9710    1.2670   -0.6390 hc        1 JZN      0.089667
     62 H11         5.4160   -0.9860    2.1830 hc        1 JZN      0.109500
     63 H11A        6.2810   -0.0470    0.8960 hc        1 JZN      0.109500
     64 H13         7.8540   -2.0610    1.8650 h1        1 JZN      0.138500
     65 H13A        8.0550   -1.2140    0.2400 h1        1 JZN      0.138500
     66 H15        10.2020   -1.7660    1.5790 ha        1 JZN      0.169000
     67 H17        13.6410   -2.4790    2.1130 hc        1 JZN      0.120667
     68 H17A       12.2600   -1.4620    2.7170 hc        1 JZN      0.120667
     69 H17B       12.7030   -3.0030    3.5750 hc        1 JZN      0.120667
     70 H18        12.8870   -5.1060    2.0410 ha        1 JZN      0.180000
     71 H20        10.6890   -4.2780   -1.2760 hc        1 JZN      0.193000
     72 H23        13.8960   -6.4160    0.7320 hc        1 JZN      0.137667
     73 H24        14.2290   -8.1940    0.6170 hc        1 JZN      0.137667
     74 H25        13.4820   -7.5280    2.1360 hc        1 JZN      0.137667
     75 H27         9.8790   -9.2280    1.3840 hc        1 JZN      0.139000
     76 H29        12.7370   -9.7660    0.3070 hc        1 JZN      0.136500
     77 H29A       11.2250   -9.3600   -0.6080 hc        1 JZN      0.136500
     78 H30         8.4600  -10.9050    2.9090 h1        1 JZN      0.142500
     79 H30A        8.6860  -12.6790    2.4910 h1        1 JZN      0.142500
     80 H31         8.1990  -11.4850    5.1740 hc        1 JZN      0.128500
     81 H31A        8.4370  -13.2350    4.7680 hc        1 JZN      0.128500
     82 H32        10.6260  -13.1340    5.6540 hc        1 JZN      0.162500
     83 O4         13.2810  -12.7830    3.8200 o         1 JZN     -0.327000
     84 N5         13.2140  -10.7460    4.9240 n         1 JZN     -0.381000
     85 H53        14.2030  -10.7580    5.0340 hn        1 JZN      0.269500
@<TRIPOS>BOND
     1    1    4 1   
     2    1   48 1   
     3    2   16 1   
     4    3   24 1   
     5    3   25 1   
     6    3   49 1   
     7    4    5 1   
     8    5    9 1   
     9    5   18 1   
    10    6   45 1   
    11    7   11 1   
    12    7   30 1   
    13    7   33 1   
    14    8   23 1   
    15    8   50 1   
    16    9   13 1   
    17    9   51 1   
    18   10   45 1   
    19   11   31 1   
    20   12   39 1   
    21   13   16 1   
    22   13   52 1   
    23   14   45 1   
    24   15   39 1   
    25   15   40 1   
    26   15   43 1   
    27   16   17 1   
    28   17   18 1   
    29   17   55 1   
    30   18   19 1   
    31   19   21 1   
    32   19   22 1   
    33   19   57 1   
    34   20   56 1   
    35   20   58 1   
    36   21   59 1   
    37   21   60 1   
    38   21   61 1   
    39   22   23 1   
    40   22   62 1   
    41   22   63 1   
    42   23   24 1   
    43   23   45 1   
    44   24   64 1   
    45   24   65 1   
    46   25   26 1   
    47   25   32 1   
    48   26   27 1   
    49   26   66 1   
    50   27   28 1   
    51   27   29 1   
    52   28   67 1   
    53   28   68 1   
    54   28   69 1   
    55   29   30 1   
    56   29   70 1   
    57   30   32 1   
    58   31   32 1   
    59   32   71 1   
    60   33   34 1   
    61   33   38 1   
    62   34   72 1   
    63   34   73 1   
    64   34   74 1   
    65   35   36 1   
    66   36   37 1   
    67   37   38 1   
    68   37   39 1   
    69   37   75 1   
    70   38   76 1   
    71   38   77 1   
    72   40   41 1   
    73   40   78 1   
    74   40   79 1   
    75   41   42 1   
    76   41   80 1   
    77   41   81 1   
    78   42   43 1   
    79   42   54 1   
    80   42   82 1   
    81   43   44 1   
    82   44   83 1   
    83   44   84 1   
    84   46   47 1   
    85   53   84 1   
    86   84   85 1   
@<TRIPOS>SUBSTRUCTURE
     1 JZN         1 TEMP              0 ****  ****    0 ROOT
