@<TRIPOS>MOLECULE
JZN
   86    87     1     0     0
SMALL
bcc


@<TRIPOS>ATOM
      1 C1          0.8540    2.4090   -0.7860 c1        1 JZN     -0.008000
      2 F1          1.4040    2.4760    3.3910 f         1 JZN     -0.101000
      3 N1          7.7180   -3.5420    0.6110 n4        1 JZN      0.011000
      4 O1          1.5250    1.3420   -0.6490 os        1 JZN     -0.084000
      5 C2          1.3870    0.4020    0.4620 c3        1 JZN      0.031000
      6 F2          5.2610   -4.4760   -0.3990 f         1 JZN     -0.158000
      7 N2         10.7190   -6.5560    2.0630 n3        1 JZN      0.006000
      8 O2          6.1900   -1.7550   -0.7500 oh        1 JZN     -0.466000
      9 C3          0.5460    0.8170    1.5890 cu        1 JZN     -0.241000
     10 F3          3.6540   -3.0900   -0.8280 f         1 JZN     -0.158000
     11 N3          9.4310   -7.0960    1.6750 n2        1 JZN     -0.130000
     12 O3         13.2810  -13.3520    3.6050 o         1 JZN     -0.367000
     13 C4          0.0840    0.4590    2.7750 cu        1 JZN     -0.043000
     14 F4          3.9330   -3.8540    1.2000 f         1 JZN     -0.158000
     15 N4         11.7200  -11.6150    3.1410 n2        1 JZN     -0.236000
     16 C5          1.3690    1.2470    2.8170 cx        1 JZN      0.054000
     17 C6          2.7100    0.6420    2.4790 c2        1 JZN     -0.129000
     18 C7          2.7460    0.2580    1.1800 c2        1 JZN     -0.129000
     19 C8          3.9000   -0.2280    0.3870 c3        1 JZN     -0.054000
     20 C9          4.8320   -0.2990   -2.4450 c1        1 JZN     -0.048000
     21 C10         4.6170    0.9640   -0.2330 c3        1 JZN     -0.241000
     22 C11         4.8540   -1.0750    1.2210 c3        1 JZN     -0.190000
     23 C12         5.5910   -2.1620    0.4300 c3        1 JZN      0.095000
     24 C13         6.7250   -2.7050    1.3540 c3        1 JZN     -0.141000
     25 C14         9.0060   -3.6390    1.2880 c2        1 JZN     -0.073000
     26 C15        10.0080   -2.7330    1.1670 c2        1 JZN     -0.088000
     27 C16        11.2960   -2.9610    1.8160 c2        1 JZN      0.026000
     28 C17        12.2430   -1.8250    1.8170 c3        1 JZN     -0.212000
     29 C18        11.6210   -4.1720    2.3520 c2        1 JZN     -0.157000
     30 C19        10.6520   -5.2310    2.2690 c2        1 JZN      0.048000
     31 C20         8.5530   -6.1480    1.6450 c1        1 JZN     -0.231000
     32 C21         9.1750   -4.8340    2.1450 c3        1 JZN     -0.141000
     33 C22        11.8500   -7.4070    2.2610 c2        1 JZN     -0.035000
     34 C23        11.8090   -8.6900    1.4620 c3        1 JZN     -0.065000
     35 C24        12.9110   -9.5360    1.5870 c1        1 JZN     -0.009000
     36 C25        13.8420  -10.4720    1.4400 c2        1 JZN      0.049000
     37 C26        13.9060  -11.6960    2.0740 c2        1 JZN     -0.275000
     38 C27        12.8400   -7.1280    3.1290 c2        1 JZN     -0.163000
     39 C28        12.9510  -12.3170    2.9870 c2        1 JZN      0.343000
     40 C29        10.1170  -12.0770    6.4100 c3        1 JZN     -0.224000
     41 C30         9.0870  -12.5980    5.4410 c3        1 JZN     -0.120000
     42 C31         9.5310  -12.6030    4.0270 c2        1 JZN     -0.127000
     43 C32        10.6850  -12.1480    3.6040 c1        1 JZN      0.044000
     44 C33        15.6490  -13.1290    2.6680 c2        1 JZN      0.264000
     45 C34         4.6060   -3.3780    0.1080 c3        1 JZN      0.363000
     46 H1         -1.0780    1.4910   -1.8820 ha        1 JZN      0.005000
     47 H1A        -0.7930    1.8190   -2.4040 ha        1 JZN      0.005000
     48 H1B         0.0990    2.7390   -0.0460 ha        1 JZN      0.072000
     49 HN1         7.8400   -3.1290   -0.3300 hn        1 JZN      0.292000
     50 HO2         5.5220   -1.2340   -1.4020 ho        1 JZN      0.334000
     51 H3          1.0540   -0.5630   -0.0040 h1        1 JZN      0.145000
     52 H4         -0.6840    0.0370    3.3950 ha        1 JZN      0.216000
     53 HN5        16.5700  -14.3870    1.3560 hn        1 JZN      0.287000
     54 HN5A       15.4980  -12.8250    3.7300 h5        1 JZN      0.246000
     55 H6          3.5230    0.6300    3.2060 ha        1 JZN      0.158000
     56 H9          3.7610   -0.3390   -2.6780 ha        1 JZN      0.084500
     57 H9A         3.4870   -0.8730   -0.4460 hc        1 JZN      0.112000
     58 H9B         5.3980    0.4580   -3.0000 ha        1 JZN      0.084500
     59 H10         4.0080    1.3770   -1.0790 hc        1 JZN      0.103000
     60 H10A        5.6480    0.6910   -0.5710 hc        1 JZN      0.103000
     61 H10B        4.7270    1.7900    0.5150 hc        1 JZN      0.103000
     62 H11         4.2820   -1.5770    2.0480 hc        1 JZN      0.114500
     63 H11A        5.6140   -0.3970    1.6920 hc        1 JZN      0.114500
     64 H13         7.2740   -1.8260    1.7960 hx        1 JZN      0.153000
     65 H13A        6.2700   -3.3260    2.1760 hx        1 JZN      0.153000
     66 H15         9.9120   -1.8070    0.5710 ha        1 JZN      0.180000
     67 H17        12.4920   -1.5280    0.7650 hc        1 JZN      0.120333
     68 H17A       11.7820   -0.9400    2.3280 hc        1 JZN      0.120333
     69 H17B       13.1940   -2.0810    2.3460 hc        1 JZN      0.120333
     70 H18        12.6110   -4.3590    2.7950 ha        1 JZN      0.177000
     71 H20         8.7510   -4.6460    3.1780 hc        1 JZN      0.200000
     72 H23        11.5710   -8.4800    0.3710 hc        1 JZN      0.219500
     73 H24        10.9170   -9.3290    1.8210 hc        1 JZN      0.219500
     74 H25        14.6750  -10.1980    0.7400 ha        1 JZN      0.224000
     75 H27        13.6850   -7.8220    3.2580 ha        1 JZN      0.152500
     76 H29        10.3970  -11.0230    6.1660 hc        1 JZN      0.084667
     77 H29A       12.8690   -6.2330    3.7650 ha        1 JZN      0.152500
     78 H30        11.0410  -12.7040    6.3830 hc        1 JZN      0.084667
     79 H30A        9.7070  -12.1010    7.4490 hc        1 JZN      0.084667
     80 H31         8.1500  -11.9790    5.5120 hc        1 JZN      0.116000
     81 H31A        8.8080  -13.6530    5.7180 hc        1 JZN      0.116000
     82 H32         8.8120  -13.0130    3.2910 ha        1 JZN      0.183000
     83 O4         14.9610  -12.5410    1.6620 os        1 JZN     -0.099000
     84 N5         16.4710  -14.0980    2.3110 n3        1 JZN     -0.254000
     85 H12         7.3360   -4.5110    0.5020 hn        1 JZN      0.292000
     86 H53        16.9950  -14.5980    3.0030 hn        1 JZN      0.287000
@<TRIPOS>BOND
     1    1    4 1   
     2    1   48 1   
     3    2   16 1   
     4    3   24 1   
     5    3   25 1   
     6    3   49 1   
     7    3   85 1   
     8    4    5 1   
     9    5    9 1   
    10    5   18 1   
    11    5   51 1   
    12    6   45 1   
    13    7   11 1   
    14    7   30 1   
    15    7   33 1   
    16    8   23 1   
    17    8   50 1   
    18    9   13 1   
    19    9   16 1   
    20   10   45 1   
    21   11   31 1   
    22   12   39 1   
    23   13   16 1   
    24   13   52 1   
    25   14   45 1   
    26   15   39 1   
    27   15   43 1   
    28   16   17 1   
    29   17   18 1   
    30   17   55 1   
    31   18   19 1   
    32   19   21 1   
    33   19   22 1   
    34   19   57 1   
    35   20   56 1   
    36   20   58 1   
    37   21   59 1   
    38   21   60 1   
    39   21   61 1   
    40   22   23 1   
    41   22   62 1   
    42   22   63 1   
    43   23   24 1   
    44   23   45 1   
    45   24   64 1   
    46   24   65 1   
    47   25   26 1   
    48   25   32 1   
    49   26   27 1   
    50   26   66 1   
    51   27   28 1   
    52   27   29 1   
    53   28   67 1   
    54   28   68 1   
    55   28   69 1   
    56   29   30 1   
    57   29   70 1   
    58   30   32 1   
    59   31   32 1   
    60   32   71 1   
    61   33   34 1   
    62   33   38 1   
    63   34   35 1   
    64   34   72 1   
    65   34   73 1   
    66   35   36 1   
    67   36   37 1   
    68   36   74 1   
    69   37   39 1   
    70   37   83 1   
    71   38   75 1   
    72   38   77 1   
    73   40   41 1   
    74   40   76 1   
    75   40   78 1   
    76   40   79 1   
    77   41   42 1   
    78   41   80 1   
    79   41   81 1   
    80   42   43 1   
    81   42   82 1   
    82   44   54 1   
    83   44   83 1   
    84   44   84 1   
    85   46   47 1   
    86   53   84 1   
    87   84   86 1   
@<TRIPOS>SUBSTRUCTURE
     1 JZN         1 TEMP              0 ****  ****    0 ROOT
