@<TRIPOS>MOLECULE
JZO
   47    50     1     0     0
SMALL
bcc


@<TRIPOS>ATOM
      1 C1          0.1800    1.1440   -0.2810 c3        1 JZO      0.116700
      2 O2          1.4520    1.0500    0.3350 os        1 JZO     -0.422600
      3 C3          2.1570   -0.1290   -0.0600 c3        1 JZO      0.172700
      4 C4          3.4870   -0.1520    0.6160 ca        1 JZO     -0.090300
      5 C5          4.0430    0.9980    1.1840 ca        1 JZO     -0.094000
      6 C6          5.3040    0.9370    1.7770 ca        1 JZO     -0.137000
      7 C7          6.0110   -0.2620    1.8090 ca        1 JZO     -0.116000
      8 C8          5.4590   -1.4270    1.2500 ca        1 JZO     -0.032800
      9 C9          4.1930   -1.3590    0.6500 ca        1 JZO     -0.104000
     10 C10         6.1820   -2.6740    1.2780 cc        1 JZO     -0.146400
     11 C11         7.1230   -3.1390    2.1720 cd        1 JZO      0.126800
     12 N12         7.5110   -4.5000    1.8620 na        1 JZO     -0.382400
     13 C13         8.9400   -4.7790    1.9850 c3        1 JZO      0.155100
     14 N14         6.9580   -4.7950    0.5910 n         1 JZO     -0.303200
     15 C15         6.5540   -6.1710    0.3620 c3        1 JZO      0.059300
     16 C16         5.9850   -3.7650    0.2720 c         1 JZO      0.669700
     17 O17         5.2080   -3.8410   -0.6850 o         1 JZO     -0.592500
     18 C18         7.6470   -2.4820    3.3690 ca        1 JZO     -0.044800
     19 C19         6.8590   -2.4880    4.5500 ca        1 JZO     -0.094000
     20 C20         7.3070   -1.8820    5.6970 ca        1 JZO     -0.157300
     21 C21         8.5780   -1.2340    5.7210 ca        1 JZO      0.291300
     22 N22         9.0290   -0.6200    6.8820 nb        1 JZO     -0.619000
     23 C23        10.2120   -0.0410    6.8280 ca        1 JZO      0.300900
     24 C24        11.0200   -0.0370    5.6240 ca        1 JZO      0.295900
     25 N25        10.6240   -0.6110    4.5050 nb        1 JZO     -0.618000
     26 C26         9.3800   -1.2290    4.5260 ca        1 JZO      0.276300
     27 C27         8.8830   -1.8700    3.3530 ca        1 JZO     -0.143300
     28 H1         -0.4630    0.2750    0.0040 h1        1 JZO      0.033700
     29 H1A         0.2820    1.1910   -1.3940 h1        1 JZO      0.033700
     30 H1B        -0.2510    2.0970    0.1140 h1        1 JZO      0.033700
     31 H3          1.5530   -1.0340    0.2260 h1        1 JZO      0.039700
     32 H3A         2.2950   -0.1220   -1.1770 h1        1 JZO      0.039700
     33 H5          3.4800    1.9440    1.1620 ha        1 JZO      0.152000
     34 H6          5.7450    1.8420    2.2200 ha        1 JZO      0.133000
     35 H7          7.0090   -0.2990    2.2710 ha        1 JZO      0.134000
     36 H9          3.7590   -2.2610    0.1890 ha        1 JZO      0.155000
     37 H13         9.1030   -5.8760    1.8190 h1        1 JZO      0.055700
     38 H13A        9.2380   -4.5150    3.0340 h1        1 JZO      0.055700
     39 H13B        9.5780   -4.2040    1.2630 h1        1 JZO      0.055700
     40 H15         5.8410   -6.5620    1.1350 h1        1 JZO      0.055033
     41 H15A        7.4690   -6.8190    0.3500 h1        1 JZO      0.055033
     42 H15B        6.0590   -6.1990   -0.6460 h1        1 JZO      0.055033
     43 H19         5.8760   -2.9870    4.5300 ha        1 JZO      0.155000
     44 H20         6.6910   -1.8870    6.6110 ha        1 JZO      0.160000
     45 H23        10.5820    0.4520    7.7440 h4        1 JZO      0.037100
     46 H24        12.0070    0.4590    5.6210 h4        1 JZO      0.037100
     47 H27         9.4980   -1.8670    2.4370 ha        1 JZO      0.160000
@<TRIPOS>BOND
     1    1    2 1   
     2    1   28 1   
     3    1   29 1   
     4    1   30 1   
     5    2    3 1   
     6    3    4 1   
     7    3   31 1   
     8    3   32 1   
     9    4    5 ar  
    10    4    9 ar  
    11    5    6 ar  
    12    5   33 1   
    13    6    7 ar  
    14    6   34 1   
    15    7    8 ar  
    16    7   35 1   
    17    8    9 ar  
    18    8   10 1   
    19    9   36 1   
    20   10   11 2   
    21   10   16 1   
    22   11   12 1   
    23   11   18 1   
    24   12   13 1   
    25   12   14 1   
    26   13   37 1   
    27   13   38 1   
    28   13   39 1   
    29   14   15 1   
    30   14   16 1   
    31   15   40 1   
    32   15   41 1   
    33   15   42 1   
    34   16   17 2   
    35   18   19 ar  
    36   18   27 ar  
    37   19   20 ar  
    38   19   43 1   
    39   20   21 ar  
    40   20   44 1   
    41   21   22 ar  
    42   21   26 ar  
    43   22   23 ar  
    44   23   24 ar  
    45   23   45 1   
    46   24   25 ar  
    47   24   46 1   
    48   25   26 ar  
    49   26   27 ar  
    50   27   47 1   
@<TRIPOS>SUBSTRUCTURE
     1 JZO         1 TEMP              0 ****  ****    0 ROOT
