@<TRIPOS>MOLECULE
JZO
   47    44     1     0     0
SMALL
bcc


@<TRIPOS>ATOM
      1 C1         -6.7040    2.0440   -0.9380 c3        1 JZO     -0.073000
      2 O2         -5.2490    1.8450   -1.2260 os        1 JZO     -0.279000
      3 C3         -4.5280    1.2760   -0.1580 c3        1 JZO      0.015000
      4 C4         -3.0290    1.3170   -0.4660 c2        1 JZO     -0.083000
      5 C5         -2.4110    2.5320   -0.7640 c2        1 JZO     -0.095000
      6 C6         -1.0790    2.5590   -1.1360 c1        1 JZO     -0.138000
      7 C7         -0.3620    1.3880   -1.2150 c1        1 JZO     -0.118000
      8 C8         -0.9610    0.1990   -0.9260 c1        1 JZO     -0.023000
      9 C9         -2.3230    0.1680   -0.5440 c1        1 JZO     -0.103000
     10 C10        -0.2040   -1.1130   -1.1690 c2        1 JZO     -0.145000
     11 C11         0.8450   -1.4500   -0.3750 c1        1 JZO      0.040000
     12 N12         1.7660   -2.2530   -0.9850 n2        1 JZO     -0.115000
     13 C13         2.7550   -3.0860   -0.3260 c3        1 JZO     -0.121000
     14 N14         1.1990   -2.4600   -2.4320 n         1 JZO     -0.227000
     15 C15         1.5430   -3.5460   -3.3300 c3        1 JZO     -0.097000
     16 C16        -0.1340   -1.6490   -2.4410 c2        1 JZO      0.307000
     17 O17        -0.7570   -1.2130   -3.4900 o         1 JZO     -0.315000
     18 C18         1.2920   -0.4830    0.7980 c2        1 JZO     -0.042000
     19 C19         0.6840   -0.7170    2.0460 c2        1 JZO     -0.100000
     20 C20         1.2590   -0.2390    3.1910 c1        1 JZO     -0.094000
     21 C21         2.5050    0.5160    3.1240 c1        1 JZO     -0.036000
     22 N22         3.1020    0.9310    4.2570 n2        1 JZO     -0.094000
     23 C23         4.2780    1.5700    4.2000 c1        1 JZO     -0.099000
     24 C24         4.8950    1.8080    2.9450 c1        1 JZO     -0.105000
     25 N25         4.3060    1.3990    1.8270 n1        1 JZO     -0.090000
     26 C26         3.1210    0.7550    1.8800 c1        1 JZO     -0.055000
     27 C27         2.5460    0.2770    0.7280 c2        1 JZO     -0.066000
     28 H1         -7.1230    2.4620   -1.6900 h1        1 JZO      0.073000
     29 H1A        -6.7990    2.5890   -0.1840 h1        1 JZO      0.073000
     30 H1B        -7.1290    1.1720   -0.7680 h1        1 JZO      0.073000
     31 H3         -4.7830    0.4280   -0.0450 h1        1 JZO      0.079000
     32 H3A        -4.7030    1.7680    0.6380 h1        1 JZO      0.079000
     33 H5         -2.9390    3.4030   -0.7060 ha        1 JZO      0.152000
     34 H6         -0.6350    3.4360   -1.3490 ha        1 JZO      0.134000
     35 H7          0.5570    1.4090   -1.4740 ha        1 JZO      0.135000
     36 H9         -2.7530   -0.6820   -0.3360 ha        1 JZO      0.155000
     37 H13         2.6230   -4.0170   -0.5890 h1        1 JZO      0.094667
     38 H13A        3.6870   -2.7840   -0.6030 h1        1 JZO      0.094667
     39 H13B        2.6590   -3.0040    0.6690 h1        1 JZO      0.094667
     40 H15         1.1840   -3.3880   -4.1460 h1        1 JZO      0.094333
     41 H15A        1.1810   -4.4010   -2.9660 h1        1 JZO      0.094333
     42 H15B        2.5350   -3.6110   -3.4130 h1        1 JZO      0.094333
     43 H19        -0.1930   -1.2290    2.0950 ha        1 JZO      0.157000
     44 H20         0.8350   -0.4040    4.0520 ha        1 JZO      0.160000
     45 H23         4.6790    1.8540    4.9690 ha        1 JZO      0.174000
     46 H24         5.7300    2.2660    2.9030 ha        1 JZO      0.174000
     47 H27         3.0300    0.3600   -0.1350 ha        1 JZO      0.167000
@<TRIPOS>BOND
     1    1    2 1   
     2    1   28 1   
     3    1   29 1   
     4    1   30 1   
     5    2    3 1   
     6    3    4 1   
     7    3   31 1   
     8    3   32 1   
     9    4    5 1   
    10    4    9 1   
    11    5    6 1   
    12    5   33 1   
    13    6   34 1   
    14    7    8 1   
    15    7   35 1   
    16    8   10 1   
    17    9   36 1   
    18   10   11 1   
    19   10   16 1   
    20   11   18 1   
    21   12   13 1   
    22   12   14 1   
    23   13   37 1   
    24   13   38 1   
    25   13   39 1   
    26   14   15 1   
    27   14   16 1   
    28   15   40 1   
    29   15   41 1   
    30   15   42 1   
    31   16   17 1   
    32   18   19 1   
    33   18   27 1   
    34   19   20 1   
    35   19   43 1   
    36   20   44 1   
    37   21   22 1   
    38   21   26 1   
    39   22   23 1   
    40   23   45 1   
    41   24   25 1   
    42   24   46 1   
    43   26   27 1   
    44   27   47 1   
@<TRIPOS>SUBSTRUCTURE
     1 JZO         1 TEMP              0 ****  ****    0 ROOT
