@<TRIPOS>MOLECULE
JZO
   47    50     1     0     0
SMALL
bcc


@<TRIPOS>ATOM
      1 C1          6.8480   -2.7600    0.6380 c3        1 JZO      0.116700
      2 O2          5.4900   -2.6320    0.2530 os        1 JZO     -0.422600
      3 C3          5.0390   -1.2770    0.3110 c3        1 JZO      0.172700
      4 C4          3.6110   -1.2210   -0.1210 ca        1 JZO     -0.090300
      5 C5          3.0250   -2.2550   -0.8560 ca        1 JZO     -0.095000
      6 C6          1.6970   -2.1460   -1.2670 ca        1 JZO     -0.138000
      7 C7          0.9500   -1.0160   -0.9470 ca        1 JZO     -0.118000
      8 C8          1.5240    0.0250   -0.2000 ca        1 JZO     -0.034800
      9 C9          2.8630   -0.0860    0.2060 ca        1 JZO     -0.103000
     10 C10         0.7640    1.2020    0.1400 cc        1 JZO     -0.152400
     11 C11        -0.5940    1.3770    0.3090 cd        1 JZO      0.133800
     12 N12        -0.9190    2.7810    0.4740 na        1 JZO     -0.385400
     13 C13        -1.9190    3.0630    1.5040 c3        1 JZO      0.155100
     14 N14         0.3100    3.4630    0.6530 n         1 JZO     -0.301200
     15 C15         0.3910    4.8060    0.1070 c3        1 JZO      0.058300
     16 C16         1.3880    2.5530    0.3070 c         1 JZO      0.668700
     17 O17         2.5700    2.9000    0.2350 o         1 JZO     -0.590500
     18 C18        -1.6530    0.3720    0.2790 ca        1 JZO     -0.053800
     19 C19        -1.5250   -0.7840    1.0950 ca        1 JZO     -0.100000
     20 C20        -2.4980   -1.7510    1.1040 ca        1 JZO     -0.159300
     21 C21        -3.6590   -1.6140    0.2850 ca        1 JZO      0.292300
     22 N22        -4.6420   -2.5950    0.2940 nb        1 JZO     -0.620000
     23 C23        -5.6820   -2.4000   -0.4910 ca        1 JZO      0.300900
     24 C24        -5.8140   -1.2250   -1.3300 ca        1 JZO      0.294900
     25 N25        -4.9010   -0.2740   -1.3620 nb        1 JZO     -0.616000
     26 C26        -3.7890   -0.4470   -0.5460 ca        1 JZO      0.273300
     27 C27        -2.7610    0.5420   -0.5260 ca        1 JZO     -0.131300
     28 H1          7.5100   -2.1740   -0.0460 h1        1 JZO      0.033700
     29 H1A         6.9930   -2.4170    1.6930 h1        1 JZO      0.033700
     30 H1B         7.0600   -3.8540    0.5490 h1        1 JZO      0.033700
     31 H3          5.1500   -0.8940    1.3620 h1        1 JZO      0.039700
     32 H3A         5.6700   -0.6460   -0.3750 h1        1 JZO      0.039700
     33 H5          3.6160   -3.1500   -1.1040 ha        1 JZO      0.152000
     34 H6          1.2370   -2.9570   -1.8520 ha        1 JZO      0.134000
     35 H7         -0.0960   -0.9340   -1.2810 ha        1 JZO      0.135000
     36 H9          3.3290    0.7380    0.7710 ha        1 JZO      0.155000
     37 H13        -1.5890    2.7950    2.5420 h1        1 JZO      0.055367
     38 H13A       -2.1610    4.1580    1.4720 h1        1 JZO      0.055367
     39 H13B       -2.8370    2.4740    1.2410 h1        1 JZO      0.055367
     40 H15        -0.3070    5.4710    0.6800 h1        1 JZO      0.055033
     41 H15A        1.4490    5.1530    0.2560 h1        1 JZO      0.055033
     42 H15B        0.1320    4.8620   -0.9840 h1        1 JZO      0.055033
     43 H19        -0.6220   -0.8950    1.7170 ha        1 JZO      0.157000
     44 H20        -2.3940   -2.6440    1.7410 ha        1 JZO      0.160000
     45 H23        -6.4710   -3.1730   -0.4950 h4        1 JZO      0.037100
     46 H24        -6.7020   -1.1010   -1.9740 h4        1 JZO      0.037100
     47 H27        -2.8630    1.4350   -1.1650 ha        1 JZO      0.167000
@<TRIPOS>BOND
     1    1    2 1   
     2    1   28 1   
     3    1   29 1   
     4    1   30 1   
     5    2    3 1   
     6    3    4 1   
     7    3   31 1   
     8    3   32 1   
     9    4    5 ar  
    10    4    9 ar  
    11    5    6 ar  
    12    5   33 1   
    13    6    7 ar  
    14    6   34 1   
    15    7    8 ar  
    16    7   35 1   
    17    8    9 ar  
    18    8   10 1   
    19    9   36 1   
    20   10   11 2   
    21   10   16 1   
    22   11   12 1   
    23   11   18 1   
    24   12   13 1   
    25   12   14 1   
    26   13   37 1   
    27   13   38 1   
    28   13   39 1   
    29   14   15 1   
    30   14   16 1   
    31   15   40 1   
    32   15   41 1   
    33   15   42 1   
    34   16   17 2   
    35   18   19 ar  
    36   18   27 ar  
    37   19   20 ar  
    38   19   43 1   
    39   20   21 ar  
    40   20   44 1   
    41   21   22 ar  
    42   21   26 ar  
    43   22   23 ar  
    44   23   24 ar  
    45   23   45 1   
    46   24   25 ar  
    47   24   46 1   
    48   25   26 ar  
    49   26   27 ar  
    50   27   47 1   
@<TRIPOS>SUBSTRUCTURE
     1 JZO         1 TEMP              0 ****  ****    0 ROOT
