@<TRIPOS>MOLECULE
JZO
   47    50     1     0     0
SMALL
bcc


@<TRIPOS>ATOM
      1 C1          0.0880    1.0340   -0.1810 c3        1 JZO      0.116700
      2 O2          1.3650    0.9600    0.4290 os        1 JZO     -0.422600
      3 C3          2.1040   -0.1850   -0.0030 c3        1 JZO      0.172700
      4 C4          3.4360   -0.1870    0.6690 ca        1 JZO     -0.090300
      5 C5          3.9590    0.9610    1.2710 ca        1 JZO     -0.094000
      6 C6          5.2230    0.9200    1.8590 ca        1 JZO     -0.137000
      7 C7          5.9650   -0.2570    1.8530 ca        1 JZO     -0.116000
      8 C8          5.4470   -1.4210    1.2620 ca        1 JZO     -0.032800
      9 C9          4.1780   -1.3730    0.6660 ca        1 JZO     -0.104000
     10 C10         6.2070   -2.6460    1.2510 cc        1 JZO     -0.146400
     11 C11         7.1650   -3.1080    2.1280 cd        1 JZO      0.126800
     12 N12         7.5920   -4.4480    1.7770 na        1 JZO     -0.382400
     13 C13         9.0290   -4.6880    1.8890 c3        1 JZO      0.155100
     14 N14         7.0450   -4.7210    0.4980 n         1 JZO     -0.303200
     15 C15         6.6810   -6.1010    0.2290 c3        1 JZO      0.059300
     16 C16         6.0400   -3.7120    0.2120 c         1 JZO      0.669700
     17 O17         5.2630   -3.7830   -0.7440 o         1 JZO     -0.592500
     18 C18         7.6720   -2.4720    3.3440 ca        1 JZO     -0.044800
     19 C19         6.8870   -2.5370    4.5250 ca        1 JZO     -0.094000
     20 C20         7.3200   -1.9510    5.6880 ca        1 JZO     -0.157300
     21 C21         8.5720   -1.2670    5.7290 ca        1 JZO      0.291300
     22 N22         9.0080   -0.6750    6.9070 nb        1 JZO     -0.619000
     23 C23        10.1730   -0.0610    6.8680 ca        1 JZO      0.300900
     24 C24        10.9780    0.0030    5.6630 ca        1 JZO      0.295900
     25 N25        10.5960   -0.5490    4.5290 nb        1 JZO     -0.618000
     26 C26         9.3700   -1.2040    4.5340 ca        1 JZO      0.276300
     27 C27         8.8900   -1.8250    3.3430 ca        1 JZO     -0.143300
     28 H1         -0.5270    0.1380    0.0790 h1        1 JZO      0.033700
     29 H1A         0.1850    1.1190   -1.2920 h1        1 JZO      0.033700
     30 H1B        -0.3700    1.9610    0.2450 h1        1 JZO      0.033700
     31 H3          1.5290   -1.1160    0.2560 h1        1 JZO      0.039700
     32 H3A         2.2390   -0.1390   -1.1190 h1        1 JZO      0.039700
     33 H5          3.3680    1.8900    1.2780 ha        1 JZO      0.152000
     34 H6          5.6370    1.8250    2.3270 ha        1 JZO      0.133000
     35 H7          6.9660   -0.2780    2.3120 ha        1 JZO      0.134000
     36 H9          3.7690   -2.2740    0.1790 ha        1 JZO      0.155000
     37 H13         9.2240   -5.7740    1.6890 h1        1 JZO      0.055367
     38 H13A        9.3220   -4.4460    2.9440 h1        1 JZO      0.055367
     39 H13B        9.6480   -4.0720    1.1830 h1        1 JZO      0.055367
     40 H15         5.9830   -6.5370    0.9930 h1        1 JZO      0.055033
     41 H15A        7.6150   -6.7210    0.1970 h1        1 JZO      0.055033
     42 H15B        6.1840   -6.1140   -0.7780 h1        1 JZO      0.055033
     43 H19         5.9200   -3.0630    4.4920 ha        1 JZO      0.155000
     44 H20         6.7070   -2.0020    6.6030 ha        1 JZO      0.160000
     45 H23        10.5310    0.4160    7.7980 h4        1 JZO      0.037100
     46 H24        11.9490    0.5270    5.6740 h4        1 JZO      0.037100
     47 H27         9.5020   -1.7760    2.4270 ha        1 JZO      0.160000
@<TRIPOS>BOND
     1    1    2 1   
     2    1   28 1   
     3    1   29 1   
     4    1   30 1   
     5    2    3 1   
     6    3    4 1   
     7    3   31 1   
     8    3   32 1   
     9    4    5 ar  
    10    4    9 ar  
    11    5    6 ar  
    12    5   33 1   
    13    6    7 ar  
    14    6   34 1   
    15    7    8 ar  
    16    7   35 1   
    17    8    9 ar  
    18    8   10 1   
    19    9   36 1   
    20   10   11 2   
    21   10   16 1   
    22   11   12 1   
    23   11   18 1   
    24   12   13 1   
    25   12   14 1   
    26   13   37 1   
    27   13   38 1   
    28   13   39 1   
    29   14   15 1   
    30   14   16 1   
    31   15   40 1   
    32   15   41 1   
    33   15   42 1   
    34   16   17 2   
    35   18   19 ar  
    36   18   27 ar  
    37   19   20 ar  
    38   19   43 1   
    39   20   21 ar  
    40   20   44 1   
    41   21   22 ar  
    42   21   26 ar  
    43   22   23 ar  
    44   23   24 ar  
    45   23   45 1   
    46   24   25 ar  
    47   24   46 1   
    48   25   26 ar  
    49   26   27 ar  
    50   27   47 1   
@<TRIPOS>SUBSTRUCTURE
     1 JZO         1 TEMP              0 ****  ****    0 ROOT
