@<TRIPOS>MOLECULE
JZO
   47    50     1     0     0
SMALL
bcc


@<TRIPOS>ATOM
      1 C1          0.1810    1.1420   -0.2890 c3        1 JZO      0.116700
      2 O2          1.4550    1.0490    0.3260 os        1 JZO     -0.422600
      3 C3          2.1550   -0.1350   -0.0610 c3        1 JZO      0.172700
      4 C4          3.4870   -0.1560    0.6130 ca        1 JZO     -0.090300
      5 C5          4.0460    0.9950    1.1740 ca        1 JZO     -0.094000
      6 C6          5.3070    0.9350    1.7650 ca        1 JZO     -0.137000
      7 C7          6.0120   -0.2640    1.8020 ca        1 JZO     -0.116000
      8 C8          5.4570   -1.4310    1.2510 ca        1 JZO     -0.032800
      9 C9          4.1900   -1.3640    0.6520 ca        1 JZO     -0.104000
     10 C10         6.1780   -2.6790    1.2840 cc        1 JZO     -0.146400
     11 C11         7.1210   -3.1410    2.1790 cd        1 JZO      0.126800
     12 N12         7.5050   -4.5050    1.8750 na        1 JZO     -0.382400
     13 C13         8.9340   -4.7850    1.9970 c3        1 JZO      0.155100
     14 N14         6.9490   -4.8050    0.6060 n         1 JZO     -0.303200
     15 C15         6.5430   -6.1810    0.3860 c3        1 JZO      0.059300
     16 C16         5.9780   -3.7760    0.2840 c         1 JZO      0.669700
     17 O17         5.1980   -3.8550   -0.6700 o         1 JZO     -0.592500
     18 C18         7.6480   -2.4780    3.3710 ca        1 JZO     -0.044800
     19 C19         6.8630   -2.4790    4.5540 ca        1 JZO     -0.094000
     20 C20         7.3150   -1.8670    5.6970 ca        1 JZO     -0.157300
     21 C21         8.5860   -1.2200    5.7140 ca        1 JZO      0.291300
     22 N22         9.0400   -0.6000    6.8710 nb        1 JZO     -0.619000
     23 C23        10.2230   -0.0220    6.8100 ca        1 JZO      0.300900
     24 C24        11.0280   -0.0240    5.6040 ca        1 JZO      0.295900
     25 N25        10.6290   -0.6020    4.4890 nb        1 JZO     -0.618000
     26 C26         9.3840   -1.2200    4.5170 ca        1 JZO      0.276300
     27 C27         8.8840   -1.8670    3.3480 ca        1 JZO     -0.143300
     28 H1          0.2820    1.1800   -1.4020 h1        1 JZO      0.033700
     29 H1A        -0.2460    2.1000    0.1000 h1        1 JZO      0.033700
     30 H1B        -0.4640    0.2770    0.0040 h1        1 JZO      0.033700
     31 H3          2.2910   -0.1380   -1.1780 h1        1 JZO      0.039700
     32 H3A         1.5490   -1.0360    0.2340 h1        1 JZO      0.039700
     33 H5          3.4840    1.9420    1.1470 ha        1 JZO      0.152000
     34 H6          5.7500    1.8430    2.2020 ha        1 JZO      0.133000
     35 H7          7.0110   -0.3000    2.2620 ha        1 JZO      0.134000
     36 H9          3.7540   -2.2690    0.1970 ha        1 JZO      0.155000
     37 H13         9.0950   -5.8830    1.8360 h1        1 JZO      0.055367
     38 H13A        9.2350   -4.5150    3.0430 h1        1 JZO      0.055367
     39 H13B        9.5720   -4.2150    1.2700 h1        1 JZO      0.055367
     40 H15         7.4560   -6.8320    0.3760 h1        1 JZO      0.055033
     41 H15A        5.8310   -6.5670    1.1630 h1        1 JZO      0.055033
     42 H15B        6.0460   -6.2150   -0.6210 h1        1 JZO      0.055033
     43 H19         5.8810   -2.9780    4.5390 ha        1 JZO      0.155000
     44 H20         6.7020   -1.8680    6.6130 ha        1 JZO      0.160000
     45 H23        10.5960    0.4750    7.7230 h4        1 JZO      0.037100
     46 H24        12.0140    0.4720    5.5960 h4        1 JZO      0.037100
     47 H27         9.4960   -1.8690    2.4310 ha        1 JZO      0.160000
@<TRIPOS>BOND
     1    1    2 1   
     2    1   28 1   
     3    1   29 1   
     4    1   30 1   
     5    2    3 1   
     6    3    4 1   
     7    3   31 1   
     8    3   32 1   
     9    4    5 ar  
    10    4    9 ar  
    11    5    6 ar  
    12    5   33 1   
    13    6    7 ar  
    14    6   34 1   
    15    7    8 ar  
    16    7   35 1   
    17    8    9 ar  
    18    8   10 1   
    19    9   36 1   
    20   10   11 2   
    21   10   16 1   
    22   11   12 1   
    23   11   18 1   
    24   12   13 1   
    25   12   14 1   
    26   13   37 1   
    27   13   38 1   
    28   13   39 1   
    29   14   15 1   
    30   14   16 1   
    31   15   40 1   
    32   15   41 1   
    33   15   42 1   
    34   16   17 2   
    35   18   19 ar  
    36   18   27 ar  
    37   19   20 ar  
    38   19   43 1   
    39   20   21 ar  
    40   20   44 1   
    41   21   22 ar  
    42   21   26 ar  
    43   22   23 ar  
    44   23   24 ar  
    45   23   45 1   
    46   24   25 ar  
    47   24   46 1   
    48   25   26 ar  
    49   26   27 ar  
    50   27   47 1   
@<TRIPOS>SUBSTRUCTURE
     1 JZO         1 TEMP              0 ****  ****    0 ROOT
