@<TRIPOS>MOLECULE
JZQ
   80    74     1     0     0
SMALL
bcc


@<TRIPOS>ATOM
      1 F1          3.1680   -0.4770    7.7900 f         1 JZQ     -0.090000
      2 F2          3.6180   -2.6270    3.4920 f         1 JZQ     -0.099000
      3 O2          2.5410   -0.6160    5.0810 os        1 JZQ     -0.193000
      4 O8          0.8320    0.9990    3.7040 o         1 JZQ     -0.357000
      5 C12         2.0260    1.1300    3.4930 c1        1 JZQ      0.284000
      6 C21         3.0460    0.5830    4.5010 c3        1 JZQ     -0.050000
      7 C40         5.1920   -3.3760    6.7380 c1        1 JZQ     -0.125333
      8 C41         4.6590   -2.3530    7.5360 c1        1 JZQ     -0.125333
      9 C42         3.8240   -1.3900    6.9710 c1        1 JZQ      0.093000
     10 C45         3.5160   -1.4470    5.5970 c2        1 JZQ     -0.027000
     11 C46         4.0500   -2.4710    4.8000 c2        1 JZQ      0.094000
     12 C47         4.8850   -3.4320    5.3690 c1        1 JZQ     -0.162000
     13 C16         0.4040    0.4250   -0.4640 c1        1 JZQ      0.334000
     14 N2          2.4850    1.8540    2.3070 n2        1 JZQ     -0.377000
     15 O3         -0.4830    1.2320   -0.3830 o         1 JZQ     -0.365000
     16 C14         1.6350    0.5240    0.4860 c3        1 JZQ      0.000000
     17 C22         2.7120    4.1940    0.9630 c1        1 JZQ     -0.071000
     18 C15         2.2380    2.9150    0.1730 c2        1 JZQ     -0.141000
     19 C25         3.4610    6.6270    2.1150 c1        1 JZQ     -0.125333
     20 C13         1.6690    1.9040    1.1440 c3        1 JZQ      0.012000
     21 O5          2.7760    0.3340   -0.2280 oh        1 JZQ     -0.323000
     22 C23         4.0120    4.6710    0.7970 c2        1 JZQ     -0.135000
     23 C27         1.7830    4.9380    1.7090 c1        1 JZQ     -0.118000
     24 C24         4.3880    5.8860    1.3710 c1        1 JZQ     -0.132000
     25 C26         2.1600    6.1510    2.2820 c1        1 JZQ     -0.125333
     26 C20        -1.8030   -1.2750   -2.1850 c1        1 JZQ      0.296000
     27 N3          0.3730   -0.5780   -1.5050 n2        1 JZQ     -0.312000
     28 O4         -1.7430   -1.7830   -1.0850 o         1 JZQ     -0.359000
     29 C17        -0.8090   -0.7730   -2.6790 c3        1 JZQ      0.013000
     30 C18        -0.1040   -1.8360   -3.7170 c3        1 JZQ     -0.128000
     31 C19         1.2720   -1.5270   -1.7170 c3        1 JZQ     -0.118000
     32 C29        -0.2350   -1.3470   -5.1480 c3        1 JZQ     -0.213500
     33 C30        -0.7270   -3.1780   -3.5730 c3        1 JZQ     -0.213500
     34 S1          1.2180   -1.8940   -3.3510 ss        1 JZQ      0.028000
     35 N4         -3.1270   -1.1520   -2.8820 n2        1 JZQ     -0.336000
     36 O7         -3.7570   -3.2930   -3.8960 oh        1 JZQ     -0.332000
     37 C31        -4.3060   -1.6310   -2.2500 c3        1 JZQ      0.065000
     38 C32        -5.4530   -0.6270   -2.4650 c2        1 JZQ     -0.097000
     39 C33        -5.6230    0.6840   -2.0640 c2        1 JZQ     -0.091000
     40 C34        -6.8000    1.3850   -2.4220 c1        1 JZQ     -0.133000
     41 C35        -4.7090   -2.9140   -2.8520 c3        1 JZQ      0.003000
     42 C36        -6.4650   -1.2740   -3.2400 c1        1 JZQ     -0.074000
     43 C37        -7.6350   -0.5760   -3.5950 c1        1 JZQ     -0.125333
     44 C38        -7.8060    0.7400   -3.1930 c1        1 JZQ     -0.125333
     45 C39        -6.0460   -2.7410   -3.4380 c3        1 JZQ     -0.157000
     46 H21         3.9130    0.3890    4.0290 h1        1 JZQ      0.136000
     47 H21A        3.1980    1.2500    5.2060 h1        1 JZQ      0.136000
     48 H40         5.7860   -4.0600    7.1400 ha        1 JZQ      0.139667
     49 H41         4.8790   -2.3140    8.5220 ha        1 JZQ      0.139667
     50 H47         5.2730   -4.1810    4.7860 ha        1 JZQ      0.160000
     51 HN2         3.3100    2.2960    2.3190 hn        1 JZQ      0.227000
     52 H14         1.5680   -0.1600    1.1730 h1        1 JZQ      0.113000
     53 H15         3.0220    2.5090   -0.3130 ha        1 JZQ      0.114000
     54 H15A        1.5160    3.1800   -0.5060 ha        1 JZQ      0.114000
     55 H25         3.7230    7.4710    2.5140 ha        1 JZQ      0.139667
     56 H13         0.7700    2.1650    1.3920 h1        1 JZQ      0.152000
     57 HO5         3.2320   -0.3230    0.1230 ho        1 JZQ      0.219000
     58 H23         4.6650    4.1490    0.2750 ha        1 JZQ      0.125000
     59 H27         0.8580    4.6020    1.8260 ha        1 JZQ      0.145000
     60 H24         5.3290    6.2320    1.2500 ha        1 JZQ      0.128000
     61 H26         1.5130    6.6710    2.8030 ha        1 JZQ      0.139667
     62 H17        -1.1670   -0.0020   -3.0460 h1        1 JZQ      0.145000
     63 H19         1.0450   -2.3520   -1.1670 h2        1 JZQ      0.130500
     64 H19A        2.1560   -1.2040   -1.4800 h2        1 JZQ      0.130500
     65 H29         0.1220   -0.4120   -5.2160 hc        1 JZQ      0.094333
     66 H29A        0.2840   -1.9440   -5.7510 hc        1 JZQ      0.094333
     67 H29B       -1.1580   -1.3560   -5.4070 hc        1 JZQ      0.094333
     68 H30        -0.2170   -3.8230   -4.0710 hc        1 JZQ      0.094333
     69 H30A       -0.7390   -3.4360   -2.6190 hc        1 JZQ      0.094333
     70 H30B       -1.6340   -3.1520   -3.9120 hc        1 JZQ      0.094333
     71 HN4        -3.1930   -0.6500   -3.6440 hn        1 JZQ      0.232000
     72 HO7        -4.0090   -4.1150   -4.2640 ho        1 JZQ      0.207000
     73 H31        -4.1440   -1.7510   -1.2860 h1        1 JZQ      0.143000
     74 H33        -4.8990    1.1480   -1.5140 ha        1 JZQ      0.151000
     75 H34        -6.9190    2.2910   -2.1440 ha        1 JZQ      0.134000
     76 H35        -4.7380   -3.6160   -2.1540 h1        1 JZQ      0.087000
     77 H37        -8.3360   -1.0250   -4.1350 ha        1 JZQ      0.139667
     78 H38        -8.6100    1.2180   -3.4360 ha        1 JZQ      0.139667
     79 H39        -6.6890   -3.3350   -2.9840 hc        1 JZQ      0.101000
     80 H39A       -6.0180   -2.9520   -4.3990 hc        1 JZQ      0.101000
@<TRIPOS>BOND
     1    1    9 1   
     2    2   11 1   
     3    3    6 1   
     4    3   10 1   
     5    4    5 1   
     6    5    6 1   
     7    6   46 1   
     8    6   47 1   
     9    7    8 1   
    10    7   48 1   
    11    8   49 1   
    12    9   10 1   
    13   10   11 1   
    14   11   12 1   
    15   12   50 1   
    16   13   15 1   
    17   13   16 1   
    18   14   20 1   
    19   14   51 1   
    20   16   20 1   
    21   16   21 1   
    22   16   52 1   
    23   17   22 1   
    24   17   23 1   
    25   18   20 1   
    26   18   53 1   
    27   18   54 1   
    28   19   25 1   
    29   19   55 1   
    30   20   56 1   
    31   21   57 1   
    32   22   24 1   
    33   22   58 1   
    34   23   59 1   
    35   24   60 1   
    36   25   61 1   
    37   26   28 1   
    38   26   29 1   
    39   27   29 1   
    40   27   31 1   
    41   29   30 1   
    42   29   62 1   
    43   30   32 1   
    44   30   33 1   
    45   30   34 1   
    46   31   34 1   
    47   31   63 1   
    48   31   64 1   
    49   32   65 1   
    50   32   66 1   
    51   32   67 1   
    52   33   68 1   
    53   33   69 1   
    54   33   70 1   
    55   35   37 1   
    56   35   71 1   
    57   36   41 1   
    58   36   72 1   
    59   37   38 1   
    60   37   41 1   
    61   37   73 1   
    62   38   39 1   
    63   38   42 1   
    64   39   40 1   
    65   39   74 1   
    66   40   75 1   
    67   41   45 1   
    68   41   76 1   
    69   42   45 1   
    70   43   44 1   
    71   43   77 1   
    72   44   78 1   
    73   45   79 1   
    74   45   80 1   
@<TRIPOS>SUBSTRUCTURE
     1 JZQ         1 TEMP              0 ****  ****    0 ROOT
