@<TRIPOS>MOLECULE
JZQ
   80    84     1     0     0
SMALL
bcc


@<TRIPOS>ATOM
      1 F1          6.9730   -1.3860   -2.8770 f         1 JZQ     -0.121400
      2 F2          6.8870    0.8300    1.3690 f         1 JZQ     -0.121400
      3 O2          5.5070   -0.2730   -0.8180 os        1 JZQ     -0.328900
      4 O8          2.7140   -2.1910    0.1700 o         1 JZQ     -0.632100
      5 C12         3.3860   -1.1670   -0.0830 c         1 JZQ      0.665100
      6 C21         4.9030   -1.2370    0.0610 c3        1 JZQ      0.054400
      7 C40         9.6810   -0.0660   -0.8090 ca        1 JZQ     -0.083000
      8 C41         9.0220   -0.6770   -1.8710 ca        1 JZQ     -0.172500
      9 C42         7.6190   -0.7910   -1.8510 ca        1 JZQ      0.144400
     10 C45         6.8890   -0.2740   -0.7570 ca        1 JZQ      0.015100
     11 C46         7.5760    0.3420    0.3130 ca        1 JZQ      0.144400
     12 C47         8.9780    0.4410    0.2800 ca        1 JZQ     -0.172500
     13 C16        -0.6900   -0.7890   -1.6840 c         1 JZQ      0.644100
     14 N2          2.7950    0.0300   -0.4070 n         1 JZQ     -0.530900
     15 O3         -1.4290   -0.0610   -2.3810 o         1 JZQ     -0.616100
     16 C14         0.8300   -0.6300   -1.7960 c3        1 JZQ      0.058100
     17 C22         1.0180    2.2770    0.7120 ca        1 JZQ     -0.088300
     18 C15         0.8910    1.6030   -0.6070 c3        1 JZQ     -0.051100
     19 C25         1.2300    3.5580    3.1900 ca        1 JZQ     -0.130000
     20 C13         1.3620    0.1400   -0.5500 c3        1 JZQ      0.083700
     21 O5          1.1580    0.0290   -2.9970 oh        1 JZQ     -0.580800
     22 C23         2.0240    3.2230    0.9330 ca        1 JZQ     -0.122500
     23 C27         0.1150    1.9770    1.7410 ca        1 JZQ     -0.122500
     24 C24         2.1290    3.8610    2.1690 ca        1 JZQ     -0.129500
     25 C26         0.2240    2.6160    2.9740 ca        1 JZQ     -0.129500
     26 C20        -3.2140   -0.7610    0.3170 c         1 JZQ      0.654100
     27 N3         -1.2290   -1.7310   -0.8310 n         1 JZQ     -0.452800
     28 O4         -2.5340   -0.3190    1.2640 o         1 JZQ     -0.614100
     29 C17        -2.6690   -1.8410   -0.6570 c3        1 JZQ      0.039700
     30 C18        -3.0350   -3.2650   -0.1580 c3        1 JZQ      0.050100
     31 C19        -0.4630   -2.6030    0.0190 c3        1 JZQ      0.174100
     32 C29        -3.6330   -4.0720   -1.2900 c3        1 JZQ     -0.095600
     33 C30        -3.9540   -3.2740    1.0380 c3        1 JZQ     -0.095600
     34 S1         -1.4770   -4.0560    0.3320 ss        1 JZQ     -0.323200
     35 N4         -4.4670   -0.2590    0.0210 n         1 JZQ     -0.525900
     36 O7         -6.6810   -1.2870    1.1940 oh        1 JZQ     -0.605800
     37 C31        -5.1630    0.6230    0.9180 c3        1 JZQ      0.150000
     38 C32        -5.7800    1.8180    0.2260 ca        1 JZQ     -0.105300
     39 C33        -5.1780    2.6820   -0.6750 ca        1 JZQ     -0.093000
     40 C34        -5.9210    3.7620   -1.1680 ca        1 JZQ     -0.133000
     41 C35        -6.3660   -0.0080    1.7200 c3        1 JZQ      0.116100
     42 C36        -7.1160    2.0150    0.6330 ca        1 JZQ     -0.081300
     43 C37        -7.8480    3.0870    0.1450 ca        1 JZQ     -0.121000
     44 C38        -7.2380    3.9630   -0.7610 ca        1 JZQ     -0.124000
     45 C39        -7.5590    0.9620    1.5860 c3        1 JZQ     -0.071100
     46 H21         5.2440   -2.2680   -0.2190 h1        1 JZQ      0.078700
     47 H21A        5.1790   -1.0040    1.1230 h1        1 JZQ      0.078700
     48 H40        10.7790    0.0180   -0.8310 ha        1 JZQ      0.148000
     49 H41         9.5810   -1.0750   -2.7300 ha        1 JZQ      0.158500
     50 H47         9.5040    0.9220    1.1170 ha        1 JZQ      0.158500
     51 HN2         3.3570    0.7620   -0.7770 hn        1 JZQ      0.332500
     52 H14         1.3350   -1.6370   -1.8790 h1        1 JZQ      0.114700
     53 H15         1.4660    2.1620   -1.3940 hc        1 JZQ      0.066700
     54 H15A       -0.1890    1.5990   -0.9230 hc        1 JZQ      0.066700
     55 H25         1.3140    4.0610    4.1650 ha        1 JZQ      0.129000
     56 H13         0.9020   -0.3530    0.3630 h1        1 JZQ      0.088700
     57 HO5         0.5350    0.7630   -3.1200 ho        1 JZQ      0.424000
     58 H23         2.7360    3.4640    0.1300 ha        1 JZQ      0.143000
     59 H27        -0.6850    1.2340    1.5740 ha        1 JZQ      0.143000
     60 H24         2.9240    4.6030    2.3350 ha        1 JZQ      0.131500
     61 H26        -0.4870    2.3750    3.7780 ha        1 JZQ      0.131500
     62 H17        -3.1330   -1.6690   -1.6780 h1        1 JZQ      0.106700
     63 H19        -0.2370   -2.1070    1.0020 h2        1 JZQ      0.097700
     64 H19A        0.5030   -2.9200   -0.4550 h2        1 JZQ      0.097700
     65 H29        -3.7900   -5.1290   -0.9630 hc        1 JZQ      0.055367
     66 H29A       -4.6210   -3.6450   -1.5900 hc        1 JZQ      0.055367
     67 H29B       -2.9560   -4.0720   -2.1780 hc        1 JZQ      0.055367
     68 H30        -3.5230   -2.6750    1.8790 hc        1 JZQ      0.055367
     69 H30A       -4.9610   -2.8580    0.7770 hc        1 JZQ      0.055367
     70 H30B       -4.0940   -4.3250    1.3940 hc        1 JZQ      0.055367
     71 HN4        -5.0370   -0.7550   -0.6260 hn        1 JZQ      0.320500
     72 HO7        -7.4400   -1.6110    1.6930 ho        1 JZQ      0.409000
     73 H31        -4.4190    1.0010    1.6850 h1        1 JZQ      0.101700
     74 H33        -4.1390    2.5240   -0.9990 ha        1 JZQ      0.149000
     75 H34        -5.4560    4.4560   -1.8830 ha        1 JZQ      0.135000
     76 H35        -6.0640   -0.1190    2.7970 h1        1 JZQ      0.046700
     77 H37        -8.8890    3.2480    0.4600 ha        1 JZQ      0.134000
     78 H38        -7.8090    4.8160   -1.1560 ha        1 JZQ      0.132000
     79 H39        -8.4640    0.4270    1.2000 hc        1 JZQ      0.062200
     80 H39A       -7.8150    1.4060    2.5810 hc        1 JZQ      0.062200
@<TRIPOS>BOND
     1    1    9 1   
     2    2   11 1   
     3    3    6 1   
     4    3   10 1   
     5    4    5 2   
     6    5    6 1   
     7    5   14 1   
     8    6   46 1   
     9    6   47 1   
    10    7    8 ar  
    11    7   12 ar  
    12    7   48 1   
    13    8    9 ar  
    14    8   49 1   
    15    9   10 ar  
    16   10   11 ar  
    17   11   12 ar  
    18   12   50 1   
    19   13   15 2   
    20   13   16 1   
    21   13   27 1   
    22   14   20 1   
    23   14   51 1   
    24   16   20 1   
    25   16   21 1   
    26   16   52 1   
    27   17   18 1   
    28   17   22 ar  
    29   17   23 ar  
    30   18   20 1   
    31   18   53 1   
    32   18   54 1   
    33   19   24 ar  
    34   19   25 ar  
    35   19   55 1   
    36   20   56 1   
    37   21   57 1   
    38   22   24 ar  
    39   22   58 1   
    40   23   25 ar  
    41   23   59 1   
    42   24   60 1   
    43   25   61 1   
    44   26   28 2   
    45   26   29 1   
    46   26   35 1   
    47   27   29 1   
    48   27   31 1   
    49   29   30 1   
    50   29   62 1   
    51   30   32 1   
    52   30   33 1   
    53   30   34 1   
    54   31   34 1   
    55   31   63 1   
    56   31   64 1   
    57   32   65 1   
    58   32   66 1   
    59   32   67 1   
    60   33   68 1   
    61   33   69 1   
    62   33   70 1   
    63   35   37 1   
    64   35   71 1   
    65   36   41 1   
    66   36   72 1   
    67   37   38 1   
    68   37   41 1   
    69   37   73 1   
    70   38   39 ar  
    71   38   42 ar  
    72   39   40 ar  
    73   39   74 1   
    74   40   44 ar  
    75   40   75 1   
    76   41   45 1   
    77   41   76 1   
    78   42   43 ar  
    79   42   45 1   
    80   43   44 ar  
    81   43   77 1   
    82   44   78 1   
    83   45   79 1   
    84   45   80 1   
@<TRIPOS>SUBSTRUCTURE
     1 JZQ         1 TEMP              0 ****  ****    0 ROOT
