@<TRIPOS>MOLECULE
JZR
   42    42     1     0     0
SMALL
bcc


@<TRIPOS>ATOM
      1 C1         -0.0450   -0.0820    0.1430 c3        1 JZR      0.307900
      2 O1         -0.5310    0.0620   -1.1710 os        1 JZR     -0.424600
      3 C2          1.4940   -0.0370    0.0580 c3        1 JZR      0.089100
      4 O2          1.9970   -1.2480   -0.4760 oh        1 JZR     -0.603800
      5 C3          2.0710    0.0970    1.4730 c3        1 JZR      0.108100
      6 O3          3.4680    0.3320    1.4330 oh        1 JZR     -0.605800
      7 C4          1.4440    1.3160    2.1710 c3        1 JZR      0.122100
      8 O4          1.8350    1.3610    3.5320 oh        1 JZR     -0.594800
      9 C5         -0.0880    1.2000    2.1480 c3        1 JZR      0.108100
     10 O5         -0.5610    1.0670    0.8060 os        1 JZR     -0.449600
     11 C6         -0.7400    2.4740    2.6920 c3        1 JZR      0.140400
     12 O6         -2.1430    2.3440    2.7500 oh        1 JZR     -0.594800
     13 C1'        -1.9510   -0.0990   -1.2800 c3        1 JZR      0.136400
     14 C2'        -2.2830    0.0510   -2.7530 c3        1 JZR     -0.084400
     15 C3'        -3.7720   -0.1020   -2.9730 c3        1 JZR     -0.078400
     16 C4'        -4.1230    0.0440   -4.4380 c3        1 JZR     -0.078400
     17 C5'        -5.6130   -0.1070   -4.6650 c3        1 JZR     -0.080400
     18 C6'        -5.9670    0.0370   -6.1220 c3        1 JZR     -0.093100
     19 H1         -0.4120   -1.0240    0.6350 h2        1 JZR      0.053700
     20 H2          1.8140    0.8320   -0.5810 h1        1 JZR      0.077700
     21 HO2         1.6280   -1.3300   -1.3660 ho        1 JZR      0.425000
     22 H3          1.8650   -0.8410    2.0620 h1        1 JZR      0.064700
     23 HO3         3.8550   -0.3920    0.9220 ho        1 JZR      0.427000
     24 H4          1.7730    2.2560    1.6470 h1        1 JZR      0.063700
     25 HO4         2.8020    1.3410    3.5380 ho        1 JZR      0.426000
     26 H5         -0.4160    0.3080    2.7500 h1        1 JZR      0.068700
     27 H6         -0.4060    2.6320    3.7520 h1        1 JZR      0.064200
     28 H6A        -0.4530    3.3530    2.0560 h1        1 JZR      0.064200
     29 HO6        -2.4490    2.1790    1.8490 ho        1 JZR      0.409000
     30 H1'        -2.4610    0.6870   -0.6640 h1        1 JZR      0.038200
     31 H1'A       -2.2380   -1.1150   -0.8990 h1        1 JZR      0.038200
     32 H2'        -1.7230   -0.7200   -3.3430 hc        1 JZR      0.055200
     33 H2'A       -1.9400    1.0570   -3.1100 hc        1 JZR      0.055200
     34 H3'        -4.3240    0.6710   -2.3750 hc        1 JZR      0.041700
     35 H3'A       -4.1080   -1.1070   -2.6050 hc        1 JZR      0.041700
     36 H4'        -3.5720   -0.7280   -5.0370 hc        1 JZR      0.041700
     37 H4'A       -3.7880    1.0490   -4.8070 hc        1 JZR      0.041700
     38 H5'        -6.1620    0.6650   -4.0640 hc        1 JZR      0.039200
     39 H5'A       -5.9470   -1.1120   -4.2930 hc        1 JZR      0.039200
     40 H6'        -5.6640    1.0420   -6.5040 hc        1 JZR      0.033367
     41 H6'A       -5.4480   -0.7410   -6.7330 hc        1 JZR      0.033367
     42 H6'B       -7.0690   -0.0780   -6.2660 hc        1 JZR      0.033367
@<TRIPOS>BOND
     1    1    2 1   
     2    1    3 1   
     3    1   10 1   
     4    1   19 1   
     5    2   13 1   
     6    3    4 1   
     7    3    5 1   
     8    3   20 1   
     9    4   21 1   
    10    5    6 1   
    11    5    7 1   
    12    5   22 1   
    13    6   23 1   
    14    7    8 1   
    15    7    9 1   
    16    7   24 1   
    17    8   25 1   
    18    9   10 1   
    19    9   11 1   
    20    9   26 1   
    21   11   12 1   
    22   11   27 1   
    23   11   28 1   
    24   12   29 1   
    25   13   14 1   
    26   13   30 1   
    27   13   31 1   
    28   14   15 1   
    29   14   32 1   
    30   14   33 1   
    31   15   16 1   
    32   15   34 1   
    33   15   35 1   
    34   16   17 1   
    35   16   36 1   
    36   16   37 1   
    37   17   18 1   
    38   17   38 1   
    39   17   39 1   
    40   18   40 1   
    41   18   41 1   
    42   18   42 1   
@<TRIPOS>SUBSTRUCTURE
     1 JZR         1 TEMP              0 ****  ****    0 ROOT
