@<TRIPOS>MOLECULE
JZR
   42    42     1     0     0
SMALL
bcc


@<TRIPOS>ATOM
      1 C1          1.0770    0.1570    1.0940 c3        1 JZR      0.344900
      2 O1          0.6100    0.3450   -0.2010 os        1 JZR     -0.401600
      3 C2          2.5920    0.1530    1.0730 c3        1 JZR      0.130100
      4 O2          3.0420   -1.0120    0.3620 oh        1 JZR     -0.587800
      5 C3          3.1760    0.1360    2.4400 c3        1 JZR      0.068100
      6 O3          4.6180    0.3170    2.3390 oh        1 JZR     -0.602800
      7 C4          2.6160    1.2100    3.3030 c3        1 JZR      0.083100
      8 O4          3.0870    1.0180    4.6450 oh        1 JZR     -0.592800
      9 C5          1.0950    1.2110    3.3120 c3        1 JZR      0.112100
     10 O5          0.5250    1.2220    1.9610 os        1 JZR     -0.453600
     11 C6          0.6200    2.4130    4.0430 c3        1 JZR      0.140400
     12 O6         -0.7220    2.2390    4.4030 oh        1 JZR     -0.594800
     13 C1'        -0.5650   -0.4220   -0.5150 c3        1 JZR      0.135400
     14 C2'        -0.9200   -0.2300   -1.9950 c3        1 JZR     -0.084400
     15 C3'        -2.1950   -1.0220   -2.3260 c3        1 JZR     -0.078400
     16 C4'        -2.4680   -0.9470   -3.8460 c3        1 JZR     -0.078400
     17 C5'        -3.7310   -1.7230   -4.1740 c3        1 JZR     -0.080400
     18 C6'        -3.9990   -1.6480   -5.6680 c3        1 JZR     -0.093100
     19 H1          0.7630   -0.7090    1.4200 h2        1 JZR      0.059700
     20 H2          2.9060    0.9530    0.6030 h1        1 JZR      0.079700
     21 HO2         3.9160   -0.9420    0.2000 ho        1 JZR      0.420000
     22 H3          2.9930   -0.7300    2.8530 h1        1 JZR      0.065700
     23 HO3         5.0320   -0.3320    2.7930 ho        1 JZR      0.409000
     24 H4          2.9320    2.0750    2.9770 h1        1 JZR      0.066700
     25 HO4         3.8790    1.4080    4.7390 ho        1 JZR      0.407000
     26 H5          0.7820    0.4130    3.7800 h1        1 JZR      0.066700
     27 H6          1.1590    2.5390    4.8480 h1        1 JZR      0.061700
     28 H6A         0.7040    3.2020    3.4650 h1        1 JZR      0.061700
     29 HO6        -0.9540    2.8620    4.9960 ho        1 JZR      0.411000
     30 H1'        -0.3910   -1.3730   -0.3400 h1        1 JZR      0.035200
     31 H1'A       -1.3150   -0.1180    0.0450 h1        1 JZR      0.035200
     32 H2'        -1.0710    0.7170   -2.1720 hc        1 JZR      0.056700
     33 H2'A       -0.1850   -0.5510   -2.5500 hc        1 JZR      0.056700
     34 H3'        -2.0760   -1.9600   -2.0610 hc        1 JZR      0.040200
     35 H3'A       -2.9540   -0.6390   -1.8380 hc        1 JZR      0.040200
     36 H4'        -2.5830   -0.0090   -4.1120 hc        1 JZR      0.041700
     37 H4'A       -1.7120   -1.3340   -4.3330 hc        1 JZR      0.041700
     38 H5'        -4.4880   -1.3360   -3.6870 hc        1 JZR      0.038700
     39 H5'A       -3.6170   -2.6550   -3.9100 hc        1 JZR      0.038700
     40 H6'        -4.8550   -2.0890   -5.8700 hc        1 JZR      0.032700
     41 H6'A       -3.2810   -2.0980   -6.1490 hc        1 JZR      0.032700
     42 H6'B       -4.0410   -0.7110   -5.9450 hc        1 JZR      0.032700
@<TRIPOS>BOND
     1    1    2 1   
     2    1    3 1   
     3    1   10 1   
     4    1   19 1   
     5    2   13 1   
     6    3    4 1   
     7    3    5 1   
     8    3   20 1   
     9    4   21 1   
    10    5    6 1   
    11    5    7 1   
    12    5   22 1   
    13    6   23 1   
    14    7    8 1   
    15    7    9 1   
    16    7   24 1   
    17    8   25 1   
    18    9   10 1   
    19    9   11 1   
    20    9   26 1   
    21   11   12 1   
    22   11   27 1   
    23   11   28 1   
    24   12   29 1   
    25   13   14 1   
    26   13   30 1   
    27   13   31 1   
    28   14   15 1   
    29   14   32 1   
    30   14   33 1   
    31   15   16 1   
    32   15   34 1   
    33   15   35 1   
    34   16   17 1   
    35   16   36 1   
    36   16   37 1   
    37   17   18 1   
    38   17   38 1   
    39   17   39 1   
    40   18   40 1   
    41   18   41 1   
    42   18   42 1   
@<TRIPOS>SUBSTRUCTURE
     1 JZR         1 TEMP              0 ****  ****    0 ROOT
