@<TRIPOS>MOLECULE
JZR
   42    42     1     0     0
SMALL
bcc


@<TRIPOS>ATOM
      1 C1         -0.0390   -0.0850    0.1360 c3        1 JZR      0.307900
      2 O1         -0.5300    0.0660   -1.1770 os        1 JZR     -0.424600
      3 C2          1.4990   -0.0340    0.0460 c3        1 JZR      0.089100
      4 O2          2.0050   -1.2390   -0.4980 oh        1 JZR     -0.603800
      5 C3          2.0800    0.0910    1.4610 c3        1 JZR      0.108100
      6 O3          3.4750    0.3320    1.4180 oh        1 JZR     -0.605800
      7 C4          1.4490    1.3030    2.1700 c3        1 JZR      0.122100
      8 O4          1.8440    1.3390    3.5300 oh        1 JZR     -0.594800
      9 C5         -0.0820    1.1810    2.1500 c3        1 JZR      0.108100
     10 O5         -0.5590    1.0560    0.8080 os        1 JZR     -0.449600
     11 C6         -0.7370    2.4500    2.7050 c3        1 JZR      0.140400
     12 O6         -2.1400    2.3130    2.7660 oh        1 JZR     -0.594800
     13 C1'        -1.9500   -0.0990   -1.2820 c3        1 JZR      0.136400
     14 C2'        -2.2870    0.0620   -2.7530 c3        1 JZR     -0.084400
     15 C3'        -3.7760   -0.0960   -2.9700 c3        1 JZR     -0.078400
     16 C4'        -4.1320    0.0610   -4.4330 c3        1 JZR     -0.078400
     17 C5'        -5.6210   -0.0950   -4.6570 c3        1 JZR     -0.080400
     18 C6'        -5.9800    0.0610   -6.1120 c3        1 JZR     -0.093100
     19 H1         -0.4020   -1.0330    0.6220 h2        1 JZR      0.053700
     20 H2          1.8130    0.8410   -0.5870 h1        1 JZR      0.077700
     21 HO2         1.6330   -1.3160   -1.3870 ho        1 JZR      0.425000
     22 H3          1.8790   -0.8510    2.0430 h1        1 JZR      0.064700
     23 HO3         3.8630   -0.3870    0.9010 ho        1 JZR      0.427000
     24 H4          1.7740    2.2480    1.6520 h1        1 JZR      0.063700
     25 HO4         2.8110    1.3230    3.5320 ho        1 JZR      0.426000
     26 H5         -0.4050    0.2840    2.7460 h1        1 JZR      0.068700
     27 H6         -0.4000    2.6010    3.7660 h1        1 JZR      0.064200
     28 H6A        -0.4550    3.3330    2.0750 h1        1 JZR      0.064200
     29 HO6        -2.4470    2.1540    1.8640 ho        1 JZR      0.409000
     30 H1'        -2.2310   -1.1200   -0.9090 h1        1 JZR      0.038200
     31 H1'A       -2.4610    0.6790   -0.6580 h1        1 JZR      0.038200
     32 H2'        -1.7250   -0.7020   -3.3520 hc        1 JZR      0.055200
     33 H2'A       -1.9490    1.0720   -3.1030 hc        1 JZR      0.055200
     34 H3'        -4.1060   -1.1060   -2.6100 hc        1 JZR      0.041700
     35 H3'A       -4.3290    0.6690   -2.3640 hc        1 JZR      0.041700
     36 H4'        -3.8020    1.0710   -4.7940 hc        1 JZR      0.041700
     37 H4'A       -3.5780   -0.7030   -5.0400 hc        1 JZR      0.041700
     38 H5'        -6.1720    0.6690   -4.0480 hc        1 JZR      0.039200
     39 H5'A       -5.9490   -1.1050   -4.2930 hc        1 JZR      0.039200
     40 H6'        -5.6830    1.0700   -6.4850 hc        1 JZR      0.033367
     41 H6'A       -7.0820   -0.0580   -6.2540 hc        1 JZR      0.033367
     42 H6'B       -5.4590   -0.7090   -6.7310 hc        1 JZR      0.033367
@<TRIPOS>BOND
     1    1    2 1   
     2    1    3 1   
     3    1   10 1   
     4    1   19 1   
     5    2   13 1   
     6    3    4 1   
     7    3    5 1   
     8    3   20 1   
     9    4   21 1   
    10    5    6 1   
    11    5    7 1   
    12    5   22 1   
    13    6   23 1   
    14    7    8 1   
    15    7    9 1   
    16    7   24 1   
    17    8   25 1   
    18    9   10 1   
    19    9   11 1   
    20    9   26 1   
    21   11   12 1   
    22   11   27 1   
    23   11   28 1   
    24   12   29 1   
    25   13   14 1   
    26   13   30 1   
    27   13   31 1   
    28   14   15 1   
    29   14   32 1   
    30   14   33 1   
    31   15   16 1   
    32   15   34 1   
    33   15   35 1   
    34   16   17 1   
    35   16   36 1   
    36   16   37 1   
    37   17   18 1   
    38   17   38 1   
    39   17   39 1   
    40   18   40 1   
    41   18   41 1   
    42   18   42 1   
@<TRIPOS>SUBSTRUCTURE
     1 JZR         1 TEMP              0 ****  ****    0 ROOT
