@<TRIPOS>MOLECULE
JZR
   42    42     1     0     0
SMALL
bcc


@<TRIPOS>ATOM
      1 C1          0.8150    0.5260   -0.4440 c3        1 JZR      0.307900
      2 O1         -0.4580    0.8390    0.0730 os        1 JZR     -0.424600
      3 C2          1.7950    1.5750    0.1180 c3        1 JZR      0.089100
      4 O2          1.6150    2.8210   -0.5300 oh        1 JZR     -0.603800
      5 C3          3.2330    1.1270   -0.1760 c3        1 JZR      0.108100
      6 O3          4.1700    1.9590    0.4850 oh        1 JZR     -0.605800
      7 C4          3.4500   -0.2950    0.3720 c3        1 JZR      0.122100
      8 O4          4.7120   -0.7930   -0.0340 oh        1 JZR     -0.594800
      9 C5          2.3870   -1.2440   -0.2030 c3        1 JZR      0.108100
     10 O5          1.0730   -0.7660    0.0940 os        1 JZR     -0.449600
     11 C6          2.4810   -2.6270    0.4480 c3        1 JZR      0.140400
     12 O6          1.5630   -3.5270   -0.1320 oh        1 JZR     -0.594800
     13 C1'        -1.5120    0.0330   -0.4690 c3        1 JZR      0.136400
     14 C2'        -2.7970    0.5290    0.1690 c3        1 JZR     -0.084400
     15 C3'        -3.9780   -0.2650   -0.3430 c3        1 JZR     -0.078400
     16 C4'        -5.2690    0.2170    0.2830 c3        1 JZR     -0.078400
     17 C5'        -6.4550   -0.5750   -0.2250 c3        1 JZR     -0.080400
     18 C6'        -7.7440   -0.1000    0.3950 c3        1 JZR     -0.093100
     19 H1          0.8260    0.4990   -1.5680 h2        1 JZR      0.053700
     20 H2          1.6370    1.6870    1.2260 h1        1 JZR      0.077700
     21 HO2         0.7070    3.0970   -0.3450 ho        1 JZR      0.425000
     22 H3          3.4240    1.1520   -1.2850 h1        1 JZR      0.064700
     23 HO3         3.9810    2.8640    0.2040 ho        1 JZR      0.427000
     24 H4          3.3900   -0.2750    1.4960 h1        1 JZR      0.063700
     25 HO4         5.3670   -0.1410    0.2540 ho        1 JZR      0.426000
     26 H5          2.5110   -1.3300   -1.3180 h1        1 JZR      0.068700
     27 H6          3.4980   -3.0580    0.2460 h1        1 JZR      0.064200
     28 H6A         2.3040   -2.5430    1.5530 h1        1 JZR      0.064200
     29 HO6         0.6810   -3.1590    0.0070 ho        1 JZR      0.409000
     30 H1'        -1.5360    0.1580   -1.5840 h1        1 JZR      0.038200
     31 H1'A       -1.3220   -1.0440   -0.2190 h1        1 JZR      0.038200
     32 H2'        -2.7180    0.4340    1.2840 hc        1 JZR      0.055200
     33 H2'A       -2.9320    1.6180   -0.0620 hc        1 JZR      0.055200
     34 H3'        -4.0430   -0.1700   -1.4590 hc        1 JZR      0.041700
     35 H3'A       -3.8300   -1.3530   -0.1100 hc        1 JZR      0.041700
     36 H4'        -5.2050    0.1220    1.4000 hc        1 JZR      0.041700
     37 H4'A       -5.4170    1.3040    0.0520 hc        1 JZR      0.041700
     38 H5'        -6.5170   -0.4810   -1.3410 hc        1 JZR      0.039200
     39 H5'A       -6.3050   -1.6630    0.0060 hc        1 JZR      0.039200
     40 H6'        -8.6040   -0.6960    0.0080 hc        1 JZR      0.033367
     41 H6'A       -7.7100   -0.2090    1.5060 hc        1 JZR      0.033367
     42 H6'B       -7.9230    0.9760    0.1550 hc        1 JZR      0.033367
@<TRIPOS>BOND
     1    1    2 1   
     2    1    3 1   
     3    1   10 1   
     4    1   19 1   
     5    2   13 1   
     6    3    4 1   
     7    3    5 1   
     8    3   20 1   
     9    4   21 1   
    10    5    6 1   
    11    5    7 1   
    12    5   22 1   
    13    6   23 1   
    14    7    8 1   
    15    7    9 1   
    16    7   24 1   
    17    8   25 1   
    18    9   10 1   
    19    9   11 1   
    20    9   26 1   
    21   11   12 1   
    22   11   27 1   
    23   11   28 1   
    24   12   29 1   
    25   13   14 1   
    26   13   30 1   
    27   13   31 1   
    28   14   15 1   
    29   14   32 1   
    30   14   33 1   
    31   15   16 1   
    32   15   34 1   
    33   15   35 1   
    34   16   17 1   
    35   16   36 1   
    36   16   37 1   
    37   17   18 1   
    38   17   38 1   
    39   17   39 1   
    40   18   40 1   
    41   18   41 1   
    42   18   42 1   
@<TRIPOS>SUBSTRUCTURE
     1 JZR         1 TEMP              0 ****  ****    0 ROOT
