@<TRIPOS>MOLECULE
JZS
   59    84     1     0     0
SMALL
bcc


@<TRIPOS>ATOM
      1 C1          0.0000    0.0000    0.0000 DU        1 JZS      0.346000
      2 F1          3.8280    5.1870  -15.4710 f         1 JZS     -0.088333
      3 N1          2.0180    1.1960   -0.6920 ny        1 JZS     -0.156000
      4 O1          1.8580    0.2010   -2.6690 o         1 JZS     -0.237000
      5 C2          1.5300    0.0000    0.0000 DU        1 JZS     -0.446000
      6 F2          4.3940    6.9210  -14.0980 f         1 JZS     -0.088333
      7 N2          3.3700    3.5440   -6.1590 nx        1 JZS      0.507000
      8 O2          5.0330    4.3890  -13.0620 oh        1 JZS     -0.118000
      9 C3          2.1460    1.1940   -2.0320 c3        1 JZS      0.274000
     10 F3          2.2060    6.3030  -14.3140 f         1 JZS     -0.088333
     11 N3          3.7560    2.4570   -6.9520 na        1 JZS     -0.058000
     12 C4          2.6390    2.4020   -2.7300 DU        1 JZS     -0.517000
     13 F4          2.8820    2.7860  -12.2290 f         1 JZS     -0.088333
     14 C5          2.9720    3.5440   -2.0010 c3        1 JZS     -0.260000
     15 F5          3.0390    3.0260  -14.4960 f         1 JZS     -0.088333
     16 C6          3.4300    4.6710   -2.6540 c3        1 JZS     -0.005000
     17 F6          1.4150    4.1430  -13.3380 f         1 JZS     -0.088333
     18 C7          3.5630    4.6710   -4.0300 c2        1 JZS     -0.015000
     19 C8          3.2350    3.5380   -4.7640 c2        1 JZS     -0.231000
     20 C9          2.7780    2.4010   -4.1180 c2        1 JZS     -0.055000
     21 C10         3.7800    2.8120   -8.2040 c2        1 JZS     -0.024000
     22 C11         3.4040    4.1730   -8.2960 c2        1 JZS     -0.470000
     23 C12         3.2580    5.0660   -9.3720 c3        1 JZS      0.159000
     24 C13         3.3530    5.5770  -11.7940 c3        1 JZS      0.302000
     25 C14         3.6850    4.8620  -13.1050 c3        1 JZS     -0.159000
     26 C15         3.5240    5.8390  -14.2720 c3        1 JZS      0.390500
     27 C16         2.7350    3.6800  -13.2970 c3        1 JZS      0.390500
     28 C17         2.8660    6.3700   -9.1290 c2        1 JZS      0.081000
     29 C18         2.6170    6.7980   -7.8330 DU        1 JZS     -0.519000
     30 C19         2.1900    8.2220   -7.5870 c3        1 JZS      0.459000
     31 C20         2.7550    5.9350   -6.7680 c2        1 JZS      0.107000
     32 C21         3.1540    4.6190   -6.9850 c2        1 JZS     -0.203000
     33 C22         2.0330    0.0000    1.4200 DU        1 JZS      0.747000
     34 H1          0.7180    0.3610    0.7260 DU        1 JZS      0.400000
     35 H1A         0.3380    0.4280   -0.9360 ha        1 JZS      0.023000
     36 H1B         0.7920   -0.3080    0.6720 DU        1 JZS      0.194000
     37 HN1         1.3100    0.5410   -0.4250 DU        1 JZS      0.305000
     38 H2          0.5780    0.3420    0.3870 DU        1 JZS     -0.424000
     39 HO2         4.6660    4.1130  -12.2390 ho        1 JZS      0.167000
     40 HN4         3.4540    4.3440   -9.7220 DU        1 JZS      0.357000
     41 H5          2.7280    2.5430   -1.6650 DU        1 JZS      0.390000
     42 HN5         1.9180   -0.7050    1.3210 DU        1 JZS      0.027500
     43 HN5A        1.9190   -0.6360    1.3460 DU        1 JZS      0.027500
     44 H6          3.1460    4.1030   -1.7760 DU        1 JZS      0.274000
     45 H7          3.4970    3.9750   -3.2020 DU        1 JZS      0.137000
     46 H9          2.7080    1.7510   -3.2540 DU        1 JZS      0.353000
     47 H10         3.7650    3.2560   -7.2160 DU        1 JZS      0.283000
     48 H13         3.4430    5.5730  -10.7140 DU        1 JZS      0.225000
     49 H13A        3.2570    5.0390  -10.8590 DU        1 JZS     -0.261000
     50 H17         3.1580    5.3270   -9.1070 ha        1 JZS     -0.248000
     51 H19         2.2080    7.6410   -8.5010 DU        1 JZS     -0.170000
     52 H19A        2.5440    7.8530   -8.5420 DU        1 JZS     -0.170000
     53 H19B        2.3580    7.7730   -8.5580 DU        1 JZS      0.434000
     54 H20         2.8520    6.9810   -7.0350 ha        1 JZS      0.348000
     55 O3          2.7300    0.9100    1.8170 o         1 JZS     -0.343000
     56 N4          3.5070    4.6420  -10.6760 ny        1 JZS      0.415000
     57 H12         2.0830    1.8290   -1.4640 DU        1 JZS      0.077000
     58 H53         1.6590   -0.3400    1.5090 DU        1 JZS     -0.471000
     59 N5          1.7080   -1.0110    2.2500 nz        1 JZS     -0.116000
@<TRIPOS>BOND
     1    1    5 1   
     2    1   34 1   
     3    1   35 1   
     4    1   36 1   
     5    1   38 1   
     6    2   26 1   
     7    3    5 1   
     8    3    9 1   
     9    3   37 1   
    10    3   57 1   
    11    4    9 1   
    12    5   33 1   
    13    5   34 1   
    14    5   36 1   
    15    5   37 1   
    16    6   26 1   
    17    7   11 1   
    18    7   19 1   
    19    7   32 1   
    20    7   47 1   
    21    8   25 1   
    22    8   39 1   
    23    9   12 1   
    24    9   57 1   
    25   10   26 1   
    26   11   21 1   
    27   11   47 1   
    28   12   14 1   
    29   12   20 1   
    30   12   41 1   
    31   12   46 1   
    32   13   27 1   
    33   14   16 1   
    34   14   41 1   
    35   14   44 1   
    36   15   27 1   
    37   16   18 1   
    38   16   44 1   
    39   16   45 1   
    40   17   27 1   
    41   18   19 1   
    42   18   45 1   
    43   19   20 1   
    44   20   46 1   
    45   21   22 1   
    46   21   47 1   
    47   22   23 1   
    48   22   32 1   
    49   23   28 1   
    50   23   40 1   
    51   23   56 1   
    52   24   25 1   
    53   24   48 1   
    54   24   49 1   
    55   24   56 1   
    56   25   26 1   
    57   25   27 1   
    58   28   29 1   
    59   28   50 1   
    60   29   30 1   
    61   29   31 1   
    62   29   51 1   
    63   29   52 1   
    64   29   53 1   
    65   30   51 1   
    66   30   52 1   
    67   30   53 1   
    68   31   32 1   
    69   31   54 1   
    70   33   42 1   
    71   33   43 1   
    72   33   55 1   
    73   33   59 1   
    74   34   36 1   
    75   34   38 1   
    76   40   56 1   
    77   42   58 1   
    78   42   59 1   
    79   43   58 1   
    80   43   59 1   
    81   48   49 1   
    82   48   56 1   
    83   51   52 1   
    84   58   59 1   
@<TRIPOS>SUBSTRUCTURE
     1 JZS         1 TEMP              0 ****  ****    0 ROOT
