@<TRIPOS>MOLECULE
JZS
   59    61     1     0     0
SMALL
bcc


@<TRIPOS>ATOM
      1 C1          0.9720    0.5840    1.8930 c3        1 JZS     -0.149100
      2 F1          4.8190    4.8830  -15.2770 f         1 JZS     -0.212300
      3 N1          1.8850    1.6610   -0.1870 n4        1 JZS     -0.700800
      4 O1          1.9160    0.4160   -2.1290 o         1 JZS     -0.550100
      5 C2          1.2420    0.4370    0.3970 c3        1 JZS      0.085500
      6 F2          4.9030    6.5950  -13.9350 f         1 JZS     -0.212300
      7 N2          2.7360    3.7310   -5.9960 na        1 JZS      0.122800
      8 O2          5.3080    3.8860  -12.7290 oh        1 JZS     -0.556800
      9 C3          2.0720    1.5660   -1.7180 c         1 JZS      0.626700
     10 F3          2.9760    5.9100  -14.6860 f         1 JZS     -0.212300
     11 N3          3.1620    2.5760   -6.6200 nc        1 JZS     -0.559100
     12 C4          2.3880    2.7870   -2.4120 ca        1 JZS     -0.201600
     13 F4          3.1530    2.2690  -12.4430 f         1 JZS     -0.212300
     14 C5          2.6460    4.0150   -1.7680 ca        1 JZS     -0.131000
     15 F5          3.1110    2.8280  -14.5390 f         1 JZS     -0.212300
     16 C6          2.9640    5.1230   -2.5380 ca        1 JZS     -0.084000
     17 F6          1.7020    3.7430  -13.1420 f         1 JZS     -0.212300
     18 C7          3.0310    5.0470   -3.9310 ca        1 JZS     -0.076000
     19 C8          2.7460    3.8330   -4.6010 ca        1 JZS      0.085800
     20 C9          2.4380    2.6920   -3.8170 ca        1 JZS     -0.042000
     21 C10         3.3800    2.8520   -7.9070 cd        1 JZS      0.453800
     22 C11         3.1260    4.2630   -8.1870 ca        1 JZS     -0.301900
     23 C12         3.1560    5.0570   -9.3510 ca        1 JZS      0.278600
     24 C13         3.6740    5.3090  -11.7320 c3        1 JZS      0.208800
     25 C14         4.0640    4.4840  -12.9780 c3        1 JZS      0.064800
     26 C15         4.1810    5.4680  -14.2170 c3        1 JZS      0.611900
     27 C16         3.0020    3.3470  -13.2780 c3        1 JZS      0.611900
     28 C17         2.7750    6.4150   -9.2020 ca        1 JZS     -0.222000
     29 C18         2.3530    6.9330   -7.9760 ca        1 JZS      0.034700
     30 C19         1.9370    8.3560   -7.9080 c3        1 JZS     -0.073800
     31 C20         2.3100    6.1450   -6.8130 ca        1 JZS     -0.210000
     32 C21         2.7180    4.8230   -6.9260 ca        1 JZS      0.013800
     33 C22         2.1660   -0.7750    0.2000 c         1 JZS      0.521100
     34 H1          1.9200    0.7040    2.4760 hc        1 JZS      0.109367
     35 H1A         0.4410   -0.3310    2.2630 hc        1 JZS      0.109367
     36 H1B         0.3070    1.4640    2.0910 hc        1 JZS      0.109367
     37 HN1         1.2860    2.4720    0.0260 hn        1 JZS      0.484800
     38 H2          0.2620    0.2940   -0.1560 hx        1 JZS      0.140700
     39 HO2         5.5870    3.4230  -13.5370 ho        1 JZS      0.450000
     40 HN4         3.9840    3.6290  -10.5490 hn        1 JZS      0.444800
     41 H5          2.6270    4.1250   -0.6750 ha        1 JZS      0.125000
     42 HN5         1.4340   -1.6960   -1.5130 hn        1 JZS      0.497133
     43 HN5A        2.2930   -2.7330   -0.5090 hn        1 JZS      0.497133
     44 H6          3.1870    6.0870   -2.0440 ha        1 JZS      0.180000
     45 H7          3.3310    5.9440   -4.5040 ha        1 JZS      0.193000
     46 H9          2.2360    1.7190   -4.3030 ha        1 JZS      0.190000
     47 H10         3.6930    2.0850   -8.6230 h4        1 JZS      0.072800
     48 H13         4.4900    6.0740  -11.5660 h1        1 JZS      0.088700
     49 H13A        2.7100    5.8460  -11.9770 h1        1 JZS      0.088700
     50 H17         2.7930    7.0880  -10.0740 ha        1 JZS      0.156000
     51 H19         1.0110    8.5110   -8.5180 hc        1 JZS      0.063033
     52 H19A        1.7230    8.6720   -6.8580 hc        1 JZS      0.063033
     53 H19B        2.7410    9.0160   -8.3200 hc        1 JZS      0.063033
     54 H20         1.9340    6.5730   -5.8750 ha        1 JZS      0.139000
     55 O3          3.3190   -0.8450    0.5890 o         1 JZS     -0.349100
     56 N4          3.4750    4.4880  -10.5690 nh        1 JZS     -0.747600
     57 H12         2.8040    1.8200    0.2500 hn        1 JZS      0.484800
     58 H53         0.7330   -2.2750   -0.0990 hn        1 JZS      0.497133
     59 N5          1.6100   -1.9560   -0.5270 n4        1 JZS     -0.740400
@<TRIPOS>BOND
     1    1    5 1   
     2    1   34 1   
     3    1   35 1   
     4    1   36 1   
     5    2   26 1   
     6    3    5 1   
     7    3    9 1   
     8    3   37 1   
     9    3   57 1   
    10    4    9 2   
    11    5   33 1   
    12    5   38 1   
    13    6   26 1   
    14    7   11 1   
    15    7   19 1   
    16    7   32 1   
    17    8   25 1   
    18    8   39 1   
    19    9   12 1   
    20   10   26 1   
    21   11   21 2   
    22   12   14 ar  
    23   12   20 ar  
    24   13   27 1   
    25   14   16 ar  
    26   14   41 1   
    27   15   27 1   
    28   16   18 ar  
    29   16   44 1   
    30   17   27 1   
    31   18   19 ar  
    32   18   45 1   
    33   19   20 ar  
    34   20   46 1   
    35   21   22 1   
    36   21   47 1   
    37   22   23 ar  
    38   22   32 ar  
    39   23   28 ar  
    40   23   56 1   
    41   24   25 1   
    42   24   48 1   
    43   24   49 1   
    44   24   56 1   
    45   25   26 1   
    46   25   27 1   
    47   28   29 ar  
    48   28   50 1   
    49   29   30 1   
    50   29   31 ar  
    51   30   51 1   
    52   30   52 1   
    53   30   53 1   
    54   31   32 ar  
    55   31   54 1   
    56   33   55 2   
    57   33   59 1   
    58   40   56 1   
    59   42   59 1   
    60   43   59 1   
    61   58   59 1   
@<TRIPOS>SUBSTRUCTURE
     1 JZS         1 TEMP              0 ****  ****    0 ROOT
