@<TRIPOS>MOLECULE
JZS
   57    53     1     0     0
SMALL
bcc


@<TRIPOS>ATOM
      1 C1          0.3280    1.5370    7.9760 c3        1 JZS     -0.221000
      2 F1          3.8800   -2.4640   -6.5380 f         1 JZS     -0.147167
      3 N1         -0.2320    0.8400    5.7460 n         1 JZS     -0.361000
      4 O1          1.0100   -1.0360    5.1310 o         1 JZS     -0.360000
      5 C2          0.8190    1.3810    6.5550 c3        1 JZS      0.009000
      6 F2          3.0800   -2.5810   -4.4600 f         1 JZS     -0.147167
      7 N2         -1.1380   -1.2140    0.2320 n3        1 JZS     -0.127000
      8 O2          1.0300   -2.3780   -6.2740 oh        1 JZS     -0.275000
      9 C3          0.0110   -0.3360    4.9280 c2        1 JZS      0.345000
     10 F3          4.0320   -0.7160   -5.1370 f         1 JZS     -0.147167
     11 N3         -0.3300   -2.2960   -0.0800 n2        1 JZS     -0.027000
     12 O3          0.3600    3.5190    5.6700 o         1 JZS     -0.380000
     13 C4         -0.9910   -0.7260    3.8350 c2        1 JZS     -0.109000
     14 F4          0.8900   -0.0260   -7.7810 f         1 JZS     -0.147167
     15 N4          0.2780   -1.1040   -4.2600 n3        1 JZS     -0.295000
     16 C5         -2.2950   -1.0970    4.1890 c2        1 JZS     -0.107000
     17 F5          2.7610   -1.1540   -8.1880 f         1 JZS     -0.147167
     18 N5          2.6180    3.0540    5.8460 n         1 JZS     -0.424000
     19 C6         -3.2020   -1.5280    3.1990 c1        1 JZS     -0.125000
     20 F6          2.8430    0.6710   -6.9910 f         1 JZS     -0.147167
     21 C7         -2.8060   -1.5860    1.8700 c1        1 JZS     -0.128000
     22 C8         -1.5000   -1.2150    1.5100 c1        1 JZS      0.077000
     23 C9         -0.5890   -0.7830    2.5040 c1        1 JZS     -0.073000
     24 C10         0.0260   -2.1970   -1.3970 c1        1 JZS     -0.138000
     25 C11        -0.5650   -1.0370   -1.9190 c1        1 JZS     -0.187000
     26 C12        -0.5390   -0.4400   -3.2190 c1        1 JZS      0.140000
     27 C13         1.2940   -0.3870   -4.9140 c3        1 JZS     -0.019000
     28 C14         1.9130   -1.2540   -5.9860 c3        1 JZS     -0.025000
     29 C15         3.2560   -1.7660   -5.5060 c3        1 JZS      0.389000
     30 C16         2.1180   -0.4140   -7.2750 c3        1 JZS      0.389000
     31 C17        -1.2400    0.7470   -3.4540 c1        1 JZS     -0.221000
     32 C18        -1.9700    1.3510   -2.4140 c1        1 JZS      0.002000
     33 C19        -2.8790    2.5780   -2.5850 c3        1 JZS     -0.186000
     34 C20        -1.9930    0.7690   -1.1530 c1        1 JZS     -0.180000
     35 C21        -1.2790   -0.4400   -0.9090 c1        1 JZS      0.052000
     36 C22         1.2180    2.7250    6.0160 c2        1 JZS      0.274000
     37 H1         -0.4950    1.1430    8.0590 hc        1 JZS      0.091667
     38 H1A         0.9940    1.0830    8.6260 hc        1 JZS      0.091667
     39 H1B         0.2600    2.4620    8.1870 hc        1 JZS      0.091667
     40 HN1        -1.0420    1.3300    5.6380 hn        1 JZS      0.239000
     41 H2          1.6020    0.7690    6.5400 h1        1 JZS      0.137000
     42 HO2         1.4360   -2.9380   -6.8490 ho        1 JZS      0.237000
     43 HN4         0.2030   -2.0510   -4.3950 hn        1 JZS      0.227000
     44 H5         -2.5790   -1.0570    5.1320 ha        1 JZS      0.144000
     45 HN5         3.2690    2.4860    6.1720 hn        1 JZS      0.227500
     46 HN5A        2.8690    3.8690    5.3980 hn        1 JZS      0.227500
     47 H6         -4.1530   -1.7980    3.4610 ha        1 JZS      0.142000
     48 H7         -3.4480   -1.8920    1.1730 ha        1 JZS      0.151000
     49 H9          0.3830   -0.5690    2.2530 ha        1 JZS      0.177000
     50 H10         0.6020   -2.8330   -1.8930 DU        1 JZS      0.184000
     51 H13         1.9670   -0.1340   -4.2820 h1        1 JZS      0.129000
     52 H13A        0.9260    0.3860   -5.3100 h1        1 JZS      0.129000
     53 H17        -1.2770    1.0970   -4.3020 ha        1 JZS      0.135000
     54 H19        -2.4310    3.2360   -3.1210 hc        1 JZS      0.088333
     55 H19A       -3.7370    2.3030   -3.0370 hc        1 JZS      0.088333
     56 H19B       -3.0630    2.9210   -1.7900 hc        1 JZS      0.088333
     57 H20        -2.5040    1.1900   -0.4290 ha        1 JZS      0.146000
@<TRIPOS>BOND
     1    1    5 1   
     2    1   37 1   
     3    1   38 1   
     4    1   39 1   
     5    2   29 1   
     6    3    5 1   
     7    3    9 1   
     8    3   40 1   
     9    4    9 1   
    10    5   36 1   
    11    5   41 1   
    12    6   29 1   
    13    7   11 1   
    14    7   22 1   
    15    7   35 1   
    16    8   28 1   
    17    8   42 1   
    18    9   13 1   
    19   10   29 1   
    20   11   24 1   
    21   12   36 1   
    22   13   16 1   
    23   13   23 1   
    24   14   30 1   
    25   15   26 1   
    26   15   27 1   
    27   15   43 1   
    28   16   19 1   
    29   16   44 1   
    30   17   30 1   
    31   18   36 1   
    32   18   45 1   
    33   18   46 1   
    34   19   47 1   
    35   20   30 1   
    36   21   22 1   
    37   21   48 1   
    38   23   49 1   
    39   24   25 1   
    40   25   35 1   
    41   26   31 1   
    42   27   28 1   
    43   27   51 1   
    44   27   52 1   
    45   28   29 1   
    46   28   30 1   
    47   31   53 1   
    48   32   33 1   
    49   32   34 1   
    50   33   54 1   
    51   33   55 1   
    52   33   56 1   
    53   34   57 1   
@<TRIPOS>SUBSTRUCTURE
     1 JZS         1 TEMP              0 ****  ****    0 ROOT
