@<TRIPOS>MOLECULE
JZS
   57    59     1     0     0
SMALL
bcc


@<TRIPOS>ATOM
      1 C1          8.5500    1.5470   -2.3420 c3        1 JZS     -0.102100
      2 F1         -8.1860    0.7680   -0.1480 f         1 JZS     -0.217467
      3 N1          7.0410    0.4600   -0.7080 n         1 JZS     -0.545900
      4 O1          5.9800    1.9180    0.7150 o         1 JZS     -0.595100
      5 C2          8.2070    1.2920   -0.8730 c3        1 JZS      0.033700
      6 F2         -7.4920   -1.0860    0.7570 f         1 JZS     -0.217467
      7 N2          1.2910   -0.4070    0.7660 na        1 JZS      0.144800
      8 O2         -5.8240    0.9300    1.6350 oh        1 JZS     -0.547800
      9 C3          6.0400    0.7860    0.1950 c         1 JZS      0.670700
     10 F3         -7.1230   -0.7000   -1.3550 f         1 JZS     -0.217467
     11 N3          0.8650    0.7460    1.3430 nc        1 JZS     -0.491100
     12 C4          5.0000   -0.2540    0.4510 ca        1 JZS     -0.128600
     13 F4         -4.3490    2.5320   -0.1580 f         1 JZS     -0.217467
     14 C5          5.3500   -1.5900    0.6670 ca        1 JZS     -0.110000
     15 F5         -6.4980    2.8540   -0.2680 f         1 JZS     -0.217467
     16 N5         10.4160    1.4680    0.2850 n         1 JZS     -0.665000
     17 C6          4.3510   -2.5250    0.9290 ca        1 JZS     -0.123000
     18 F6         -5.4760    1.7620   -1.8530 f         1 JZS     -0.217467
     19 C7          3.0120   -2.1470    0.9720 ca        1 JZS     -0.129000
     20 C8          2.6560   -0.8010    0.7420 ca        1 JZS      0.029800
     21 C9          3.6640    0.1520    0.4950 ca        1 JZS     -0.072000
     22 C10        -0.4750    0.7850    1.2670 cd        1 JZS      0.361800
     23 C11        -0.9800   -0.4100    0.6060 ca        1 JZS     -0.264900
     24 C12        -2.2560   -0.8980    0.2540 ca        1 JZS      0.208600
     25 C13        -4.6300   -0.4520   -0.0450 c3        1 JZS      0.149800
     26 C14        -5.7480    0.5610    0.2830 c3        1 JZS      0.074800
     27 C15        -7.1320   -0.0990   -0.1250 c3        1 JZS      0.627400
     28 C16        -5.5280    1.9210   -0.4930 c3        1 JZS      0.627400
     29 C17        -2.3110   -2.1240   -0.4260 ca        1 JZS     -0.221000
     30 C18        -1.1440   -2.8500   -0.7410 ca        1 JZS     -0.008300
     31 C19        -1.2940   -4.1360   -1.4670 c3        1 JZS     -0.060800
     32 C20         0.1220   -2.3910   -0.3940 ca        1 JZS     -0.176000
     33 C21         0.2010   -1.1720    0.2920 ca        1 JZS      0.003800
     34 C22         9.4560    0.6390   -0.2290 c         1 JZS      0.631100
     35 H1          9.4350    2.2240   -2.3960 hc        1 JZS      0.052367
     36 H1A         8.7930    0.5930   -2.8680 hc        1 JZS      0.052367
     37 H1B         7.6910    2.0350   -2.8620 hc        1 JZS      0.052367
     38 HN1         7.1480   -0.4910   -0.9820 hn        1 JZS      0.323500
     39 H2          7.9920    2.2870   -0.3730 h1        1 JZS      0.099700
     40 HO2        -5.6880    0.1320    2.1690 ho        1 JZS      0.449000
     41 HN4        -3.2270    0.7850    0.8250 hn        1 JZS      0.418800
     42 H5          6.4040   -1.9080    0.6530 ha        1 JZS      0.149000
     43 HN5        10.2710    2.4430    0.3410 hn        1 JZS      0.314500
     44 HN5A       11.2180    1.0800    0.7170 hn        1 JZS      0.314500
     45 H6          4.6210   -3.5760    1.1130 ha        1 JZS      0.143000
     46 H7          2.2400   -2.8990    1.1970 ha        1 JZS      0.150000
     47 H9          3.4210    1.2190    0.3520 ha        1 JZS      0.176000
     48 H10        -1.0540    1.6200    1.6650 h4        1 JZS      0.057800
     49 H13        -4.5020   -0.4620   -1.1690 h1        1 JZS      0.078200
     50 H13A       -4.9930   -1.4750    0.2690 h1        1 JZS      0.078200
     51 H17        -3.2780   -2.5510   -0.7310 ha        1 JZS      0.135000
     52 H19        -1.8260   -3.9720   -2.4370 hc        1 JZS      0.049033
     53 H19A       -0.3010   -4.6000   -1.6830 hc        1 JZS      0.049033
     54 H19B       -1.8950   -4.8550   -0.8550 hc        1 JZS      0.049033
     55 H20         1.0250   -2.9560   -0.6600 ha        1 JZS      0.147000
     56 O3          9.6070   -0.6000   -0.2070 o         1 JZS     -0.624100
     57 N4         -3.3990   -0.1880    0.6570 nh        1 JZS     -0.729600
@<TRIPOS>BOND
     1    1    5 1   
     2    1   35 1   
     3    1   36 1   
     4    1   37 1   
     5    2   27 1   
     6    3    5 1   
     7    3    9 1   
     8    3   38 1   
     9    4    9 2   
    10    5   34 1   
    11    5   39 1   
    12    6   27 1   
    13    7   11 1   
    14    7   20 1   
    15    7   33 1   
    16    8   26 1   
    17    8   40 1   
    18    9   12 1   
    19   10   27 1   
    20   11   22 2   
    21   12   14 ar  
    22   12   21 ar  
    23   13   28 1   
    24   14   17 ar  
    25   14   42 1   
    26   15   28 1   
    27   16   34 1   
    28   16   43 1   
    29   16   44 1   
    30   17   19 ar  
    31   17   45 1   
    32   18   28 1   
    33   19   20 ar  
    34   19   46 1   
    35   20   21 ar  
    36   21   47 1   
    37   22   23 1   
    38   22   48 1   
    39   23   24 ar  
    40   23   33 ar  
    41   24   29 ar  
    42   24   57 1   
    43   25   26 1   
    44   25   49 1   
    45   25   50 1   
    46   25   57 1   
    47   26   27 1   
    48   26   28 1   
    49   29   30 ar  
    50   29   51 1   
    51   30   31 1   
    52   30   32 ar  
    53   31   52 1   
    54   31   53 1   
    55   31   54 1   
    56   32   33 ar  
    57   32   55 1   
    58   34   56 2   
    59   41   57 1   
@<TRIPOS>SUBSTRUCTURE
     1 JZS         1 TEMP              0 ****  ****    0 ROOT
