@<TRIPOS>MOLECULE
JZU
   41    43     1     0     0
SMALL
bcc


@<TRIPOS>ATOM
      1 S          -0.2160   -1.4900    1.0790 s6        1 JZU      1.473800
      2 N1         -0.2780   -9.1830   -6.1280 nb        1 JZU     -0.651000
      3 C2         -1.3220   -8.4060   -5.7130 ca        1 JZU      0.707900
      4 N3         -1.3370   -7.4770   -4.7190 nb        1 JZU     -0.634000
      5 C4         -0.1480   -7.3280   -4.0900 ca        1 JZU      0.467800
      6 C5          1.0580   -8.0980   -4.4380 ca        1 JZU     -0.139200
      7 C6          0.9060   -9.0290   -5.4860 ca        1 JZU      0.560200
      8 N6          2.0540   -9.8610   -5.8920 n4        1 JZU     -0.822300
      9 N7          2.1280   -7.7150   -3.6110 nc        1 JZU     -0.528100
     10 C8          1.6280   -6.7770   -2.7990 cd        1 JZU      0.494700
     11 N9          0.2430   -6.5080   -3.0030 na        1 JZU     -0.290000
     12 C1'        -0.5690   -5.4760   -2.4440 c3        1 JZU      0.225800
     13 N18         0.2850    0.1540    1.8590 n4        1 JZU     -0.846500
     14 C2'        -0.7670   -5.5320   -0.8730 c3        1 JZU      0.105100
     15 O2'        -2.1450   -5.5030   -0.5890 oh        1 JZU     -0.603800
     16 O2S         0.9040   -2.2100    1.3830 o         1 JZU     -0.443800
     17 C3'        -0.2060   -4.1760   -0.3980 c3        1 JZU      0.098100
     18 O3'        -0.9100   -3.5010    0.6350 oh        1 JZU     -0.752800
     19 O3S        -1.5570   -1.4250    1.3380 o         1 JZU     -0.443800
     20 C4'        -0.3380   -3.3030   -1.6660 c3        1 JZU      0.076100
     21 O4'         0.0330   -4.1600   -2.7380 os        1 JZU     -0.385600
     22 C5'         0.5610   -2.0710   -1.6010 c3        1 JZU      0.108800
     23 N5'        -0.0480   -1.0220   -0.7000 n4        1 JZU     -0.747900
     24 HN6         2.8960   -9.2700   -5.9410 hn        1 JZU      0.491133
     25 HN6A        2.1970  -10.6000   -5.1890 hn        1 JZU      0.491133
     26 H1'        -1.5880   -5.4780   -2.9460 h2        1 JZU      0.154700
     27 HN18       -0.4780    0.5090    2.4580 hn        1 JZU      0.494133
     28 HN1A        0.5300    0.9290    1.2410 hn        1 JZU      0.494133
     29 H2'        -0.2460   -6.4000   -0.3950 h1        1 JZU      0.117700
     30 HO2'       -2.4640   -6.4130   -0.4770 ho        1 JZU      0.476000
     31 H3'         0.8530   -4.2880   -0.0320 h1        1 JZU      0.127700
     32 HO3'       -1.7900   -3.9040    0.7960 ho        1 JZU      0.543000
     33 H4'        -1.4200   -3.0080   -1.8220 h1        1 JZU      0.098700
     34 H5'         1.5850   -2.3290   -1.2000 hx        1 JZU      0.151200
     35 H5'A        0.6830   -1.6410   -2.6430 hx        1 JZU      0.151200
     36 HN5'       -0.9860   -0.8160   -1.0830 hn        1 JZU      0.487800
     37 H2         -2.2840   -8.5600   -6.2670 h5        1 JZU      0.124100
     38 H63         1.8870  -10.3000   -6.8120 hn        1 JZU      0.491133
     39 H183        1.0970    0.0240    2.4810 hn        1 JZU      0.494133
     40 H5'2        0.5130   -0.1790   -0.8630 hn        1 JZU      0.487800
     41 H8          2.2070   -6.2540   -2.0220 h5        1 JZU      0.096800
@<TRIPOS>BOND
     1    1   13 1   
     2    1   16 2   
     3    1   19 2   
     4    1   23 1   
     5    2    3 ar  
     6    2    7 ar  
     7    3    4 ar  
     8    3   37 1   
     9    4    5 ar  
    10    5    6 ar  
    11    5   11 1   
    12    6    7 ar  
    13    6    9 1   
    14    7    8 1   
    15    8   24 1   
    16    8   25 1   
    17    8   38 1   
    18    9   10 2   
    19   10   11 1   
    20   10   41 1   
    21   11   12 1   
    22   12   14 1   
    23   12   21 1   
    24   12   26 1   
    25   13   27 1   
    26   13   28 1   
    27   13   39 1   
    28   14   15 1   
    29   14   17 1   
    30   14   29 1   
    31   15   30 1   
    32   17   18 1   
    33   17   20 1   
    34   17   31 1   
    35   18   32 1   
    36   20   21 1   
    37   20   22 1   
    38   20   33 1   
    39   22   23 1   
    40   22   34 1   
    41   22   35 1   
    42   23   36 1   
    43   23   40 1   
@<TRIPOS>SUBSTRUCTURE
     1 JZU         1 TEMP              0 ****  ****    0 ROOT
