@<TRIPOS>MOLECULE
JZU
   40    42     1     0     0
SMALL
bcc


@<TRIPOS>ATOM
      1 S           0.0000    0.0000    0.0000 s6        1 JZU      0.791800
      2 N1          0.0220   -9.2530   -5.5640 nb        1 JZU     -0.653000
      3 C2         -0.9190   -9.1890   -4.6410 ca        1 JZU      0.718900
      4 N3         -1.0210   -8.1780   -3.8030 nb        1 JZU     -0.578000
      5 C4         -0.1610   -7.1650   -3.8570 ca        1 JZU      0.266800
      6 C5          0.8600   -7.1860   -4.8220 ca        1 JZU     -0.221200
      7 C6          0.9260   -8.2870   -5.6950 ca        1 JZU      0.552200
      8 N6          1.9100   -8.3630   -6.6640 nv        1 JZU     -0.272500
      9 N7          1.5840   -6.0530   -4.6620 nc        1 JZU     -0.433100
     10 C8          1.0850   -5.3550   -3.6850 cd        1 JZU      0.260700
     11 N9          0.0070   -5.9980   -3.1550 na        1 JZU      0.212000
     12 C1'        -0.8230   -5.5310   -2.0410 c3        1 JZU      0.175800
     13 N18         1.6570    0.0000    0.0000 nz        1 JZU     -0.177500
     14 C2'        -0.3360   -6.1460   -0.7040 c3        1 JZU      0.137100
     15 O2'        -0.9350   -7.4240   -0.4830 oh        1 JZU     -0.517800
     16 O2S        -0.4010    0.0000    1.3640 o         1 JZU     -0.446800
     17 C3'        -0.8420   -5.1120    0.3310 c3        1 JZU      0.143100
     18 O3'        -2.0760   -5.5450    0.9080 oh        1 JZU     -0.526800
     19 O3S        -0.4020    0.9990   -0.9280 o         1 JZU     -0.446800
     20 C4'        -1.0540   -3.8260   -0.4910 c3        1 JZU      0.140100
     21 O4'        -0.6510   -4.1120   -1.8410 os        1 JZU     -0.442600
     22 C5'        -0.1950   -2.6970    0.0800 c3        1 JZU      0.068800
     23 N5'        -0.4900   -1.4510   -0.6310 ny        1 JZU     -0.222900
     24 HN6         1.9460   -9.1530   -7.2780 hn        1 JZU      0.290300
     25 HN6A        2.5850   -7.6300   -6.7520 hn        1 JZU      0.290300
     26 H1'        -1.8670   -5.7670   -2.2090 h2        1 JZU      0.095700
     27 HN18        1.9900    0.9070    0.2600 hn        1 JZU      0.320800
     28 HN1A        1.9900   -0.6780    0.6560 hn        1 JZU      0.320800
     29 H2'         0.7450   -6.2100   -0.6830 h1        1 JZU      0.024700
     30 HO2'       -0.3360   -7.9750   -0.0060 ho        1 JZU      0.413000
     31 H3'        -0.0950   -4.9500    1.0990 h1        1 JZU      0.016700
     32 HO3'       -1.9920   -5.5730    1.8470 ho        1 JZU      0.416000
     33 H4'        -2.1000   -3.5460   -0.4720 h1        1 JZU      0.073700
     34 H5'        -0.4160   -2.5720    1.1340 hx        1 JZU      0.075700
     35 H5'A        0.8530   -2.9420   -0.0420 hx        1 JZU      0.075700
     36 HN5'       -1.4840   -1.4030   -0.7440 hn        1 JZU      0.341800
     37 H2         -1.6360   -9.9980   -4.5710 h5        1 JZU      0.028100
     38 H183        1.9900   -0.2290   -0.9150 hn        1 JZU      0.320800
     39 H5'2       -0.0850   -1.5280   -1.5430 hn        1 JZU      0.341800
     40 H8          1.4700   -4.4020   -3.3430 h5        1 JZU      0.023800
@<TRIPOS>BOND
     1    1   13 1   
     2    1   16 2   
     3    1   19 2   
     4    1   23 1   
     5    2    3 ar  
     6    2    7 ar  
     7    3    4 ar  
     8    3   37 1   
     9    4    5 ar  
    10    5    6 ar  
    11    5   11 1   
    12    6    7 ar  
    13    6    9 1   
    14    7    8 1   
    15    8   24 1   
    16    8   25 1   
    17    9   10 2   
    18   10   11 1   
    19   10   40 1   
    20   11   12 1   
    21   12   14 1   
    22   12   21 1   
    23   12   26 1   
    24   13   27 1   
    25   13   28 1   
    26   13   38 1   
    27   14   15 1   
    28   14   17 1   
    29   14   29 1   
    30   15   30 1   
    31   17   18 1   
    32   17   20 1   
    33   17   31 1   
    34   18   32 1   
    35   20   21 1   
    36   20   22 1   
    37   20   33 1   
    38   22   23 1   
    39   22   34 1   
    40   22   35 1   
    41   23   36 1   
    42   23   39 1   
@<TRIPOS>SUBSTRUCTURE
     1 JZU         1 TEMP              0 ****  ****    0 ROOT
