@<TRIPOS>MOLECULE
JZU
   38    40     1     0     0
SMALL
bcc


@<TRIPOS>ATOM
      1 S          -4.3140   -1.2300   -0.2520 s6        1 JZU      1.589800
      2 N1          5.3080   -0.6730   -0.6700 nb        1 JZU     -0.794000
      3 C2          4.9000    0.5980   -0.4180 ca        1 JZU      0.692900
      4 N3          3.6870    1.0680   -0.0420 nb        1 JZU     -0.759000
      5 C4          2.7610    0.0710    0.0960 ca        1 JZU      0.452800
      6 C5          3.0420   -1.3400   -0.1410 ca        1 JZU     -0.229200
      7 C6          4.3780   -1.6810   -0.5420 ca        1 JZU      0.766200
      8 N6          4.7080   -2.9820   -0.8090 nh        1 JZU     -0.956500
      9 N7          1.8880   -2.1040    0.0910 nc        1 JZU     -0.546100
     10 C8          0.9480   -1.2190    0.4510 cd        1 JZU      0.420700
     11 N9          1.4080    0.1200    0.4650 na        1 JZU     -0.294000
     12 C1'         0.7070    1.3140    0.8840 c3        1 JZU      0.227800
     13 N18        -3.9300   -2.5730   -1.0520 n3        1 JZU     -1.028700
     14 C2'         0.6760    2.4350   -0.2060 c3        1 JZU      0.082100
     15 O2'         1.0350    3.6610    0.3940 oh        1 JZU     -0.592800
     16 O2S        -4.9660   -0.3500   -1.1550 o         1 JZU     -0.651800
     17 C3'        -0.8000    2.5250   -0.6530 c3        1 JZU      0.132100
     18 O3'        -1.3400    3.8180   -0.5710 oh        1 JZU     -0.569800
     19 O3S        -5.0060   -1.5980    0.9310 o         1 JZU     -0.651800
     20 C4'        -1.5600    1.5280    0.2470 c3        1 JZU      0.079100
     21 O4'        -0.6460    1.0060    1.2250 os        1 JZU     -0.412600
     22 C5'        -2.1500    0.3710   -0.5770 c3        1 JZU      0.210800
     23 N5'        -2.8960   -0.5680    0.2020 n3        1 JZU     -0.924100
     24 HN6         5.6390   -3.2320   -1.0320 hn        1 JZU      0.450800
     25 HN6A        4.0370   -3.6890   -0.6380 hn        1 JZU      0.450800
     26 H8         -0.0900   -1.4510    0.7210 h5        1 JZU      0.080800
     27 H1'         1.1820    1.6960    1.8390 h2        1 JZU      0.107700
     28 HN18       -3.8270   -3.4570   -0.6200 hn        1 JZU      0.447800
     29 HN1A       -3.8210   -2.6130   -2.0340 hn        1 JZU      0.447800
     30 H2'         1.3430    2.2070   -1.0780 h1        1 JZU      0.086700
     31 HO2'        2.0010    3.6970    0.4040 ho        1 JZU      0.434000
     32 H3'        -0.8980    2.2480   -1.7400 h1        1 JZU      0.095700
     33 HO3'       -1.0840    4.2030    0.2800 ho        1 JZU      0.427000
     34 H4'        -2.3590    2.0510    0.8430 h1        1 JZU      0.101700
     35 H5'        -2.8240    0.8200   -1.3650 h1        1 JZU      0.059200
     36 H5'A       -1.2940   -0.1580   -1.0920 h1        1 JZU      0.059200
     37 HN5'       -2.4960   -0.7500    1.0920 hn        1 JZU      0.453800
     38 H2          5.6920    1.3690   -0.5390 h5        1 JZU      0.053100
@<TRIPOS>BOND
     1    1   13 1   
     2    1   16 2   
     3    1   19 2   
     4    1   23 1   
     5    2    3 ar  
     6    2    7 ar  
     7    3    4 ar  
     8    3   38 1   
     9    4    5 ar  
    10    5    6 ar  
    11    5   11 1   
    12    6    7 ar  
    13    6    9 1   
    14    7    8 1   
    15    8   24 1   
    16    8   25 1   
    17    9   10 2   
    18   10   11 1   
    19   10   26 1   
    20   11   12 1   
    21   12   14 1   
    22   12   21 1   
    23   12   27 1   
    24   13   28 1   
    25   13   29 1   
    26   14   15 1   
    27   14   17 1   
    28   14   30 1   
    29   15   31 1   
    30   17   18 1   
    31   17   20 1   
    32   17   32 1   
    33   18   33 1   
    34   20   21 1   
    35   20   22 1   
    36   20   34 1   
    37   22   23 1   
    38   22   35 1   
    39   22   36 1   
    40   23   37 1   
@<TRIPOS>SUBSTRUCTURE
     1 JZU         1 TEMP              0 ****  ****    0 ROOT
