@<TRIPOS>MOLECULE
JZV
   48    49     1     0     0
SMALL
bcc


@<TRIPOS>ATOM
      1 CAA        -1.4660   -1.8690   -2.5460 ca        1 JZV     -0.112000
      2 CAB        -2.7860   -1.7920   -2.9900 ca        1 JZV     -0.132000
      3 CAC        -3.7460   -1.1570   -2.2060 ca        1 JZV     -0.097000
      4 NAD        -4.8930   -0.2710    1.0240 n2        1 JZV     -0.388200
      5 OAE        -4.3250   -1.2900    1.6330 os        1 JZV     -0.181300
      6 CAF        -4.9670   -1.6570    2.8800 c3        1 JZV      0.129700
      7 CAG        -1.1060   -1.3070   -1.3230 ca        1 JZV     -0.118000
      8 CAH        -2.0590   -0.6610   -0.5280 ca        1 JZV     -0.070300
      9 CAI        -3.3910   -0.6000   -0.9710 ca        1 JZV     -0.158900
     10 CAJ        -4.4450    0.0410   -0.1630 ce        1 JZV      0.399900
     11 CAK        -5.1120    1.1910   -0.8560 c         1 JZV      0.568800
     12 OAL        -4.7810    2.4000   -0.3200 os        1 JZV     -0.417900
     13 CAM        -5.3460    3.5520   -0.9510 c3        1 JZV      0.123700
     14 OAN        -5.8670    1.1420   -1.8250 o         1 JZV     -0.522000
     15 FAO         7.0050    0.0510    0.5570 f         1 JZV     -0.237633
     16 CAP        -1.6890   -0.0650    0.7870 c3        1 JZV      0.182700
     17 OAQ        -0.2580    0.1090    0.9530 os        1 JZV     -0.189300
     18 NAR         0.2290    1.1710    0.3370 n2        1 JZV     -0.422200
     19 CAS         1.5280    1.3360    0.3620 ce        1 JZV      0.398900
     20 CAT         2.5290    0.4560    0.9980 ca        1 JZV     -0.156900
     21 CAU         3.7470    0.2080    0.3530 ca        1 JZV     -0.066000
     22 CAV         4.6990   -0.6130    0.9590 ca        1 JZV     -0.174300
     23 CAW         6.0270   -0.8670    0.2580 c3        1 JZV      0.688200
     24 FAX         5.9630   -0.8490   -1.1140 f         1 JZV     -0.237633
     25 CAY         2.1040    2.5440   -0.3210 c3        1 JZV     -0.130400
     26 CAZ         2.2810   -0.1280    2.2470 ca        1 JZV     -0.071000
     27 CBA         3.2400   -0.9430    2.8470 ca        1 JZV     -0.139000
     28 CBB         4.4530   -1.1910    2.2070 ca        1 JZV     -0.075000
     29 FBC         6.6060   -2.0780    0.5510 f         1 JZV     -0.237633
     30 HAA        -0.7060   -2.3730   -3.1610 ha        1 JZV      0.136000
     31 HAB        -3.0710   -2.2290   -3.9580 ha        1 JZV      0.138000
     32 HAC        -4.7890   -1.0780   -2.5540 ha        1 JZV      0.155000
     33 HAF        -4.9350   -0.8100    3.6040 h1        1 JZV      0.054367
     34 HAFA       -6.0170   -1.9860    2.6980 h1        1 JZV      0.054367
     35 HAFB       -4.3300   -2.5090    3.2230 h1        1 JZV      0.054367
     36 HAG        -0.0640   -1.3690   -0.9740 ha        1 JZV      0.147000
     37 HAM        -4.9410    4.4040   -0.3510 h1        1 JZV      0.054700
     38 HAMA       -5.0130    3.6040   -2.0150 h1        1 JZV      0.054700
     39 HAMB       -6.4610    3.5060   -0.8990 h1        1 JZV      0.054700
     40 HAP        -2.2270    0.9070    0.9530 h1        1 JZV      0.082200
     41 HAPA       -1.9280   -0.7850    1.6200 h1        1 JZV      0.082200
     42 HAU         3.9570    0.6520   -0.6340 ha        1 JZV      0.153000
     43 HAY         2.9480    2.9460    0.2910 hc        1 JZV      0.057367
     44 HAYA        2.4930    2.2460   -1.3270 hc        1 JZV      0.057367
     45 HAYB        1.3470    3.3530   -0.4630 hc        1 JZV      0.057367
     46 HAZ         1.3190    0.0540    2.7550 ha        1 JZV      0.154000
     47 HBA         3.0380   -1.3960    3.8290 ha        1 JZV      0.144000
     48 HBB         5.2120   -1.8390    2.6720 ha        1 JZV      0.152000
@<TRIPOS>BOND
     1    1    2 ar  
     2    1    7 ar  
     3    1   30 1   
     4    2    3 ar  
     5    2   31 1   
     6    3    9 ar  
     7    3   32 1   
     8    4    5 1   
     9    4   10 2   
    10    5    6 1   
    11    6   33 1   
    12    6   34 1   
    13    6   35 1   
    14    7    8 ar  
    15    7   36 1   
    16    8    9 ar  
    17    8   16 1   
    18    9   10 1   
    19   10   11 1   
    20   11   12 1   
    21   11   14 2   
    22   12   13 1   
    23   13   37 1   
    24   13   38 1   
    25   13   39 1   
    26   15   23 1   
    27   16   17 1   
    28   16   40 1   
    29   16   41 1   
    30   17   18 1   
    31   18   19 2   
    32   19   20 1   
    33   19   25 1   
    34   20   21 ar  
    35   20   26 ar  
    36   21   22 ar  
    37   21   42 1   
    38   22   23 1   
    39   22   28 ar  
    40   23   24 1   
    41   23   29 1   
    42   25   43 1   
    43   25   44 1   
    44   25   45 1   
    45   26   27 ar  
    46   26   46 1   
    47   27   28 ar  
    48   27   47 1   
    49   28   48 1   
@<TRIPOS>SUBSTRUCTURE
     1 JZV         1 TEMP              0 ****  ****    0 ROOT
