@<TRIPOS>MOLECULE
JZV
   48    49     1     0     0
SMALL
bcc


@<TRIPOS>ATOM
      1 CAA        -0.0020   -1.8240    0.6180 ca        1 JZV     -0.112000
      2 CAB         1.3320   -2.1720    0.8300 ca        1 JZV     -0.132000
      3 CAC         2.0540   -1.5640    1.8540 ca        1 JZV     -0.097000
      4 NAD         2.5860    1.2870    3.8840 n2        1 JZV     -0.388200
      5 OAE         2.1270    2.1470    2.9990 os        1 JZV     -0.181300
      6 CAF         2.6480    3.4890    3.1640 c3        1 JZV      0.129700
      7 CAG        -0.6150   -0.8760    1.4340 ca        1 JZV     -0.118000
      8 CAH         0.0970   -0.2620    2.4710 ca        1 JZV     -0.070300
      9 CAI         1.4450   -0.6020    2.6700 ca        1 JZV     -0.158900
     10 CAJ         2.2540    0.0330    3.7260 ce        1 JZV      0.399900
     11 CAK         2.8000   -0.9400    4.7270 c         1 JZV      0.568800
     12 OAL         2.1960   -0.8450    5.9460 os        1 JZV     -0.417900
     13 CAM         2.6340   -1.7690    6.9470 c3        1 JZV      0.123700
     14 OAN         3.6750   -1.7840    4.5470 o         1 JZV     -0.522000
     15 FAO        -9.0160   -0.1320    1.5870 f         1 JZV     -0.237633
     16 CAP        -0.5440    0.7630    3.3440 c3        1 JZV      0.182700
     17 OAQ        -1.9930    0.7590    3.2600 os        1 JZV     -0.189300
     18 NAR        -2.5680   -0.1980    3.9650 n2        1 JZV     -0.422200
     19 CAS        -3.8670   -0.3230    3.8580 ce        1 JZV      0.398900
     20 CAT        -4.7780    0.4850    3.0220 ca        1 JZV     -0.156900
     21 CAU        -5.8370   -0.1350    2.3460 ca        1 JZV     -0.066000
     22 CAV        -6.7040    0.6290    1.5660 ca        1 JZV     -0.174300
     23 CAW        -7.8620   -0.0500    0.8450 c3        1 JZV      0.688200
     24 FAX        -7.6180   -1.3480    0.4650 f         1 JZV     -0.237633
     25 CAY        -4.5470   -1.3970    4.6600 c3        1 JZV     -0.130400
     26 CAZ        -4.6030    1.8700    2.9020 ca        1 JZV     -0.071000
     27 CBA        -5.4790    2.6260    2.1230 ca        1 JZV     -0.139000
     28 CBB        -6.5320    2.0110    1.4510 ca        1 JZV     -0.075000
     29 FBC        -8.2560    0.5710   -0.3160 f         1 JZV     -0.237633
     30 HAA        -0.5740   -2.3000   -0.1930 ha        1 JZV      0.136000
     31 HAB         1.8160   -2.9250    0.1910 ha        1 JZV      0.138000
     32 HAC         3.1050   -1.8410    2.0380 ha        1 JZV      0.155000
     33 HAF         3.7540    3.5000    3.0200 h1        1 JZV      0.054367
     34 HAFA        2.3740    3.9000    4.1640 h1        1 JZV      0.054367
     35 HAFB        2.1280    4.0400    2.3420 h1        1 JZV      0.054367
     36 HAG        -1.6680   -0.6020    1.2660 ha        1 JZV      0.147000
     37 HAM         2.0100   -1.5040    7.8360 h1        1 JZV      0.054700
     38 HAMA        2.4420   -2.8150    6.6070 h1        1 JZV      0.054700
     39 HAMB        3.7220   -1.6230    7.1490 h1        1 JZV      0.054700
     40 HAP        -0.2980    1.7980    2.9720 h1        1 JZV      0.082200
     41 HAPA       -0.2100    0.6480    4.4100 h1        1 JZV      0.082200
     42 HAU        -5.9850   -1.2250    2.4210 ha        1 JZV      0.153000
     43 HAY        -5.5220   -1.0090    5.0430 hc        1 JZV      0.057367
     44 HAYA       -3.9290   -1.7330    5.5290 hc        1 JZV      0.057367
     45 HAYB       -4.7390   -2.2800    4.0020 hc        1 JZV      0.057367
     46 HAZ        -3.7650    2.3620    3.4210 ha        1 JZV      0.154000
     47 HBA        -5.3350    3.7140    2.0370 ha        1 JZV      0.144000
     48 HBB        -7.2230    2.6020    0.8290 ha        1 JZV      0.152000
@<TRIPOS>BOND
     1    1    2 ar  
     2    1    7 ar  
     3    1   30 1   
     4    2    3 ar  
     5    2   31 1   
     6    3    9 ar  
     7    3   32 1   
     8    4    5 1   
     9    4   10 2   
    10    5    6 1   
    11    6   33 1   
    12    6   34 1   
    13    6   35 1   
    14    7    8 ar  
    15    7   36 1   
    16    8    9 ar  
    17    8   16 1   
    18    9   10 1   
    19   10   11 1   
    20   11   12 1   
    21   11   14 2   
    22   12   13 1   
    23   13   37 1   
    24   13   38 1   
    25   13   39 1   
    26   15   23 1   
    27   16   17 1   
    28   16   40 1   
    29   16   41 1   
    30   17   18 1   
    31   18   19 2   
    32   19   20 1   
    33   19   25 1   
    34   20   21 ar  
    35   20   26 ar  
    36   21   22 ar  
    37   21   42 1   
    38   22   23 1   
    39   22   28 ar  
    40   23   24 1   
    41   23   29 1   
    42   25   43 1   
    43   25   44 1   
    44   25   45 1   
    45   26   27 ar  
    46   26   46 1   
    47   27   28 ar  
    48   27   47 1   
    49   28   48 1   
@<TRIPOS>SUBSTRUCTURE
     1 JZV         1 TEMP              0 ****  ****    0 ROOT
