@<TRIPOS>MOLECULE
JZV
   48    49     1     0     0
SMALL
bcc


@<TRIPOS>ATOM
      1 CAA        -0.0220   -1.8040    0.5890 ca        1 JZV     -0.112000
      2 CAB         1.3120   -2.1580    0.7880 ca        1 JZV     -0.132000
      3 CAC         2.0420   -1.5630    1.8140 ca        1 JZV     -0.097000
      4 NAD         2.5950    1.2650    3.8710 n2        1 JZV     -0.388200
      5 OAE         2.1330    2.1350    2.9980 os        1 JZV     -0.181300
      6 CAF         2.6600    3.4740    3.1730 c3        1 JZV      0.129700
      7 CAG        -0.6270   -0.8630    1.4190 ca        1 JZV     -0.118000
      8 CAH         0.0920   -0.2620    2.4570 ca        1 JZV     -0.070300
      9 CAI         1.4410   -0.6080    2.6440 ca        1 JZV     -0.158900
     10 CAJ         2.2590    0.0140    3.7020 ce        1 JZV      0.399900
     11 CAK         2.8070   -0.9710    4.6890 c         1 JZV      0.568800
     12 OAL         2.2110   -0.8870    5.9130 os        1 JZV     -0.417900
     13 CAM         2.6520   -1.8230    6.9010 c3        1 JZV      0.123700
     14 OAN         3.6790   -1.8160    4.4950 o         1 JZV     -0.522000
     15 FAO        -9.0260   -0.0910    1.6340 f         1 JZV     -0.237633
     16 CAP        -0.5400    0.7550    3.3450 c3        1 JZV      0.182700
     17 OAQ        -1.9890    0.7570    3.2700 os        1 JZV     -0.189300
     18 NAR        -2.5630   -0.2060    3.9680 n2        1 JZV     -0.422200
     19 CAS        -3.8640   -0.3250    3.8680 ce        1 JZV      0.398900
     20 CAT        -4.7760    0.4950    3.0470 ca        1 JZV     -0.156900
     21 CAU        -5.8420   -0.1130    2.3710 ca        1 JZV     -0.066000
     22 CAV        -6.7120    0.6630    1.6050 ca        1 JZV     -0.174300
     23 CAW        -7.8770   -0.0040    0.8840 c3        1 JZV      0.688200
     24 FAX        -7.6400   -1.2980    0.4880 f         1 JZV     -0.237633
     25 CAY        -4.5410   -1.4060    4.6620 c3        1 JZV     -0.130400
     26 CAZ        -4.5980    1.8810    2.9420 ca        1 JZV     -0.071000
     27 CBA        -5.4760    2.6490    2.1780 ca        1 JZV     -0.139000
     28 CBB        -6.5360    2.0450    1.5050 ca        1 JZV     -0.075000
     29 FBC        -8.2770    0.6310   -0.2660 f         1 JZV     -0.237633
     30 HAA        -0.6010   -2.2700   -0.2230 ha        1 JZV      0.136000
     31 HAB         1.7900   -2.9060    0.1390 ha        1 JZV      0.138000
     32 HAC         3.0930   -1.8450    1.9890 ha        1 JZV      0.155000
     33 HAF         3.7640    3.4830    3.0220 h1        1 JZV      0.054367
     34 HAFA        2.3920    3.8760    4.1790 h1        1 JZV      0.054367
     35 HAFB        2.1360    4.0350    2.3600 h1        1 JZV      0.054367
     36 HAG        -1.6810   -0.5840    1.2600 ha        1 JZV      0.147000
     37 HAM         2.0350   -1.5650    7.7970 h1        1 JZV      0.054700
     38 HAMA        2.4550   -2.8650    6.5520 h1        1 JZV      0.054700
     39 HAMB        3.7420   -1.6820    7.0980 h1        1 JZV      0.054700
     40 HAP        -0.2930    1.7940    2.9820 h1        1 JZV      0.082200
     41 HAPA       -0.1990    0.6280    4.4070 h1        1 JZV      0.082200
     42 HAU        -5.9930   -1.2030    2.4350 ha        1 JZV      0.153000
     43 HAY        -5.5130   -1.0200    5.0560 hc        1 JZV      0.057367
     44 HAYA       -3.9190   -1.7540    5.5230 hc        1 JZV      0.057367
     45 HAYB       -4.7410   -2.2810    3.9950 hc        1 JZV      0.057367
     46 HAZ        -3.7540    2.3640    3.4610 ha        1 JZV      0.154000
     47 HBA        -5.3290    3.7370    2.1020 ha        1 JZV      0.144000
     48 HBB        -7.2290    2.6450    0.8940 ha        1 JZV      0.152000
@<TRIPOS>BOND
     1    1    2 ar  
     2    1    7 ar  
     3    1   30 1   
     4    2    3 ar  
     5    2   31 1   
     6    3    9 ar  
     7    3   32 1   
     8    4    5 1   
     9    4   10 2   
    10    5    6 1   
    11    6   33 1   
    12    6   34 1   
    13    6   35 1   
    14    7    8 ar  
    15    7   36 1   
    16    8    9 ar  
    17    8   16 1   
    18    9   10 1   
    19   10   11 1   
    20   11   12 1   
    21   11   14 2   
    22   12   13 1   
    23   13   37 1   
    24   13   38 1   
    25   13   39 1   
    26   15   23 1   
    27   16   17 1   
    28   16   40 1   
    29   16   41 1   
    30   17   18 1   
    31   18   19 2   
    32   19   20 1   
    33   19   25 1   
    34   20   21 ar  
    35   20   26 ar  
    36   21   22 ar  
    37   21   42 1   
    38   22   23 1   
    39   22   28 ar  
    40   23   24 1   
    41   23   29 1   
    42   25   43 1   
    43   25   44 1   
    44   25   45 1   
    45   26   27 ar  
    46   26   46 1   
    47   27   28 ar  
    48   27   47 1   
    49   28   48 1   
@<TRIPOS>SUBSTRUCTURE
     1 JZV         1 TEMP              0 ****  ****    0 ROOT
