@<TRIPOS>MOLECULE
JZV
   48    49     1     0     0
SMALL
bcc


@<TRIPOS>ATOM
      1 CAA         0.0130   -1.7970    0.6050 ca        1 JZV     -0.112000
      2 CAB         1.3500   -2.1350    0.8130 ca        1 JZV     -0.132000
      3 CAC         2.0670   -1.5280    1.8410 ca        1 JZV     -0.097000
      4 NAD         2.5770    1.3140    3.8900 n2        1 JZV     -0.388200
      5 OAE         2.1110    2.1750    3.0110 os        1 JZV     -0.181300
      6 CAF         2.6220    3.5200    3.1850 c3        1 JZV      0.129700
      7 CAG        -0.6070   -0.8590    1.4270 ca        1 JZV     -0.118000
      8 CAH         0.1000   -0.2460    2.4670 ca        1 JZV     -0.070300
      9 CAI         1.4510   -0.5770    2.6640 ca        1 JZV     -0.158900
     10 CAJ         2.2550    0.0580    3.7240 ce        1 JZV      0.399900
     11 CAK         2.8080   -0.9170    4.7190 c         1 JZV      0.568800
     12 OAL         2.2040   -0.8350    5.9390 os        1 JZV     -0.417900
     13 CAM         2.6480   -1.7620    6.9330 c3        1 JZV      0.123700
     14 OAN         3.6900   -1.7540    4.5340 o         1 JZV     -0.522000
     15 FAO        -9.0150   -0.1790    1.5910 f         1 JZV     -0.237633
     16 CAP        -0.5490    0.7670    3.3480 c3        1 JZV      0.182700
     17 OAQ        -1.9980    0.7530    3.2640 os        1 JZV     -0.189300
     18 NAR        -2.5650   -0.2140    3.9620 n2        1 JZV     -0.422200
     19 CAS        -3.8640   -0.3480    3.8550 ce        1 JZV      0.398900
     20 CAT        -4.7800    0.4590    3.0260 ca        1 JZV     -0.156900
     21 CAU        -5.8360   -0.1640    2.3460 ca        1 JZV     -0.066000
     22 CAV        -6.7100    0.6000    1.5730 ca        1 JZV     -0.174300
     23 CAW        -7.8630   -0.0830    0.8480 c3        1 JZV      0.688200
     24 FAX        -7.6090   -1.3760    0.4580 f         1 JZV     -0.237633
     25 CAY        -4.5340   -1.4330    4.6500 c3        1 JZV     -0.130400
     26 CAZ        -4.6170    1.8460    2.9170 ca        1 JZV     -0.071000
     27 CBA        -5.4990    2.6020    2.1440 ca        1 JZV     -0.139000
     28 CBB        -6.5480    1.9840    1.4680 ca        1 JZV     -0.075000
     29 FBC        -8.2630    0.5440   -0.3080 f         1 JZV     -0.237633
     30 HAA        -0.5550   -2.2710   -0.2090 ha        1 JZV      0.136000
     31 HAB         1.8400   -2.8800    0.1690 ha        1 JZV      0.138000
     32 HAC         3.1210   -1.7990    2.0230 ha        1 JZV      0.155000
     33 HAF         3.7280    3.5410    3.0400 h1        1 JZV      0.054367
     34 HAFA        2.0970    4.0720    2.3660 h1        1 JZV      0.054367
     35 HAFB        2.3440    3.9230    4.1870 h1        1 JZV      0.054367
     36 HAG        -1.6620   -0.5920    1.2610 ha        1 JZV      0.147000
     37 HAM         2.4640   -2.8080    6.5870 h1        1 JZV      0.054700
     38 HAMA        3.7350   -1.6100    7.1360 h1        1 JZV      0.054700
     39 HAMB        2.0220   -1.5080    7.8240 h1        1 JZV      0.054700
     40 HAP        -0.3110    1.8070    2.9830 h1        1 JZV      0.082200
     41 HAPA       -0.2130    0.6480    4.4120 h1        1 JZV      0.082200
     42 HAU        -5.9750   -1.2550    2.4140 ha        1 JZV      0.153000
     43 HAY        -3.9130   -1.7710    5.5150 hc        1 JZV      0.057367
     44 HAYA       -5.5120   -1.0560    5.0370 hc        1 JZV      0.057367
     45 HAYB       -4.7200   -2.3130    3.9850 hc        1 JZV      0.057367
     46 HAZ        -3.7820    2.3410    3.4390 ha        1 JZV      0.154000
     47 HBA        -5.3640    3.6910    2.0660 ha        1 JZV      0.144000
     48 HBB        -7.2440    2.5740    0.8510 ha        1 JZV      0.152000
@<TRIPOS>BOND
     1    1    2 ar  
     2    1    7 ar  
     3    1   30 1   
     4    2    3 ar  
     5    2   31 1   
     6    3    9 ar  
     7    3   32 1   
     8    4    5 1   
     9    4   10 2   
    10    5    6 1   
    11    6   33 1   
    12    6   34 1   
    13    6   35 1   
    14    7    8 ar  
    15    7   36 1   
    16    8    9 ar  
    17    8   16 1   
    18    9   10 1   
    19   10   11 1   
    20   11   12 1   
    21   11   14 2   
    22   12   13 1   
    23   13   37 1   
    24   13   38 1   
    25   13   39 1   
    26   15   23 1   
    27   16   17 1   
    28   16   40 1   
    29   16   41 1   
    30   17   18 1   
    31   18   19 2   
    32   19   20 1   
    33   19   25 1   
    34   20   21 ar  
    35   20   26 ar  
    36   21   22 ar  
    37   21   42 1   
    38   22   23 1   
    39   22   28 ar  
    40   23   24 1   
    41   23   29 1   
    42   25   43 1   
    43   25   44 1   
    44   25   45 1   
    45   26   27 ar  
    46   26   46 1   
    47   27   28 ar  
    48   27   47 1   
    49   28   48 1   
@<TRIPOS>SUBSTRUCTURE
     1 JZV         1 TEMP              0 ****  ****    0 ROOT
