@<TRIPOS>MOLECULE
JZV
   48    42     1     0     0
SMALL
bcc


@<TRIPOS>ATOM
      1 CAA         1.2630   -0.0200   -3.9640 c1        1 JZV     -0.114000
      2 CAB         2.6490    0.0050   -3.9710 c1        1 JZV     -0.114000
      3 CAC         3.3560    0.0890   -2.7580 c1        1 JZV     -0.114000
      4 NAD         3.6340   -0.9850    0.4640 n1        1 JZV      0.000000
      5 OAE         3.1540   -2.1230   -0.0270 o         1 JZV     -0.201000
      6 CAF         3.9340   -3.2210    0.4610 c3        1 JZV     -0.061000
      7 CAG         0.5600    0.0390   -2.7350 c1        1 JZV     -0.114000
      8 CAH         1.2650    0.1220   -1.5340 c1        1 JZV     -0.065000
      9 CAI         2.6610    0.1470   -1.5430 c1        1 JZV     -0.071000
     10 CAJ         3.4520    0.1390   -0.1830 c2        1 JZV     -0.048000
     11 CAK         3.9910    1.4210    0.3790 c2        1 JZV      0.359000
     12 OAL         5.3930    1.5800    0.5680 os        1 JZV     -0.258000
     13 CAM         5.7410    2.1480    1.7980 c3        1 JZV     -0.067000
     14 OAN         3.2140    2.3930    0.5820 o         1 JZV     -0.330000
     15 FAO        -6.6750   -1.6110   -0.2620 f         1 JZV     -0.166667
     16 CAP         0.5030    0.2520   -0.1930 c3        1 JZV      0.020000
     17 OAQ        -0.8860   -0.0190   -0.3980 os        1 JZV     -0.216000
     18 NAR        -1.5630    1.1730   -0.6780 n2        1 JZV     -0.030000
     19 CAS        -2.7430    1.4290   -0.1020 c1        1 JZV     -0.051000
     20 CAT        -3.3410    0.4500    0.8340 c1        1 JZV     -0.072000
     21 CAU        -4.3270   -0.4490    0.3770 c2        1 JZV     -0.066000
     22 CAV        -4.9450   -1.2920    1.2590 c1        1 JZV     -0.167000
     23 CAW        -6.0350   -2.1870    0.7910 c2        1 JZV      0.467000
     24 FAX        -6.8970   -2.3860    1.7760 f         1 JZV     -0.166667
     25 CAY        -3.4710    2.7240   -0.4150 c3        1 JZV     -0.172000
     26 CAZ        -3.0020    0.4790    2.1600 c1        1 JZV     -0.071000
     27 CBA        -3.6260   -0.3720    3.0520 c1        1 JZV     -0.139000
     28 CBB        -4.6030   -1.2620    2.6010 c2        1 JZV     -0.076000
     29 FBC        -5.5220   -3.3400    0.4140 f         1 JZV     -0.166667
     30 HAA         0.7660   -0.0780   -4.8180 ha        1 JZV      0.140750
     31 HAB         3.1420   -0.0370   -4.8300 ha        1 JZV      0.140750
     32 HAC         4.3060    0.1060   -2.7640 ha        1 JZV      0.140750
     33 HAF         4.8960   -3.0610    0.2550 h1        1 JZV      0.093333
     34 HAFA        3.6470   -4.0310    0.0370 h1        1 JZV      0.093333
     35 HAFB        3.8150   -3.3020    1.4470 h1        1 JZV      0.093333
     36 HAG        -0.4270    0.0220   -2.7270 ha        1 JZV      0.140750
     37 HAM         6.1790    1.4460    2.3840 h1        1 JZV      0.094000
     38 HAMA        4.9350    2.4870    2.2430 h1        1 JZV      0.094000
     39 HAMB        6.3570    2.8750    1.6520 h1        1 JZV      0.094000
     40 HAP         0.6140    1.1740    0.1620 h1        1 JZV      0.125500
     41 HAPA        0.8760   -0.4040    0.4660 h1        1 JZV      0.125500
     42 HAU        -4.6050   -0.4310   -0.5570 ha        1 JZV      0.153000
     43 HAY        -2.9040    3.4870   -0.1700 hc        1 JZV      0.096333
     44 HAYA       -4.3330    2.7630    0.1080 hc        1 JZV      0.096333
     45 HAYB       -3.6630    2.7600   -1.3440 hc        1 JZV      0.096333
     46 HAZ        -2.3030    1.1170    2.4810 ha        1 JZV      0.155000
     47 HBA        -3.3850   -0.3510    3.9910 ha        1 JZV      0.144000
     48 HBB        -5.0450   -1.8640    3.2320 ha        1 JZV      0.151000
@<TRIPOS>BOND
     1    1    7 1   
     2    1   30 1   
     3    2    3 1   
     4    2   31 1   
     5    3   32 1   
     6    4   10 1   
     7    5    6 1   
     8    6   33 1   
     9    6   34 1   
    10    6   35 1   
    11    7   36 1   
    12    8    9 1   
    13    8   16 1   
    14    9   10 1   
    15   10   11 1   
    16   11   12 1   
    17   11   14 1   
    18   12   13 1   
    19   13   37 1   
    20   13   38 1   
    21   13   39 1   
    22   15   23 1   
    23   16   17 1   
    24   16   40 1   
    25   16   41 1   
    26   17   18 1   
    27   18   19 1   
    28   19   25 1   
    29   20   21 1   
    30   20   26 1   
    31   21   22 1   
    32   21   42 1   
    33   22   28 1   
    34   23   24 1   
    35   23   29 1   
    36   25   43 1   
    37   25   44 1   
    38   25   45 1   
    39   26   46 1   
    40   27   28 1   
    41   27   47 1   
    42   28   48 1   
@<TRIPOS>SUBSTRUCTURE
     1 JZV         1 TEMP              0 ****  ****    0 ROOT
