@<TRIPOS>MOLECULE
JZW
   63    67     1     0     0
SMALL
bcc


@<TRIPOS>ATOM
      1 C1          0.4040    0.5680    0.2820 cc        1 JZW     -0.226800
      2 N1         -1.7060    0.5620    1.6320 nb        1 JZW     -0.674000
      3 O1          1.7140   -2.2150    7.1410 os        1 JZW     -0.410600
      4 S1          2.0620   -0.2420    2.0570 ss        1 JZW      0.080500
      5 C2          1.7260    0.2750    0.4790 cd        1 JZW     -0.098600
      6 N2         -1.4970   -0.1660    3.9570 nb        1 JZW     -0.740000
      7 O2          5.2010    5.7910   -2.0280 o         1 JZW     -0.652800
      8 S2          4.8290    5.0290   -3.1560 s6        1 JZW      1.460900
      9 C3         -0.3720    0.3500    1.4880 ca        1 JZW      0.458100
     10 N3          0.6480   -0.7590    4.9160 nh        1 JZW     -0.732300
     11 O3          5.8750    4.4630   -3.9150 o         1 JZW     -0.652800
     12 C4          0.4670   -0.1230    2.5500 ca        1 JZW     -0.347700
     13 N4          2.7410    1.5150   -1.4010 n3        1 JZW     -0.724600
     14 O4         -8.2230    0.1670    1.6130 oh        1 JZW     -0.599800
     15 C5         -2.2080    0.2990    2.8680 cp        1 JZW      0.725500
     16 N5          3.7560    3.8840   -2.7360 n3        1 JZW     -0.825500
     17 C6         -0.1660   -0.3740    3.8130 ca        1 JZW      0.698200
     18 C7         -3.6650    0.5200    3.0800 cp        1 JZW     -0.139500
     19 C8          0.0340   -0.6790    6.2380 c3        1 JZW      0.146800
     20 C9          1.0500   -0.9740    7.3500 c3        1 JZW      0.122900
     21 C10         2.3630   -2.2680    5.8780 c3        1 JZW      0.122900
     22 C11         1.3830   -2.0060    4.7260 c3        1 JZW      0.146800
     23 C12         2.8040    0.3380   -0.5420 c3        1 JZW      0.237000
     24 C13         3.6490    1.3980   -2.5350 c3        1 JZW      0.153300
     25 C14         3.6190    2.6420   -3.4500 c3        1 JZW      0.222300
     26 C15         2.8980    4.0020   -1.5840 c3        1 JZW      0.222300
     27 C16         2.9250    2.7590   -0.6680 c3        1 JZW      0.153300
     28 C17         3.9320    6.0440   -4.1900 c3        1 JZW     -0.359300
     29 C18        -4.1230    1.0990    4.2700 ca        1 JZW     -0.088000
     30 C19        -5.4880    1.3050    4.4570 ca        1 JZW     -0.145000
     31 C20        -6.4000    0.9370    3.4690 ca        1 JZW     -0.086000
     32 C21        -5.9460    0.3590    2.2800 ca        1 JZW     -0.101300
     33 C22        -4.5750    0.1500    2.0860 ca        1 JZW     -0.090000
     34 C23        -6.8830   -0.0450    1.1900 c3        1 JZW      0.177700
     35 H1         -0.0420    0.9260   -0.6510 ha        1 JZW      0.183000
     36 HO4        -8.7820   -0.1010    0.8750 ho        1 JZW      0.403000
     37 H8         -0.8260   -1.4010    6.3380 h1        1 JZW      0.058700
     38 H8A        -0.3610    0.3650    6.3810 h1        1 JZW      0.058700
     39 H9          0.5150   -1.1030    8.3280 h1        1 JZW      0.058450
     40 H9A         1.8070   -0.1500    7.4290 h1        1 JZW      0.058450
     41 H10         3.2080   -1.5300    5.8550 h1        1 JZW      0.058450
     42 H10A        2.7600   -3.3140    5.8080 h1        1 JZW      0.058450
     43 H11         0.6770   -2.8830    4.6490 h1        1 JZW      0.058700
     44 H11A        1.9700   -1.9430    3.7660 h1        1 JZW      0.058700
     45 H12         3.8060    0.2600   -0.0170 h1        1 JZW      0.047700
     46 H12A        2.7020   -0.5700   -1.2100 h1        1 JZW      0.047700
     47 H13         4.7130    1.2150   -2.2040 h1        1 JZW      0.046200
     48 H13A        3.3210    0.5160   -3.1530 h1        1 JZW      0.046200
     49 H14         2.6420    2.6470   -4.0150 h1        1 JZW      0.061200
     50 H14A        4.4640    2.5420   -4.1910 h1        1 JZW      0.061200
     51 H15         3.2230    4.8890   -0.9670 h1        1 JZW      0.061200
     52 H15A        1.8380    4.1700   -1.9300 h1        1 JZW      0.061200
     53 H16         3.8910    2.7620   -0.0830 h1        1 JZW      0.046200
     54 H16A        2.0730    2.8530    0.0620 h1        1 JZW      0.046200
     55 H17         4.5690    6.8970   -4.5380 h1        1 JZW      0.114033
     56 H17A        3.0380    6.5020   -3.7010 h1        1 JZW      0.114033
     57 H17B        3.5680    5.5300   -5.1120 h1        1 JZW      0.114033
     58 H18        -3.4110    1.3930    5.0570 ha        1 JZW      0.144000
     59 H19        -5.8490    1.7610    5.3910 ha        1 JZW      0.135000
     60 H20        -7.4800    1.0980    3.6170 ha        1 JZW      0.155000
     61 H22        -4.2220   -0.3040    1.1470 ha        1 JZW      0.145000
     62 H23        -6.7340   -1.1320    0.9420 h1        1 JZW      0.032700
     63 H23A       -6.6770    0.5680    0.2680 h1        1 JZW      0.032700
@<TRIPOS>BOND
     1    1    5 2   
     2    1    9 1   
     3    1   35 1   
     4    2    9 ar  
     5    2   15 ar  
     6    3   20 1   
     7    3   21 1   
     8    4    5 1   
     9    4   12 1   
    10    5   23 1   
    11    6   15 ar  
    12    6   17 ar  
    13    7    8 2   
    14    8   11 2   
    15    8   16 1   
    16    8   28 1   
    17    9   12 ar  
    18   10   17 1   
    19   10   19 1   
    20   10   22 1   
    21   12   17 ar  
    22   13   23 1   
    23   13   24 1   
    24   13   27 1   
    25   14   34 1   
    26   14   36 1   
    27   15   18 1   
    28   16   25 1   
    29   16   26 1   
    30   18   29 ar  
    31   18   33 ar  
    32   19   20 1   
    33   19   37 1   
    34   19   38 1   
    35   20   39 1   
    36   20   40 1   
    37   21   22 1   
    38   21   41 1   
    39   21   42 1   
    40   22   43 1   
    41   22   44 1   
    42   23   45 1   
    43   23   46 1   
    44   24   25 1   
    45   24   47 1   
    46   24   48 1   
    47   25   49 1   
    48   25   50 1   
    49   26   27 1   
    50   26   51 1   
    51   26   52 1   
    52   27   53 1   
    53   27   54 1   
    54   28   55 1   
    55   28   56 1   
    56   28   57 1   
    57   29   30 ar  
    58   29   58 1   
    59   30   31 ar  
    60   30   59 1   
    61   31   32 ar  
    62   31   60 1   
    63   32   33 ar  
    64   32   34 1   
    65   33   61 1   
    66   34   62 1   
    67   34   63 1   
@<TRIPOS>SUBSTRUCTURE
     1 JZW         1 TEMP              0 ****  ****    0 ROOT
