@<TRIPOS>MOLECULE
JZW
   63    67     1     0     0
SMALL
bcc


@<TRIPOS>ATOM
      1 C1         -0.3370   -0.5840   -0.9100 cc        1 JZW     -0.226800
      2 N1          2.0070   -1.0010   -0.1300 nb        1 JZW     -0.674000
      3 O1          3.5120    5.8690   -0.6810 os        1 JZW     -0.410600
      4 S1         -0.2980    1.9710   -1.0690 ss        1 JZW      0.080500
      5 C2         -1.1160    0.4960   -1.2280 cd        1 JZW     -0.098600
      6 N2          3.4130    0.9780    0.1650 nb        1 JZW     -0.740000
      7 O2         -7.0510   -0.4300    2.3360 o         1 JZW     -0.652800
      8 S2         -7.1420   -1.2820    1.2140 s6        1 JZW      1.460900
      9 C3          1.0000   -0.1770   -0.5210 ca        1 JZW      0.458100
     10 N3          2.5520    3.2150   -0.1900 nh        1 JZW     -0.732300
     11 O3         -8.1570   -0.9920    0.2770 o         1 JZW     -0.652800
     12 C4          1.1330    1.2490   -0.5890 ca        1 JZW     -0.347700
     13 N4         -3.3660   -0.4970   -1.0050 n3        1 JZW     -0.724600
     14 O4          7.0180   -5.1750    0.1800 oh        1 JZW     -0.599800
     15 C5          3.1700   -0.3820    0.2020 cp        1 JZW      0.725500
     16 N5         -5.7030   -1.3900    0.4680 n3        1 JZW     -0.825500
     17 C6          2.4060    1.7990   -0.2210 ca        1 JZW      0.698200
     18 C7          4.3040   -1.2400    0.6410 cp        1 JZW     -0.139500
     19 C8          3.7280    3.7340    0.5000 c3        1 JZW      0.146800
     20 C9          3.6960    5.2660    0.5950 c3        1 JZW      0.122900
     21 C10         2.3330    5.4070   -1.3260 c3        1 JZW      0.122900
     22 C11         2.3280    3.8790   -1.4710 c3        1 JZW      0.146800
     23 C12        -2.5210    0.4580   -1.7120 c3        1 JZW      0.237000
     24 C13        -4.6450   -0.6800   -1.6790 c3        1 JZW      0.153300
     25 C14        -5.5700   -1.6700   -0.9380 c3        1 JZW      0.222300
     26 C15        -4.4520   -1.1610    1.1450 c3        1 JZW      0.222300
     27 C16        -3.5240   -0.1740    0.4060 c3        1 JZW      0.153300
     28 C17        -7.4050   -2.8640    1.7880 c3        1 JZW     -0.359300
     29 C18         5.1170   -0.8400    1.7100 ca        1 JZW     -0.088000
     30 C19         6.1740   -1.6520    2.1150 ca        1 JZW     -0.145000
     31 C20         6.4290   -2.8580    1.4640 ca        1 JZW     -0.086000
     32 C21         5.6200   -3.2600    0.3980 ca        1 JZW     -0.101300
     33 C22         4.5560   -2.4490   -0.0150 ca        1 JZW     -0.090000
     34 C23         5.8480   -4.5460   -0.3260 c3        1 JZW      0.177700
     35 H1         -0.6530   -1.6310   -0.9320 ha        1 JZW      0.183000
     36 HO4         7.1140   -5.9970   -0.3120 ho        1 JZW      0.403000
     37 H8          3.7420    3.3110    1.5420 h1        1 JZW      0.058700
     38 H8A         4.6810    3.4280   -0.0210 h1        1 JZW      0.058700
     39 H9          4.6920    5.6460    0.9430 h1        1 JZW      0.058450
     40 H9A         2.8860    5.6060    1.2920 h1        1 JZW      0.058450
     41 H10         1.4300    5.7550   -0.7570 h1        1 JZW      0.058450
     42 H10A        2.3600    5.8840   -2.3400 h1        1 JZW      0.058450
     43 H11         3.1180    3.5870   -2.2210 h1        1 JZW      0.058700
     44 H11A        1.3240    3.5630   -1.8770 h1        1 JZW      0.058700
     45 H12        -2.9490    1.5060   -1.6650 h1        1 JZW      0.047700
     46 H12A       -2.5040    0.1480   -2.8000 h1        1 JZW      0.047700
     47 H13        -5.1920    0.2980   -1.8150 h1        1 JZW      0.046200
     48 H13A       -4.4400   -1.1090   -2.7000 h1        1 JZW      0.046200
     49 H14        -5.1580   -2.7120   -1.0700 h1        1 JZW      0.061200
     50 H14A       -6.5860   -1.6190   -1.4270 h1        1 JZW      0.061200
     51 H15        -4.6560   -0.7380    2.1710 h1        1 JZW      0.061200
     52 H15A       -3.9110   -2.1450    1.2620 h1        1 JZW      0.061200
     53 H16        -2.5070   -0.2340    0.8850 h1        1 JZW      0.046200
     54 H16A       -3.9190    0.8740    0.5540 h1        1 JZW      0.046200
     55 H17        -8.3750   -2.9140    2.3460 h1        1 JZW      0.114033
     56 H17A       -7.4730   -3.6270    0.9760 h1        1 JZW      0.114033
     57 H17B       -6.6190   -3.2170    2.4980 h1        1 JZW      0.114033
     58 H18         4.9250    0.1110    2.2300 ha        1 JZW      0.144000
     59 H19         6.8120   -1.3390    2.9550 ha        1 JZW      0.135000
     60 H20         7.2660   -3.5000    1.7840 ha        1 JZW      0.155000
     61 H22         3.9200   -2.7710   -0.8540 ha        1 JZW      0.145000
     62 H23         5.9750   -4.3470   -1.4270 h1        1 JZW      0.032700
     63 H23A        4.9620   -5.2240   -0.1800 h1        1 JZW      0.032700
@<TRIPOS>BOND
     1    1    5 2   
     2    1    9 1   
     3    1   35 1   
     4    2    9 ar  
     5    2   15 ar  
     6    3   20 1   
     7    3   21 1   
     8    4    5 1   
     9    4   12 1   
    10    5   23 1   
    11    6   15 ar  
    12    6   17 ar  
    13    7    8 2   
    14    8   11 2   
    15    8   16 1   
    16    8   28 1   
    17    9   12 ar  
    18   10   17 1   
    19   10   19 1   
    20   10   22 1   
    21   12   17 ar  
    22   13   23 1   
    23   13   24 1   
    24   13   27 1   
    25   14   34 1   
    26   14   36 1   
    27   15   18 1   
    28   16   25 1   
    29   16   26 1   
    30   18   29 ar  
    31   18   33 ar  
    32   19   20 1   
    33   19   37 1   
    34   19   38 1   
    35   20   39 1   
    36   20   40 1   
    37   21   22 1   
    38   21   41 1   
    39   21   42 1   
    40   22   43 1   
    41   22   44 1   
    42   23   45 1   
    43   23   46 1   
    44   24   25 1   
    45   24   47 1   
    46   24   48 1   
    47   25   49 1   
    48   25   50 1   
    49   26   27 1   
    50   26   51 1   
    51   26   52 1   
    52   27   53 1   
    53   27   54 1   
    54   28   55 1   
    55   28   56 1   
    56   28   57 1   
    57   29   30 ar  
    58   29   58 1   
    59   30   31 ar  
    60   30   59 1   
    61   31   32 ar  
    62   31   60 1   
    63   32   33 ar  
    64   32   34 1   
    65   33   61 1   
    66   34   62 1   
    67   34   63 1   
@<TRIPOS>SUBSTRUCTURE
     1 JZW         1 TEMP              0 ****  ****    0 ROOT
