@<TRIPOS>MOLECULE
JZW
   63    67     1     0     0
SMALL
bcc


@<TRIPOS>ATOM
      1 C1          0.3950    0.5680    0.2770 cc        1 JZW     -0.226800
      2 N1         -1.7080    0.5620    1.6390 nb        1 JZW     -0.674000
      3 O1          1.7410   -2.2210    7.1270 os        1 JZW     -0.410600
      4 S1          2.0620   -0.2450    2.0420 ss        1 JZW      0.080500
      5 C2          1.7180    0.2750    0.4670 cd        1 JZW     -0.098600
      6 N2         -1.4870   -0.1690    3.9620 nb        1 JZW     -0.740000
      7 O2          5.1980    5.7880   -2.0370 o         1 JZW     -0.652800
      8 S2          4.8160    5.0330   -3.1660 s6        1 JZW      1.460900
      9 C3         -0.3750    0.3490    1.4870 ca        1 JZW      0.458100
     10 N3          0.6630   -0.7630    4.9090 nh        1 JZW     -0.732300
     11 O3          5.8570    4.4660   -3.9330 o         1 JZW     -0.652800
     12 C4          0.4700   -0.1250    2.5440 ca        1 JZW     -0.347700
     13 N4          2.7270    1.5180   -1.4140 n3        1 JZW     -0.724600
     14 O4         -8.2250    0.1660    1.6540 oh        1 JZW     -0.599800
     15 C5         -2.2030    0.2980    2.8770 cp        1 JZW      0.725500
     16 N5          3.7430    3.8890   -2.7450 n3        1 JZW     -0.825500
     17 C6         -0.1560   -0.3770    3.8100 ca        1 JZW      0.698200
     18 C7         -3.6590    0.5180    3.0960 cp        1 JZW     -0.139500
     19 C8          0.0560   -0.6840    6.2340 c3        1 JZW      0.146800
     20 C9          1.0770   -0.9800    7.3400 c3        1 JZW      0.122900
     21 C10         2.3830   -2.2730    5.8600 c3        1 JZW      0.122900
     22 C11         1.3970   -2.0100    4.7140 c3        1 JZW      0.146800
     23 C12         2.7910    0.3370   -0.5600 c3        1 JZW      0.237000
     24 C13         3.6280    1.4030   -2.5540 c3        1 JZW      0.153300
     25 C14         3.5970    2.6500   -3.4630 c3        1 JZW      0.222300
     26 C15         2.8910    4.0050   -1.5880 c3        1 JZW      0.222300
     27 C16         2.9180    2.7590   -0.6780 c3        1 JZW      0.153300
     28 C17         3.9170    6.0550   -4.1900 c3        1 JZW     -0.359300
     29 C18        -4.1100    1.0970    4.2890 ca        1 JZW     -0.088000
     30 C19        -5.4750    1.3020    4.4840 ca        1 JZW     -0.145000
     31 C20        -6.3920    0.9350    3.5000 ca        1 JZW     -0.086000
     32 C21        -5.9440    0.3580    2.3090 ca        1 JZW     -0.101300
     33 C22        -4.5750    0.1490    2.1070 ca        1 JZW     -0.090000
     34 C23        -6.8880   -0.0450    1.2230 c3        1 JZW      0.177700
     35 H1         -0.0550    0.9270   -0.6530 ha        1 JZW      0.183000
     36 HO4        -8.7880   -0.1020    0.9180 ho        1 JZW      0.403000
     37 H8         -0.3380    0.3590    6.3800 h1        1 JZW      0.058700
     38 H8A        -0.8040   -1.4070    6.3370 h1        1 JZW      0.058700
     39 H9          0.5480   -1.1110    8.3200 h1        1 JZW      0.058450
     40 H9A         1.8350   -0.1570    7.4160 h1        1 JZW      0.058450
     41 H10         3.2280   -1.5350    5.8340 h1        1 JZW      0.058450
     42 H10A        2.7800   -3.3200    5.7870 h1        1 JZW      0.058450
     43 H11         1.9800   -1.9460    3.7500 h1        1 JZW      0.058700
     44 H11A        0.6910   -2.8870    4.6400 h1        1 JZW      0.058700
     45 H12         3.7950    0.2550   -0.0410 h1        1 JZW      0.047700
     46 H12A        2.6820   -0.5670   -1.2300 h1        1 JZW      0.047700
     47 H13         3.2930    0.5240   -3.1730 h1        1 JZW      0.046200
     48 H13A        4.6930    1.2150   -2.2290 h1        1 JZW      0.046200
     49 H14         2.6170    2.6610   -4.0230 h1        1 JZW      0.061200
     50 H14A        4.4380    2.5500   -4.2090 h1        1 JZW      0.061200
     51 H15         1.8290    4.1790   -1.9280 h1        1 JZW      0.061200
     52 H15A        3.2210    4.8890   -0.9700 h1        1 JZW      0.061200
     53 H16         3.8870    2.7560   -0.0970 h1        1 JZW      0.046200
     54 H16A        2.0710    2.8530    0.0580 h1        1 JZW      0.046200
     55 H17         4.5550    6.9080   -4.5380 h1        1 JZW      0.114033
     56 H17A        3.0280    6.5130   -3.6950 h1        1 JZW      0.114033
     57 H17B        3.5470    5.5470   -5.1130 h1        1 JZW      0.114033
     58 H18        -3.3950    1.3890    5.0720 ha        1 JZW      0.144000
     59 H19        -5.8300    1.7580    5.4200 ha        1 JZW      0.135000
     60 H20        -7.4710    1.0960    3.6540 ha        1 JZW      0.155000
     61 H22        -4.2270   -0.3040    1.1660 ha        1 JZW      0.145000
     62 H23        -6.6870    0.5680    0.3010 h1        1 JZW      0.032700
     63 H23A       -6.7390   -1.1330    0.9740 h1        1 JZW      0.032700
@<TRIPOS>BOND
     1    1    5 2   
     2    1    9 1   
     3    1   35 1   
     4    2    9 ar  
     5    2   15 ar  
     6    3   20 1   
     7    3   21 1   
     8    4    5 1   
     9    4   12 1   
    10    5   23 1   
    11    6   15 ar  
    12    6   17 ar  
    13    7    8 2   
    14    8   11 2   
    15    8   16 1   
    16    8   28 1   
    17    9   12 ar  
    18   10   17 1   
    19   10   19 1   
    20   10   22 1   
    21   12   17 ar  
    22   13   23 1   
    23   13   24 1   
    24   13   27 1   
    25   14   34 1   
    26   14   36 1   
    27   15   18 1   
    28   16   25 1   
    29   16   26 1   
    30   18   29 ar  
    31   18   33 ar  
    32   19   20 1   
    33   19   37 1   
    34   19   38 1   
    35   20   39 1   
    36   20   40 1   
    37   21   22 1   
    38   21   41 1   
    39   21   42 1   
    40   22   43 1   
    41   22   44 1   
    42   23   45 1   
    43   23   46 1   
    44   24   25 1   
    45   24   47 1   
    46   24   48 1   
    47   25   49 1   
    48   25   50 1   
    49   26   27 1   
    50   26   51 1   
    51   26   52 1   
    52   27   53 1   
    53   27   54 1   
    54   28   55 1   
    55   28   56 1   
    56   28   57 1   
    57   29   30 ar  
    58   29   58 1   
    59   30   31 ar  
    60   30   59 1   
    61   31   32 ar  
    62   31   60 1   
    63   32   33 ar  
    64   32   34 1   
    65   33   61 1   
    66   34   62 1   
    67   34   63 1   
@<TRIPOS>SUBSTRUCTURE
     1 JZW         1 TEMP              0 ****  ****    0 ROOT
