@<TRIPOS>MOLECULE
JZW
   63    67     1     0     0
SMALL
bcc


@<TRIPOS>ATOM
      1 C1          0.4010    0.5700    0.2800 cc        1 JZW     -0.226800
      2 N1         -1.7060    0.5620    1.6350 nb        1 JZW     -0.674000
      3 O1          1.7270   -2.2290    7.1300 os        1 JZW     -0.410600
      4 S1          2.0630   -0.2450    2.0490 ss        1 JZW      0.080500
      5 C2          1.7240    0.2770    0.4730 cd        1 JZW     -0.098600
      6 N2         -1.4920   -0.1720    3.9580 nb        1 JZW     -0.740000
      7 O2          5.1950    5.7980   -2.0270 o         1 JZW     -0.652800
      8 S2          4.8190    5.0400   -3.1560 s6        1 JZW      1.460900
      9 C3         -0.3730    0.3490    1.4870 ca        1 JZW      0.458100
     10 N3          0.6560   -0.7680    4.9100 nh        1 JZW     -0.732300
     11 O3          5.8640    4.4750   -3.9190 o         1 JZW     -0.652800
     12 C4          0.4690   -0.1260    2.5460 ca        1 JZW     -0.347700
     13 N4          2.7350    1.5210   -1.4060 n3        1 JZW     -0.724600
     14 O4         -8.2230    0.1680    1.6300 oh        1 JZW     -0.599800
     15 C5         -2.2050    0.2960    2.8710 cp        1 JZW      0.725500
     16 N5          3.7480    3.8940   -2.7360 n3        1 JZW     -0.825500
     17 C6         -0.1600   -0.3800    3.8100 ca        1 JZW      0.698200
     18 C7         -3.6610    0.5160    3.0870 cp        1 JZW     -0.139500
     19 C8          0.0450   -0.6910    6.2340 c3        1 JZW      0.146800
     20 C9          1.0630   -0.9880    7.3430 c3        1 JZW      0.122900
     21 C10         2.3730   -2.2790    5.8640 c3        1 JZW      0.122900
     22 C11         1.3900   -2.0140    4.7160 c3        1 JZW      0.146800
     23 C12         2.8000    0.3420   -0.5500 c3        1 JZW      0.237000
     24 C13         3.6400    1.4070   -2.5420 c3        1 JZW      0.153300
     25 C14         3.6090    2.6530   -3.4540 c3        1 JZW      0.222300
     26 C15         2.8920    4.0080   -1.5830 c3        1 JZW      0.222300
     27 C16         2.9210    2.7640   -0.6700 c3        1 JZW      0.153300
     28 C17         3.9210    6.0580   -4.1850 c3        1 JZW     -0.359300
     29 C18        -4.1160    1.0920    4.2800 ca        1 JZW     -0.088000
     30 C19        -5.4810    1.2980    4.4700 ca        1 JZW     -0.145000
     31 C20        -6.3960    0.9330    3.4830 ca        1 JZW     -0.086000
     32 C21        -5.9440    0.3580    2.2920 ca        1 JZW     -0.101300
     33 C22        -4.5740    0.1490    2.0940 ca        1 JZW     -0.090000
     34 C23        -6.8840   -0.0430    1.2030 c3        1 JZW      0.177700
     35 H1         -0.0470    0.9300   -0.6510 ha        1 JZW      0.183000
     36 HO4        -8.7840   -0.0980    0.8920 ho        1 JZW      0.403000
     37 H8         -0.8150   -1.4130    6.3340 h1        1 JZW      0.058700
     38 H8A        -0.3500    0.3530    6.3800 h1        1 JZW      0.058700
     39 H9          1.8210   -0.1650    7.4220 h1        1 JZW      0.058450
     40 H9A         0.5310   -1.1200    8.3210 h1        1 JZW      0.058450
     41 H10         3.2180   -1.5410    5.8420 h1        1 JZW      0.058450
     42 H10A        2.7700   -3.3250    5.7910 h1        1 JZW      0.058450
     43 H11         0.6840   -2.8910    4.6390 h1        1 JZW      0.058700
     44 H11A        1.9750   -1.9490    3.7540 h1        1 JZW      0.058700
     45 H12         2.6950   -0.5640   -1.2200 h1        1 JZW      0.047700
     46 H12A        3.8020    0.2620   -0.0280 h1        1 JZW      0.047700
     47 H13         4.7050    1.2230   -2.2140 h1        1 JZW      0.046200
     48 H13A        3.3110    0.5260   -3.1620 h1        1 JZW      0.046200
     49 H14         4.4520    2.5550   -4.1970 h1        1 JZW      0.061200
     50 H14A        2.6310    2.6600   -4.0160 h1        1 JZW      0.061200
     51 H15         3.2180    4.8940   -0.9640 h1        1 JZW      0.061200
     52 H15A        1.8310    4.1780   -1.9260 h1        1 JZW      0.061200
     53 H16         3.8880    2.7640   -0.0870 h1        1 JZW      0.046200
     54 H16A        2.0710    2.8550    0.0620 h1        1 JZW      0.046200
     55 H17         4.5570    6.9120   -4.5320 h1        1 JZW      0.114033
     56 H17A        3.0280    6.5140   -3.6930 h1        1 JZW      0.114033
     57 H17B        3.5550    5.5470   -5.1070 h1        1 JZW      0.114033
     58 H18        -3.4030    1.3830    5.0660 ha        1 JZW      0.144000
     59 H19        -5.8390    1.7510    5.4060 ha        1 JZW      0.135000
     60 H20        -7.4750    1.0930    3.6350 ha        1 JZW      0.155000
     61 H22        -4.2230   -0.3020    1.1530 ha        1 JZW      0.145000
     62 H23        -6.6800    0.5720    0.2830 h1        1 JZW      0.032700
     63 H23A       -6.7360   -1.1300    0.9520 h1        1 JZW      0.032700
@<TRIPOS>BOND
     1    1    5 2   
     2    1    9 1   
     3    1   35 1   
     4    2    9 ar  
     5    2   15 ar  
     6    3   20 1   
     7    3   21 1   
     8    4    5 1   
     9    4   12 1   
    10    5   23 1   
    11    6   15 ar  
    12    6   17 ar  
    13    7    8 2   
    14    8   11 2   
    15    8   16 1   
    16    8   28 1   
    17    9   12 ar  
    18   10   17 1   
    19   10   19 1   
    20   10   22 1   
    21   12   17 ar  
    22   13   23 1   
    23   13   24 1   
    24   13   27 1   
    25   14   34 1   
    26   14   36 1   
    27   15   18 1   
    28   16   25 1   
    29   16   26 1   
    30   18   29 ar  
    31   18   33 ar  
    32   19   20 1   
    33   19   37 1   
    34   19   38 1   
    35   20   39 1   
    36   20   40 1   
    37   21   22 1   
    38   21   41 1   
    39   21   42 1   
    40   22   43 1   
    41   22   44 1   
    42   23   45 1   
    43   23   46 1   
    44   24   25 1   
    45   24   47 1   
    46   24   48 1   
    47   25   49 1   
    48   25   50 1   
    49   26   27 1   
    50   26   51 1   
    51   26   52 1   
    52   27   53 1   
    53   27   54 1   
    54   28   55 1   
    55   28   56 1   
    56   28   57 1   
    57   29   30 ar  
    58   29   58 1   
    59   30   31 ar  
    60   30   59 1   
    61   31   32 ar  
    62   31   60 1   
    63   32   33 ar  
    64   32   34 1   
    65   33   61 1   
    66   34   62 1   
    67   34   63 1   
@<TRIPOS>SUBSTRUCTURE
     1 JZW         1 TEMP              0 ****  ****    0 ROOT
