@<TRIPOS>MOLECULE
JZW
   63    56     1     0     0
SMALL
bcc


@<TRIPOS>ATOM
      1 C1         -0.7460   -0.1870   -1.2580 c1        1 JZW     -0.058500
      2 N1         -2.6080   -0.1090    0.7560 n1        1 JZW     -0.158000
      3 O1          1.7440    0.3780    5.8990 os        1 JZW     -0.275000
      4 S1          1.0940   -0.2860    0.3320 ss        1 JZW      0.603000
      5 C2          0.6940   -0.2380   -1.1820 c1        1 JZW     -0.406000
      6 N2         -1.7660   -0.1260    3.0300 n1        1 JZW     -0.230000
      7 O2          6.7910   -1.9200   -5.2140 o         1 JZW     -0.928500
      8 S2          5.9740   -0.8250   -5.6750 ss        1 JZW      2.818000
      9 C3         -1.3460   -0.2020    0.2800 c1        1 JZW     -0.058500
     10 N3          0.5380    0.0310    3.5980 n3        1 JZW     -0.237000
     11 O3          6.9080    0.3160   -5.5080 o         1 JZW     -0.928500
     12 C4         -0.2510   -0.2600    1.1870 c1        1 JZW     -0.406000
     13 N4          2.3940   -0.3350   -2.9040 n3        1 JZW     -0.261000
     14 O4         -7.5240    2.9430    0.9390 oh        1 JZW     -0.324000
     15 C5         -2.8330   -0.0700    2.1520 c1        1 JZW      0.096000
     16 N5          4.5860   -0.6310   -4.7040 n2        1 JZW     -0.841000
     17 C6         -0.4840   -0.2200    2.5540 c1        1 JZW      0.199000
     18 C7         -4.1870   -0.0200    2.2460 c1        1 JZW     -0.028000
     19 C8          0.5100   -1.1100    4.6370 c3        1 JZW     -0.079500
     20 C9          1.4410   -0.8640    5.7980 c3        1 JZW     -0.033500
     21 C10         0.9730    1.3700    5.7320 c3        1 JZW     -0.033500
     22 C11         0.0350    1.1440    4.5770 c3        1 JZW     -0.079500
     23 C12         1.0130   -0.1850   -2.7040 c2        1 JZW     -0.008000
     24 C13         2.8900    0.7850   -3.6790 c3        1 JZW     -0.084500
     25 C14         4.3470    0.6060   -4.0820 c3        1 JZW     -0.012500
     26 C15         4.0870   -1.7510   -3.9350 c3        1 JZW     -0.012500
     27 C16         2.6430   -1.5830   -3.5370 c3        1 JZW     -0.084500
     28 C17         5.4970   -1.0410   -7.4230 c2        1 JZW     -0.943000
     29 C18        -4.9380   -1.1930    2.0930 c1        1 JZW     -0.113500
     30 C19        -6.3220   -1.1210    1.9770 c1        1 JZW     -0.113500
     31 C20        -6.9580    0.1160    2.0150 c1        1 JZW     -0.105000
     32 C21        -6.2090    1.2800    2.1680 c1        1 JZW     -0.137000
     33 C22        -4.8190    1.2060    2.2840 c1        1 JZW     -0.082000
     34 C23        -6.9220    2.6600    2.2210 c3        1 JZW      0.016000
     35 H1         -1.2750   -0.1510   -2.0800 DU        1 JZW      0.171000
     36 HO4        -7.7840    3.8420    0.9080 ho        1 JZW      0.201000
     37 H8          0.7670   -1.9340    4.2060 h1        1 JZW      0.106250
     38 H8A        -0.4480   -1.2070    4.9920 h1        1 JZW      0.106250
     39 H9          1.0090   -1.1570    6.6220 h1        1 JZW      0.097000
     40 H9A         2.2920   -1.4020    5.6560 h1        1 JZW      0.097000
     41 H10         0.4260    1.5130    6.5780 h1        1 JZW      0.097000
     42 H10A        1.5010    2.1580    5.5620 h1        1 JZW      0.097000
     43 H11        -0.8280    0.8820    4.9280 h1        1 JZW      0.106250
     44 H11A       -0.0620    1.9500    4.1010 h1        1 JZW      0.106250
     45 H12         0.5720   -0.8580   -3.1280 h4        1 JZW      0.093000
     46 H12A        0.7230    0.6800   -3.0710 h4        1 JZW      0.093000
     47 H13         2.3510    0.8750   -4.4750 h1        1 JZW      0.081250
     48 H13A        2.8090    1.6060   -3.1480 h1        1 JZW      0.081250
     49 H14         4.9570    0.6760   -3.2140 h1        1 JZW      0.104250
     50 H14A        4.5920    1.3210   -4.6990 h1        1 JZW      0.104250
     51 H15         4.6440   -1.8500   -3.1020 h1        1 JZW      0.104250
     52 H15A        4.1740   -2.5760   -4.4820 h1        1 JZW      0.104250
     53 H16         2.0980   -1.6440   -4.3230 h1        1 JZW      0.081250
     54 H16A        2.4240   -2.2330   -2.9860 h1        1 JZW      0.081250
     55 H17         4.7800   -0.4390   -7.6350 ha        1 JZW      0.151667
     56 H17A        5.2130   -1.9300   -7.5620 ha        1 JZW      0.151667
     57 H17B        6.2500   -0.8540   -7.9890 ha        1 JZW      0.151667
     58 H18        -4.4640   -2.1110    2.0660 ha        1 JZW      0.142000
     59 H19        -6.8790   -1.9890    1.8640 ha        1 JZW      0.142000
     60 H20        -7.9130    0.1680    1.9350 ha        1 JZW      0.146000
     61 H22        -4.2430    2.0980    2.4010 ha        1 JZW      0.146000
     62 H23        -7.6760    2.6390    2.9700 h1        1 JZW      0.094000
     63 H23A       -6.2570    3.3680    2.4400 h1        1 JZW      0.094000
@<TRIPOS>BOND
     1    1    5 1   
     2    1    9 1   
     3    2   15 1   
     4    3   20 1   
     5    3   21 1   
     6    4    5 1   
     7    4   12 1   
     8    6   17 1   
     9    7    8 1   
    10    8   11 1   
    11    9   12 1   
    12   10   17 1   
    13   10   19 1   
    14   10   22 1   
    15   13   23 1   
    16   13   24 1   
    17   13   27 1   
    18   14   34 1   
    19   14   36 1   
    20   16   25 1   
    21   16   26 1   
    22   18   33 1   
    23   19   20 1   
    24   19   37 1   
    25   19   38 1   
    26   20   39 1   
    27   20   40 1   
    28   21   22 1   
    29   21   41 1   
    30   21   42 1   
    31   22   43 1   
    32   22   44 1   
    33   23   45 1   
    34   23   46 1   
    35   24   25 1   
    36   24   47 1   
    37   24   48 1   
    38   25   49 1   
    39   25   50 1   
    40   26   27 1   
    41   26   51 1   
    42   26   52 1   
    43   27   53 1   
    44   27   54 1   
    45   28   55 1   
    46   28   56 1   
    47   28   57 1   
    48   29   30 1   
    49   29   58 1   
    50   30   59 1   
    51   31   32 1   
    52   31   60 1   
    53   32   34 1   
    54   33   61 1   
    55   34   62 1   
    56   34   63 1   
@<TRIPOS>SUBSTRUCTURE
     1 JZW         1 TEMP              0 ****  ****    0 ROOT
