@<TRIPOS>MOLECULE
JZX
   61    65     1     0     0
SMALL
bcc


@<TRIPOS>ATOM
      1 C1         -0.0410    0.2730    0.1340 cp        1 JZX      0.673500
      2 N1          1.2960    0.4660    0.2440 nb        1 JZX     -0.662000
      3 O1         -3.3990   -0.2060    5.4750 os        1 JZX     -0.400600
      4 S1          1.8480    0.2040    4.0660 ss        1 JZX      0.158500
      5 C2         -0.4620    0.0430    2.4310 ca        1 JZX      0.722200
      6 N2         -0.9420    0.0710    1.1600 nb        1 JZX     -0.758000
      7 O2          7.2250    5.8240    5.3370 o         1 JZX     -0.649300
      8 S2          8.1390    4.8870    4.8120 s6        1 JZX      1.460900
      9 C3          1.7810    0.4340    1.5150 ca        1 JZX      0.449100
     10 N3          5.5120    1.5460    3.5620 n3        1 JZX     -0.724600
     11 O3          8.9960    4.2410    5.7250 o         1 JZX     -0.649300
     12 C4          0.9450    0.2260    2.6660 ca        1 JZX     -0.349700
     13 N4         -1.3070   -0.2600    3.5250 nh        1 JZX     -0.735300
     14 C5          3.3110    0.4680    3.2660 cc        1 JZX     -0.091600
     15 N5          7.3370    3.7770    3.9250 n3        1 JZX     -0.822500
     16 C6          3.1660    0.5770    1.9060 cd        1 JZX     -0.225800
     17 N6         -2.3240   -0.5280   -2.7540 nb        1 JZX     -0.656000
     18 C7          4.5940    0.5090    4.0180 c3        1 JZX      0.229000
     19 N7         -2.3780    0.1720   -5.0650 n4        1 JZX     -0.813300
     20 C8         -0.6120    0.2880   -1.2360 cp        1 JZX     -0.154800
     21 C9          6.8550    1.3340    4.0910 c3        1 JZX      0.149800
     22 C10         7.8430    2.4500    3.6900 c3        1 JZX      0.223800
     23 C11         6.0100    3.9930    3.4130 c3        1 JZX      0.223800
     24 C12         5.0110    2.8890    3.8220 c3        1 JZX      0.149800
     25 C13        -2.6450   -0.7550    3.2160 c3        1 JZX      0.150800
     26 C14        -3.3860   -1.2190    4.4780 c3        1 JZX      0.121400
     27 C15        -2.0860    0.1980    5.8370 c3        1 JZX      0.121400
     28 C16        -1.3020    0.7070    4.6180 c3        1 JZX      0.150800
     29 C17        -1.7630   -0.4910   -1.5430 ca        1 JZX      0.464200
     30 C18        -1.7420    0.2300   -3.7310 ca        1 JZX      0.418200
     31 C19        -0.0390    1.0550   -2.2540 ca        1 JZX     -0.051000
     32 C20        -0.6050    1.0350   -3.5370 ca        1 JZX     -0.197300
     33 C21         9.1040    5.6820    3.6590 c3        1 JZX     -0.362300
     34 H6          3.9750    0.7510    1.1900 ha        1 JZX      0.190000
     35 H7          4.3620    0.6110    5.1230 h1        1 JZX      0.055700
     36 H7A         5.1080   -0.4890    3.8730 h1        1 JZX      0.055700
     37 HN7        -1.8620    0.7750   -5.7120 hn        1 JZX      0.469133
     38 HN7A       -3.3530    0.4910   -4.9990 hn        1 JZX      0.469133
     39 H9          7.2440    0.3670    3.6640 h1        1 JZX      0.045950
     40 H9A         6.8500    1.2420    5.2170 h1        1 JZX      0.045950
     41 H10         8.0870    2.3370    2.5940 h1        1 JZX      0.063200
     42 H10A        8.7890    2.2990    4.2870 h1        1 JZX      0.063200
     43 H11         6.0510    4.0410    2.2860 h1        1 JZX      0.063200
     44 H11A        5.6130    4.9760    3.8010 h1        1 JZX      0.063200
     45 H12         4.0770    3.0270    3.2100 h1        1 JZX      0.045950
     46 H12A        4.7400    3.0320    4.9090 h1        1 JZX      0.045950
     47 H13        -2.5470   -1.6330    2.5190 h1        1 JZX      0.057700
     48 H13A       -3.2640    0.0390    2.7070 h1        1 JZX      0.057700
     49 H14        -2.9240   -2.1540    4.8910 h1        1 JZX      0.067200
     50 H14A       -4.4680   -1.3940    4.2390 h1        1 JZX      0.067200
     51 H15        -2.2380    1.0370    6.5660 h1        1 JZX      0.067200
     52 H15A       -1.5470   -0.6540    6.3300 h1        1 JZX      0.067200
     53 H16        -0.2390    0.9020    4.9400 h1        1 JZX      0.057700
     54 H16A       -1.7530    1.6850    4.2840 h1        1 JZX      0.057700
     55 H17        -2.2610   -1.1170   -0.7720 h4        1 JZX      0.081100
     56 H19         0.8560    1.6750   -2.0670 ha        1 JZX      0.197000
     57 H20        -0.1560    1.6360   -4.3430 ha        1 JZX      0.166000
     58 H21         9.7330    6.4630    4.1580 h1        1 JZX      0.116700
     59 H21A        8.5150    6.2150    2.8740 h1        1 JZX      0.116700
     60 H21B        9.8160    5.0070    3.1270 h1        1 JZX      0.116700
     61 H73        -2.3700   -0.7950   -5.4120 hn        1 JZX      0.469133
@<TRIPOS>BOND
     1    1    2 ar  
     2    1    6 ar  
     3    1   20 1   
     4    2    9 ar  
     5    3   26 1   
     6    3   27 1   
     7    4   12 1   
     8    4   14 1   
     9    5    6 ar  
    10    5   12 ar  
    11    5   13 1   
    12    7    8 2   
    13    8   11 2   
    14    8   15 1   
    15    8   33 1   
    16    9   12 ar  
    17    9   16 1   
    18   10   18 1   
    19   10   21 1   
    20   10   24 1   
    21   13   25 1   
    22   13   28 1   
    23   14   16 2   
    24   14   18 1   
    25   15   22 1   
    26   15   23 1   
    27   16   34 1   
    28   17   29 ar  
    29   17   30 ar  
    30   18   35 1   
    31   18   36 1   
    32   19   30 1   
    33   19   37 1   
    34   19   38 1   
    35   19   61 1   
    36   20   29 ar  
    37   20   31 ar  
    38   21   22 1   
    39   21   39 1   
    40   21   40 1   
    41   22   41 1   
    42   22   42 1   
    43   23   24 1   
    44   23   43 1   
    45   23   44 1   
    46   24   45 1   
    47   24   46 1   
    48   25   26 1   
    49   25   47 1   
    50   25   48 1   
    51   26   49 1   
    52   26   50 1   
    53   27   28 1   
    54   27   51 1   
    55   27   52 1   
    56   28   53 1   
    57   28   54 1   
    58   29   55 1   
    59   30   32 ar  
    60   31   32 ar  
    61   31   56 1   
    62   32   57 1   
    63   33   58 1   
    64   33   59 1   
    65   33   60 1   
@<TRIPOS>SUBSTRUCTURE
     1 JZX         1 TEMP              0 ****  ****    0 ROOT
