@<TRIPOS>MOLECULE
JZX
   60    64     1     0     0
SMALL
bcc


@<TRIPOS>ATOM
      1 C1         -0.0060    0.2800    0.1330 cp        1 JZX      0.744500
      2 N1          1.3350    0.4690    0.2610 nb        1 JZX     -0.683000
      3 O1         -3.3820   -0.3030    5.4480 os        1 JZX     -0.411600
      4 S1          1.8910    0.1200    4.0810 ss        1 JZX      0.079500
      5 C2         -0.4140   -0.0180    2.4290 ca        1 JZX      0.703200
      6 N2         -0.8970    0.0500    1.1660 nb        1 JZX     -0.750000
      7 O2          7.1990    5.8970    5.2710 o         1 JZX     -0.653300
      8 S2          8.1110    4.9680    4.7250 s6        1 JZX      1.460900
      9 C3          1.8160    0.4080    1.5290 ca        1 JZX      0.463100
     10 N3          5.5450    1.5110    3.6050 n3        1 JZX     -0.723600
     11 O3          9.0600    4.4130    5.6090 o         1 JZX     -0.653300
     12 C4          0.9870    0.1660    2.6730 ca        1 JZX     -0.350700
     13 N4         -1.2570   -0.3510    3.5270 nh        1 JZX     -0.733300
     14 C5          3.3540    0.4180    3.2800 cc        1 JZX     -0.097600
     15 N5          7.3140    3.7880    3.9430 n3        1 JZX     -0.825500
     16 C6          3.2040    0.5550    1.9260 cd        1 JZX     -0.227800
     17 N6         -2.3190   -0.3980   -2.7660 nb        1 JZX     -0.737000
     18 C7          4.6350    0.4550    4.0330 c3        1 JZX      0.237000
     19 N7         -2.2500    0.2930   -5.0530 nh        1 JZX     -0.934500
     20 C8         -0.5800    0.3340   -1.2300 cp        1 JZX     -0.315800
     21 C9          6.8700    1.3440    4.1890 c3        1 JZX      0.153800
     22 C10         7.8490    2.4620    3.7730 c3        1 JZX      0.222300
     23 C11         5.9880    3.9620    3.4080 c3        1 JZX      0.222300
     24 C12         5.0060    2.8460    3.8230 c3        1 JZX      0.153800
     25 C13        -2.5870   -0.8560    3.1990 c3        1 JZX      0.146800
     26 C14        -3.3400   -1.3200    4.4530 c3        1 JZX      0.122900
     27 C15        -2.0830    0.1450    5.8110 c3        1 JZX      0.122900
     28 C16        -1.2950    0.6460    4.5930 c3        1 JZX      0.146800
     29 C17        -1.7440   -0.3960   -1.5590 ca        1 JZX      0.482200
     30 C18        -1.7300    0.3520   -3.7600 ca        1 JZX      0.653200
     31 C19         0.0110    1.1070   -2.2400 ca        1 JZX     -0.013000
     32 C20        -0.5570    1.1300   -3.5060 ca        1 JZX     -0.322300
     33 C21         8.9650    5.7560    3.4780 c3        1 JZX     -0.359300
     34 H6          4.0060    0.7490    1.2080 ha        1 JZX      0.182000
     35 H7          5.1630   -0.5310    3.8650 h1        1 JZX      0.048700
     36 H7A         4.4030    0.5310    5.1390 h1        1 JZX      0.048700
     37 HN7        -3.1580   -0.0990   -5.1590 hn        1 JZX      0.413300
     38 HN7A       -2.0620    1.0880   -5.6170 hn        1 JZX      0.413300
     39 H9          6.8280    1.2980    5.3170 h1        1 JZX      0.045700
     40 H9A         7.2920    0.3680    3.8170 h1        1 JZX      0.045700
     41 H10         8.1250    2.3110    2.6890 h1        1 JZX      0.061450
     42 H10A        8.7810    2.3530    4.4010 h1        1 JZX      0.061450
     43 H11         5.5650    4.9430    3.7720 h1        1 JZX      0.061450
     44 H11A        6.0450    3.9890    2.2810 h1        1 JZX      0.061450
     45 H12         4.7100    3.0060    4.9010 h1        1 JZX      0.045700
     46 H12A        4.0820    2.9470    3.1880 h1        1 JZX      0.045700
     47 H13        -3.2080   -0.0720    2.6780 h1        1 JZX      0.058450
     48 H13A       -2.4700   -1.7350    2.5060 h1        1 JZX      0.058450
     49 H14        -4.4160   -1.5100    4.2020 h1        1 JZX      0.058450
     50 H14A       -2.8720   -2.2450    4.8820 h1        1 JZX      0.058450
     51 H15        -1.5290   -0.6820    6.3290 h1        1 JZX      0.058450
     52 H15A       -2.2650    0.9950    6.5210 h1        1 JZX      0.058450
     53 H16        -0.2410    0.8740    4.9190 h1        1 JZX      0.058450
     54 H16A       -1.7660    1.6050    4.2310 h1        1 JZX      0.058450
     55 H17        -2.2590   -1.0230   -0.8050 h4        1 JZX      0.037100
     56 H19         0.9180    1.6990   -2.0400 ha        1 JZX      0.155000
     57 H20        -0.1030    1.7290   -4.3060 ha        1 JZX      0.143000
     58 H21         8.3040    6.1920    2.6920 h1        1 JZX      0.114033
     59 H21A        9.6980    5.0960    2.9550 h1        1 JZX      0.114033
     60 H21B        9.5570    6.6090    3.8980 h1        1 JZX      0.114033
@<TRIPOS>BOND
     1    1    2 ar  
     2    1    6 ar  
     3    1   20 1   
     4    2    9 ar  
     5    3   26 1   
     6    3   27 1   
     7    4   12 1   
     8    4   14 1   
     9    5    6 ar  
    10    5   12 ar  
    11    5   13 1   
    12    7    8 2   
    13    8   11 2   
    14    8   15 1   
    15    8   33 1   
    16    9   12 ar  
    17    9   16 1   
    18   10   18 1   
    19   10   21 1   
    20   10   24 1   
    21   13   25 1   
    22   13   28 1   
    23   14   16 2   
    24   14   18 1   
    25   15   22 1   
    26   15   23 1   
    27   16   34 1   
    28   17   29 ar  
    29   17   30 ar  
    30   18   35 1   
    31   18   36 1   
    32   19   30 1   
    33   19   37 1   
    34   19   38 1   
    35   20   29 ar  
    36   20   31 ar  
    37   21   22 1   
    38   21   39 1   
    39   21   40 1   
    40   22   41 1   
    41   22   42 1   
    42   23   24 1   
    43   23   43 1   
    44   23   44 1   
    45   24   45 1   
    46   24   46 1   
    47   25   26 1   
    48   25   47 1   
    49   25   48 1   
    50   26   49 1   
    51   26   50 1   
    52   27   28 1   
    53   27   51 1   
    54   27   52 1   
    55   28   53 1   
    56   28   54 1   
    57   29   55 1   
    58   30   32 ar  
    59   31   32 ar  
    60   31   56 1   
    61   32   57 1   
    62   33   58 1   
    63   33   59 1   
    64   33   60 1   
@<TRIPOS>SUBSTRUCTURE
     1 JZX         1 TEMP              0 ****  ****    0 ROOT
