@<TRIPOS>MOLECULE
JZX
   60    64     1     0     0
SMALL
bcc


@<TRIPOS>ATOM
      1 C1         -0.0210    0.3030    0.1370 cp        1 JZX      0.744500
      2 N1          1.3210    0.4950    0.2550 nb        1 JZX     -0.683000
      3 O1         -3.3470   -0.3710    5.4730 os        1 JZX     -0.411600
      4 S1          1.9120    0.0930    4.0650 ss        1 JZX      0.079500
      5 C2         -0.4070   -0.0300    2.4320 ca        1 JZX      0.703200
      6 N2         -0.9020    0.0540    1.1730 nb        1 JZX     -0.750000
      7 O2          7.2070    5.8730    5.2930 o         1 JZX     -0.653300
      8 S2          8.1170    4.9560    4.7260 s6        1 JZX      1.460900
      9 C3          1.8130    0.4170    1.5180 ca        1 JZX      0.463100
     10 N3          5.5560    1.5060    3.5770 n3        1 JZX     -0.723600
     11 O3          9.0760    4.3920    5.5950 o         1 JZX     -0.653300
     12 C4          0.9950    0.1560    2.6660 ca        1 JZX     -0.350700
     13 N4         -1.2400   -0.3830    3.5320 nh        1 JZX     -0.733300
     14 C5          3.3660    0.4080    3.2550 cc        1 JZX     -0.097600
     15 N5          7.3180    3.7850    3.9340 n3        1 JZX     -0.825500
     16 C6          3.2040    0.5640    1.9050 cd        1 JZX     -0.227800
     17 N6         -2.3570   -0.3410   -2.7520 nb        1 JZX     -0.737000
     18 C7          4.6540    0.4400    3.9970 c3        1 JZX      0.237000
     19 N7         -2.3110    0.3840   -5.0280 nv        1 JZX     -0.934500
     20 C8         -0.6070    0.3750   -1.2200 cp        1 JZX     -0.315800
     21 C9          6.8860    1.3350    4.1480 c3        1 JZX      0.153800
     22 C10         7.8570    2.4640    3.7400 c3        1 JZX      0.222300
     23 C11         5.9870    3.9610    3.4130 c3        1 JZX      0.222300
     24 C12         5.0130    2.8340    3.8210 c3        1 JZX      0.153800
     25 C13        -2.5700   -0.8880    3.2080 c3        1 JZX      0.146800
     26 C14        -3.3100   -1.3730    4.4630 c3        1 JZX      0.122900
     27 C15        -2.0460    0.0770    5.8300 c3        1 JZX      0.122900
     28 C16        -1.2720    0.5990    4.6120 c3        1 JZX      0.146800
     29 C17        -1.7710   -0.3550   -1.5500 ca        1 JZX      0.482200
     30 C18        -1.7800    0.4260   -3.7390 ca        1 JZX      0.653200
     31 C19        -0.0290    1.1660   -2.2240 ca        1 JZX     -0.013000
     32 C20        -0.6080    1.2050   -3.4850 ca        1 JZX     -0.322300
     33 C21         8.9590    5.7650    3.4850 c3        1 JZX     -0.359300
     34 H6          3.9990    0.7720    1.1830 ha        1 JZX      0.182000
     35 H7          4.4310    0.4980    5.1070 h1        1 JZX      0.048700
     36 H7A         5.1850   -0.5420    3.8100 h1        1 JZX      0.048700
     37 HN7        -2.1310    1.1880   -5.5820 hn        1 JZX      0.413300
     38 HN7A       -3.2180   -0.0110   -5.1330 hn        1 JZX      0.413300
     39 H9          7.3090    0.3670    3.7570 h1        1 JZX      0.045700
     40 H9A         6.8540    1.2720    5.2750 h1        1 JZX      0.045700
     41 H10         8.7950    2.3490    4.3580 h1        1 JZX      0.061450
     42 H10A        8.1240    2.3300    2.6510 h1        1 JZX      0.061450
     43 H11         5.5630    4.9350    3.7960 h1        1 JZX      0.061450
     44 H11A        6.0340    4.0050    2.2870 h1        1 JZX      0.061450
     45 H12         4.0830    2.9420    3.1960 h1        1 JZX      0.045700
     46 H12A        4.7270    2.9770    4.9040 h1        1 JZX      0.045700
     47 H13        -3.1990   -0.0990    2.7040 h1        1 JZX      0.058450
     48 H13A       -2.4560   -1.7560    2.5010 h1        1 JZX      0.058450
     49 H14        -2.8350   -2.3030    4.8730 h1        1 JZX      0.058450
     50 H14A       -4.3870   -1.5640    4.2180 h1        1 JZX      0.058450
     51 H15        -1.4850   -0.7560    6.3310 h1        1 JZX      0.058450
     52 H15A       -2.2250    0.9150    6.5540 h1        1 JZX      0.058450
     53 H16        -0.2150    0.8260    4.9330 h1        1 JZX      0.058450
     54 H16A       -1.7500    1.5610    4.2690 h1        1 JZX      0.058450
     55 H17        -2.2760   -0.9950   -0.8010 h4        1 JZX      0.037100
     56 H19         0.8780    1.7580   -2.0230 ha        1 JZX      0.155000
     57 H20        -0.1630    1.8180   -4.2790 ha        1 JZX      0.143000
     58 H21         8.2900    6.2100    2.7100 h1        1 JZX      0.114033
     59 H21A        9.5510    6.6140    3.9120 h1        1 JZX      0.114033
     60 H21B        9.6900    5.1150    2.9460 h1        1 JZX      0.114033
@<TRIPOS>BOND
     1    1    2 ar  
     2    1    6 ar  
     3    1   20 1   
     4    2    9 ar  
     5    3   26 1   
     6    3   27 1   
     7    4   12 1   
     8    4   14 1   
     9    5    6 ar  
    10    5   12 ar  
    11    5   13 1   
    12    7    8 2   
    13    8   11 2   
    14    8   15 1   
    15    8   33 1   
    16    9   12 ar  
    17    9   16 1   
    18   10   18 1   
    19   10   21 1   
    20   10   24 1   
    21   13   25 1   
    22   13   28 1   
    23   14   16 2   
    24   14   18 1   
    25   15   22 1   
    26   15   23 1   
    27   16   34 1   
    28   17   29 ar  
    29   17   30 ar  
    30   18   35 1   
    31   18   36 1   
    32   19   30 1   
    33   19   37 1   
    34   19   38 1   
    35   20   29 ar  
    36   20   31 ar  
    37   21   22 1   
    38   21   39 1   
    39   21   40 1   
    40   22   41 1   
    41   22   42 1   
    42   23   24 1   
    43   23   43 1   
    44   23   44 1   
    45   24   45 1   
    46   24   46 1   
    47   25   26 1   
    48   25   47 1   
    49   25   48 1   
    50   26   49 1   
    51   26   50 1   
    52   27   28 1   
    53   27   51 1   
    54   27   52 1   
    55   28   53 1   
    56   28   54 1   
    57   29   55 1   
    58   30   32 ar  
    59   31   32 ar  
    60   31   56 1   
    61   32   57 1   
    62   33   58 1   
    63   33   59 1   
    64   33   60 1   
@<TRIPOS>SUBSTRUCTURE
     1 JZX         1 TEMP              0 ****  ****    0 ROOT
