@<TRIPOS>MOLECULE
JZX
   60    64     1     0     0
SMALL
bcc


@<TRIPOS>ATOM
      1 C1          3.3120   -0.6520    0.0700 cp        1 JZX      0.744500
      2 N1          2.1250   -1.2620   -0.2010 nb        1 JZX     -0.684000
      3 O1          3.4390    5.6690   -0.0930 os        1 JZX     -0.410600
      4 S1         -0.1550    1.7070   -1.2060 ss        1 JZX      0.079500
      5 C2          2.5550    1.5280   -0.3800 ca        1 JZX      0.703200
      6 N2          3.5620    0.7060    0.0030 nb        1 JZX     -0.749000
      7 O2         -6.9180   -0.4160    2.3530 o         1 JZX     -0.653300
      8 S2         -7.0370   -1.3080    1.2670 s6        1 JZX      1.460900
      9 C3          1.1170   -0.4360   -0.5790 ca        1 JZX      0.463100
     10 N3         -3.2630   -0.7040   -1.0070 n3        1 JZX     -0.724600
     11 O3         -8.0500   -1.0310    0.3240 o         1 JZX     -0.653300
     12 C4          1.2640    0.9860   -0.6890 ca        1 JZX     -0.350700
     13 N4          2.7700    2.9240   -0.5670 nh        1 JZX     -0.732300
     14 C5         -0.9970    0.2390   -1.2910 cc        1 JZX     -0.097600
     15 N5         -5.6060   -1.4820    0.5190 n3        1 JZX     -0.825500
     16 C6         -0.2310   -0.8380   -0.9380 cd        1 JZX     -0.228800
     17 N6          6.8510   -1.8610    0.5440 nb        1 JZX     -0.737000
     18 C7         -2.4050    0.2020   -1.7640 c3        1 JZX      0.237000
     19 N7          7.7440   -3.7640    1.6810 nh        1 JZX     -0.934500
     20 C8          4.4440   -1.5090    0.4860 cp        1 JZX     -0.314800
     21 C9         -4.5490   -0.8960   -1.6650 c3        1 JZX      0.153300
     22 C10        -5.4880   -1.8310   -0.8730 c3        1 JZX      0.222300
     23 C11        -4.3460   -1.2470    1.1770 c3        1 JZX      0.222300
     24 C12        -3.4060   -0.3120    0.3880 c3        1 JZX      0.153300
     25 C13         4.1580    3.3760   -0.5680 c3        1 JZX      0.146800
     26 C14         4.2650    4.8640   -0.9270 c3        1 JZX      0.122900
     27 C15         2.0770    5.2640   -0.1390 c3        1 JZX      0.122900
     28 C16         1.9120    3.7860    0.2390 c3        1 JZX      0.146800
     29 C17         5.7780   -1.1370    0.2080 ca        1 JZX      0.482200
     30 C18         6.6420   -3.0390    1.2250 ca        1 JZX      0.652200
     31 C19         4.2330   -2.7200    1.1610 ca        1 JZX     -0.014000
     32 C20         5.3220   -3.4950    1.5330 ca        1 JZX     -0.321300
     33 C21        -7.3370   -2.8600    1.9050 c3        1 JZX     -0.359300
     34 H6         -0.5600   -1.8810   -0.9180 ha        1 JZX      0.182000
     35 H7         -2.4000   -0.1600   -2.8360 h1        1 JZX      0.048200
     36 H7A        -2.8160    1.2580   -1.7660 h1        1 JZX      0.048200
     37 HN7         8.6320   -3.5240    1.3020 hn        1 JZX      0.412300
     38 HN7A        7.5830   -4.7370    1.8020 hn        1 JZX      0.412300
     39 H9         -5.0790    0.0850   -1.8450 h1        1 JZX      0.045950
     40 H9A        -4.3580   -1.3770   -2.6660 h1        1 JZX      0.045950
     41 H10        -5.0970   -2.8860   -0.9570 h1        1 JZX      0.061450
     42 H10A       -6.5060   -1.7840   -1.3570 h1        1 JZX      0.061450
     43 H11        -4.5350   -0.7730    2.1840 h1        1 JZX      0.061450
     44 H11A       -3.8220   -2.2340    1.3360 h1        1 JZX      0.061450
     45 H12        -2.3860   -0.3690    0.8630 h1        1 JZX      0.045950
     46 H12A       -3.7800    0.7480    0.4890 h1        1 JZX      0.045950
     47 H13         4.6450    3.2140    0.4360 h1        1 JZX      0.058950
     48 H13A        4.7230    2.7800   -1.3370 h1        1 JZX      0.058950
     49 H14         3.9950    5.0370   -2.0020 h1        1 JZX      0.058200
     50 H14A        5.3060    5.2290   -0.7260 h1        1 JZX      0.058200
     51 H15         1.5650    5.9100    0.6210 h1        1 JZX      0.058200
     52 H15A        1.6590    5.4620   -1.1610 h1        1 JZX      0.058200
     53 H16         0.8360    3.4940    0.0710 h1        1 JZX      0.058950
     54 H16A        2.1400    3.6700    1.3380 h1        1 JZX      0.058950
     55 H17         6.0090   -0.1970   -0.3310 h4        1 JZX      0.036100
     56 H19         3.2140   -3.0630    1.4000 ha        1 JZX      0.155000
     57 H20         5.1710   -4.4420    2.0680 ha        1 JZX      0.143000
     58 H21        -8.3080   -2.8650    2.4620 h1        1 JZX      0.114033
     59 H21A       -7.4210   -3.6530    1.1240 h1        1 JZX      0.114033
     60 H21B       -6.5600   -3.2010    2.6300 h1        1 JZX      0.114033
@<TRIPOS>BOND
     1    1    2 ar  
     2    1    6 ar  
     3    1   20 1   
     4    2    9 ar  
     5    3   26 1   
     6    3   27 1   
     7    4   12 1   
     8    4   14 1   
     9    5    6 ar  
    10    5   12 ar  
    11    5   13 1   
    12    7    8 2   
    13    8   11 2   
    14    8   15 1   
    15    8   33 1   
    16    9   12 ar  
    17    9   16 1   
    18   10   18 1   
    19   10   21 1   
    20   10   24 1   
    21   13   25 1   
    22   13   28 1   
    23   14   16 2   
    24   14   18 1   
    25   15   22 1   
    26   15   23 1   
    27   16   34 1   
    28   17   29 ar  
    29   17   30 ar  
    30   18   35 1   
    31   18   36 1   
    32   19   30 1   
    33   19   37 1   
    34   19   38 1   
    35   20   29 ar  
    36   20   31 ar  
    37   21   22 1   
    38   21   39 1   
    39   21   40 1   
    40   22   41 1   
    41   22   42 1   
    42   23   24 1   
    43   23   43 1   
    44   23   44 1   
    45   24   45 1   
    46   24   46 1   
    47   25   26 1   
    48   25   47 1   
    49   25   48 1   
    50   26   49 1   
    51   26   50 1   
    52   27   28 1   
    53   27   51 1   
    54   27   52 1   
    55   28   53 1   
    56   28   54 1   
    57   29   55 1   
    58   30   32 ar  
    59   31   32 ar  
    60   31   56 1   
    61   32   57 1   
    62   33   58 1   
    63   33   59 1   
    64   33   60 1   
@<TRIPOS>SUBSTRUCTURE
     1 JZX         1 TEMP              0 ****  ****    0 ROOT
