@<TRIPOS>MOLECULE
JZY
   62    66     1     0     0
SMALL
bcc


@<TRIPOS>ATOM
      1 C1          0.0980   -0.3670   -0.2660 ca        1 JZY      0.700200
      2 N2          1.4400   -0.2700   -0.1100 nb        1 JZY     -0.746000
      3 C3          1.9300    0.1000    1.1290 cp        1 JZY      0.746500
      4 N4          1.1930    0.3600    2.2410 nb        1 JZY     -0.674000
      5 C5         -0.1530    0.2550    2.0840 ca        1 JZY      0.458100
      6 C6         -0.7740   -0.1080    0.8440 ca        1 JZY     -0.348700
      7 S7         -2.4420   -0.1140    0.9780 ss        1 JZY      0.082500
      8 C8         -2.4210    0.3120    2.6170 cc        1 JZY     -0.097600
      9 C9         -1.1550    0.4880    3.1080 cd        1 JZY     -0.227800
     10 N10        -0.4820   -0.6360   -1.5380 nh        1 JZY     -0.733300
     11 C11         0.4080   -0.5550   -2.6920 c3        1 JZY      0.146800
     12 C12        -0.3610   -0.7120   -4.0100 c3        1 JZY      0.122900
     13 O13        -1.1500   -1.8970   -4.0210 os        1 JZY     -0.410600
     14 C14        -2.0610   -1.9440   -2.9310 c3        1 JZY      0.122900
     15 C15        -1.3370   -1.8180   -1.5830 c3        1 JZY      0.146800
     16 C16         3.4020    0.1750    1.2380 cp        1 JZY     -0.442100
     17 C17         4.1890   -0.8970    0.7600 ca        1 JZY      0.505200
     18 N18         5.5220   -0.9270    0.8370 nb        1 JZY     -0.761000
     19 C19         6.1240    0.1810    1.4350 ca        1 JZY      0.886900
     20 N20         5.4380    1.2990    1.8940 nb        1 JZY     -0.769000
     21 C21         4.0910    1.2820    1.7970 ca        1 JZY      0.531600
     22 C22         3.3400    2.4800    2.2840 c3        1 JZY     -0.157400
     23 N23         7.5020    0.1440    1.6300 nv        1 JZY     -0.934500
     24 C24        -3.6860    0.4200    3.3890 c3        1 JZY      0.237000
     25 N25        -3.7320    1.5610    4.2960 n3        1 JZY     -0.724600
     26 C26        -4.8600    1.4680    5.2140 c3        1 JZY      0.153300
     27 C27        -4.9470    2.6770    6.1720 c3        1 JZY      0.222300
     28 N28        -4.8580    3.9490    5.5030 n3        1 JZY     -0.824500
     29 C29        -3.7740    4.0450    4.5590 c3        1 JZY      0.222300
     30 C30        -3.6850    2.8390    3.6000 c3        1 JZY      0.153300
     31 S31        -5.9250    5.1490    5.7460 s6        1 JZY      1.460900
     32 O32        -5.9970    5.9790    4.6070 o         1 JZY     -0.653300
     33 O33        -7.1440    4.6280    6.2310 o         1 JZY     -0.653300
     34 C34        -5.2150    6.0560    7.0020 c3        1 JZY     -0.359300
     35 H9         -0.8970    0.7690    4.1330 ha        1 JZY      0.183000
     36 H11         1.2110   -1.3470   -2.6490 h1        1 JZY      0.058700
     37 H11A        0.9060    0.4540   -2.6850 h1        1 JZY      0.058700
     38 H12         0.3610   -0.8490   -4.8570 h1        1 JZY      0.058950
     39 H12A       -1.0170    0.1780   -4.1990 h1        1 JZY      0.058950
     40 H14        -2.5440   -2.9530   -3.0100 h1        1 JZY      0.058950
     41 H14A       -2.8290   -1.1350   -3.0460 h1        1 JZY      0.058950
     42 H15        -0.7370   -2.7570   -1.4100 h1        1 JZY      0.058700
     43 H15A       -2.1130   -1.7410   -0.7690 h1        1 JZY      0.058700
     44 H17         3.7200   -1.7810    0.2870 h4        1 JZY      0.037100
     45 H22         3.9990    3.3780    2.3830 hc        1 JZY      0.064367
     46 H22A        2.9010    2.2510    3.2880 hc        1 JZY      0.064367
     47 H22B        2.5130    2.7220    1.5720 hc        1 JZY      0.064367
     48 HN23        7.9580    0.9940    1.8590 hn        1 JZY      0.434800
     49 HN2A        8.0190   -0.5320    1.1200 hn        1 JZY      0.434800
     50 H24        -3.7880   -0.5140    4.0180 h1        1 JZY      0.048200
     51 H24A       -4.5550    0.4340    2.6610 h1        1 JZY      0.048200
     52 H26        -5.8420    1.3690    4.6650 h1        1 JZY      0.046200
     53 H26A       -4.7200    0.5460    5.8450 h1        1 JZY      0.046200
     54 H27        -5.9320    2.6100    6.7180 h1        1 JZY      0.061450
     55 H27A       -4.1100    2.5970    6.9250 h1        1 JZY      0.061450
     56 H29        -3.9090    4.9730    3.9310 h1        1 JZY      0.061450
     57 H29A       -2.8000    4.1280    5.1230 h1        1 JZY      0.061450
     58 H30        -2.6970    2.8980    3.0640 h1        1 JZY      0.046200
     59 H30A       -4.5070    2.9260    2.8310 h1        1 JZY      0.046200
     60 H34        -5.8630    6.9330    7.2560 h1        1 JZY      0.114033
     61 H34A       -5.0840    5.4790    7.9490 h1        1 JZY      0.114033
     62 H34B       -4.2140    6.4740    6.7380 h1        1 JZY      0.114033
@<TRIPOS>BOND
     1    1    2 ar  
     2    1    6 ar  
     3    1   10 1   
     4    2    3 ar  
     5    3    4 ar  
     6    3   16 1   
     7    4    5 ar  
     8    5    6 ar  
     9    5    9 1   
    10    6    7 1   
    11    7    8 1   
    12    8    9 2   
    13    8   24 1   
    14    9   35 1   
    15   10   11 1   
    16   10   15 1   
    17   11   12 1   
    18   11   36 1   
    19   11   37 1   
    20   12   13 1   
    21   12   38 1   
    22   12   39 1   
    23   13   14 1   
    24   14   15 1   
    25   14   40 1   
    26   14   41 1   
    27   15   42 1   
    28   15   43 1   
    29   16   17 ar  
    30   16   21 ar  
    31   17   18 ar  
    32   17   44 1   
    33   18   19 ar  
    34   19   20 ar  
    35   19   23 1   
    36   20   21 ar  
    37   21   22 1   
    38   22   45 1   
    39   22   46 1   
    40   22   47 1   
    41   23   48 1   
    42   23   49 1   
    43   24   25 1   
    44   24   50 1   
    45   24   51 1   
    46   25   26 1   
    47   25   30 1   
    48   26   27 1   
    49   26   52 1   
    50   26   53 1   
    51   27   28 1   
    52   27   54 1   
    53   27   55 1   
    54   28   29 1   
    55   28   31 1   
    56   29   30 1   
    57   29   56 1   
    58   29   57 1   
    59   30   58 1   
    60   30   59 1   
    61   31   32 2   
    62   31   33 2   
    63   31   34 1   
    64   34   60 1   
    65   34   61 1   
    66   34   62 1   
@<TRIPOS>SUBSTRUCTURE
     1 JZY         1 TEMP              0 ****  ****    0 ROOT
