@<TRIPOS>MOLECULE
JZY
   62    66     1     0     0
SMALL
bcc


@<TRIPOS>ATOM
      1 C1         -2.4240   -1.6410   -0.1880 ca        1 JZY      0.700200
      2 N2         -3.4310   -0.7640    0.0370 nb        1 JZY     -0.746000
      3 C3         -3.1690    0.5860   -0.1150 cp        1 JZY      0.746500
      4 N4         -1.9880    1.1380   -0.4970 nb        1 JZY     -0.674000
      5 C5         -0.9810    0.2560   -0.7290 ca        1 JZY      0.458100
      6 C6         -1.1330   -1.1630   -0.5910 ca        1 JZY     -0.348700
      7 S7          0.3020   -1.9620   -0.9160 ss        1 JZY      0.082500
      8 C8          1.1430   -0.5340   -1.2690 cc        1 JZY     -0.097600
      9 C9          0.3710    0.5880   -1.1370 cd        1 JZY     -0.227800
     10 N10        -2.5880   -3.0350    0.0530 nh        1 JZY     -0.733300
     11 C11        -3.7910   -3.4340    0.7780 c3        1 JZY      0.146800
     12 C12        -3.7780   -4.9330    1.1090 c3        1 JZY      0.122900
     13 O13        -3.5620   -5.7260   -0.0530 os        1 JZY     -0.410600
     14 C14        -2.3570   -5.3770   -0.7230 c3        1 JZY      0.122900
     15 C15        -2.3310   -3.8900   -1.1010 c3        1 JZY      0.146800
     16 C16        -4.3120    1.4900    0.1320 cp        1 JZY     -0.442100
     17 C17        -5.5580    1.2160   -0.4760 ca        1 JZY      0.505200
     18 N18        -6.6380    1.9880   -0.3300 nb        1 JZY     -0.761000
     19 C19        -6.4760    3.1190    0.4740 ca        1 JZY      0.886900
     20 N20        -5.3050    3.4460    1.1470 nb        1 JZY     -0.769000
     21 C21        -4.2390    2.6360    0.9650 ca        1 JZY      0.531600
     22 C22        -2.9730    2.9740    1.6870 c3        1 JZY     -0.157400
     23 N23        -7.5450    4.0050    0.5680 nh        1 JZY     -0.934500
     24 C24         2.5600   -0.5810   -1.7160 c3        1 JZY      0.237000
     25 N25         3.4020    0.4530   -1.1250 n3        1 JZY     -0.724600
     26 C26         4.6950    0.5360   -1.7920 c3        1 JZY      0.153300
     27 C27         5.6160    1.6070   -1.1700 c3        1 JZY      0.222300
     28 N28         5.7190    1.5160    0.2630 n3        1 JZY     -0.824500
     29 C29         4.4530    1.3910    0.9390 c3        1 JZY      0.222300
     30 C30         3.5290    0.3200    0.3190 c3        1 JZY      0.153300
     31 S31         7.1420    1.4950    1.0460 s6        1 JZY      1.460900
     32 O32         7.0150    0.8150    2.2760 o         1 JZY     -0.653300
     33 O33         8.1680    1.0590    0.1810 o         1 JZY     -0.653300
     34 C34         7.4220    3.1400    1.3930 c3        1 JZY     -0.359300
     35 H9          0.7000    1.6170   -1.3070 ha        1 JZY      0.183000
     36 H11        -3.8320   -2.8540    1.7410 h1        1 JZY      0.058700
     37 H11A       -4.7230   -3.2060    0.1860 h1        1 JZY      0.058700
     38 H12        -2.9930   -5.1670    1.8750 h1        1 JZY      0.058950
     39 H12A       -4.7880   -5.2480    1.4790 h1        1 JZY      0.058950
     40 H14        -1.4770   -5.6390   -0.0780 h1        1 JZY      0.058950
     41 H14A       -2.3590   -6.0050   -1.6520 h1        1 JZY      0.058950
     42 H15        -3.0940   -3.7130   -1.9130 h1        1 JZY      0.058700
     43 H15A       -1.3120   -3.6470   -1.5180 h1        1 JZY      0.058700
     44 H17        -5.6950    0.3240   -1.1170 h4        1 JZY      0.037100
     45 H22        -2.2630    3.4560    0.9680 hc        1 JZY      0.064367
     46 H22A       -3.1500    3.6800    2.5350 hc        1 JZY      0.064367
     47 H22B       -2.5080    2.0420    2.0890 hc        1 JZY      0.064367
     48 HN23       -8.4370    3.6810    0.2810 hn        1 JZY      0.434800
     49 HN2A       -7.5140    4.6890    1.2860 hn        1 JZY      0.434800
     50 H24         2.9700   -1.6170   -1.5130 h1        1 JZY      0.048200
     51 H24A        2.5740   -0.4250   -2.8360 h1        1 JZY      0.048200
     52 H26         5.2340   -0.4560   -1.7860 h1        1 JZY      0.046200
     53 H26A        4.5140    0.8260   -2.8650 h1        1 JZY      0.046200
     54 H27         6.6410    1.4830   -1.6260 h1        1 JZY      0.061450
     55 H27A        5.2180    2.6260   -1.4480 h1        1 JZY      0.061450
     56 H29         4.6320    1.1070    2.0160 h1        1 JZY      0.061450
     57 H29A        3.9190    2.3850    0.9110 h1        1 JZY      0.061450
     58 H30         2.5030    0.4510    0.7650 h1        1 JZY      0.046200
     59 H30A        3.9110   -0.7010    0.6140 h1        1 JZY      0.046200
     60 H34         6.6340    3.6010    2.0350 h1        1 JZY      0.114033
     61 H34A        8.3860    3.2560    1.9500 h1        1 JZY      0.114033
     62 H34B        7.5100    3.7780    0.4810 h1        1 JZY      0.114033
@<TRIPOS>BOND
     1    1    2 ar  
     2    1    6 ar  
     3    1   10 1   
     4    2    3 ar  
     5    3    4 ar  
     6    3   16 1   
     7    4    5 ar  
     8    5    6 ar  
     9    5    9 1   
    10    6    7 1   
    11    7    8 1   
    12    8    9 2   
    13    8   24 1   
    14    9   35 1   
    15   10   11 1   
    16   10   15 1   
    17   11   12 1   
    18   11   36 1   
    19   11   37 1   
    20   12   13 1   
    21   12   38 1   
    22   12   39 1   
    23   13   14 1   
    24   14   15 1   
    25   14   40 1   
    26   14   41 1   
    27   15   42 1   
    28   15   43 1   
    29   16   17 ar  
    30   16   21 ar  
    31   17   18 ar  
    32   17   44 1   
    33   18   19 ar  
    34   19   20 ar  
    35   19   23 1   
    36   20   21 ar  
    37   21   22 1   
    38   22   45 1   
    39   22   46 1   
    40   22   47 1   
    41   23   48 1   
    42   23   49 1   
    43   24   25 1   
    44   24   50 1   
    45   24   51 1   
    46   25   26 1   
    47   25   30 1   
    48   26   27 1   
    49   26   52 1   
    50   26   53 1   
    51   27   28 1   
    52   27   54 1   
    53   27   55 1   
    54   28   29 1   
    55   28   31 1   
    56   29   30 1   
    57   29   56 1   
    58   29   57 1   
    59   30   58 1   
    60   30   59 1   
    61   31   32 2   
    62   31   33 2   
    63   31   34 1   
    64   34   60 1   
    65   34   61 1   
    66   34   62 1   
@<TRIPOS>SUBSTRUCTURE
     1 JZY         1 TEMP              0 ****  ****    0 ROOT
