@<TRIPOS>MOLECULE
JZY
   62    54     1     0     0
SMALL
bcc


@<TRIPOS>ATOM
      1 C1          0.9070   -1.1030   -2.2760 c1        1 JZY      0.200000
      2 N2          2.2920   -1.2270   -2.3190 n1        1 JZY     -0.198000
      3 C3          3.0180   -1.3330   -1.1400 c1        1 JZY      0.076000
      4 N4          2.3790   -1.3160    0.0640 n1        1 JZY     -0.198000
      5 C5          1.0280   -1.1950    0.1150 c1        1 JZY      0.076000
      6 C6          0.2740   -1.0860   -1.0970 c1        1 JZY     -0.479000
      7 S7         -1.2490   -0.9190   -0.7080 s         1 JZY      0.603000
      8 C8         -1.3420   -0.9380    0.8470 c1        1 JZY     -0.336000
      9 C9          0.0010   -1.1020    1.3700 c1        1 JZY     -0.149000
     10 N10         0.2120   -0.9480   -3.4930 n3        1 JZY     -0.239000
     11 C11         1.0950   -0.1690   -4.4990 c3        1 JZY     -0.079500
     12 C12         0.4680   -0.0620   -5.8670 c3        1 JZY     -0.033500
     13 O13        -0.4300   -0.9440   -6.0320 os        1 JZY     -0.275000
     14 C14        -0.3960   -2.1550   -5.6520 c3        1 JZY     -0.033500
     15 C15         0.2240   -2.2840   -4.2810 c3        1 JZY     -0.079500
     16 C16         4.4250   -1.5150   -0.9930 c1        1 JZY     -0.202000
     17 C17         4.9560   -2.7730   -1.0040 c1        1 JZY      0.039000
     18 N18         6.2520   -2.9420   -0.8600 n1        1 JZY     -0.236000
     19 C19         7.0650   -1.8620   -0.6990 c1        1 JZY      0.167000
     20 N20         6.5350   -0.5980   -0.6870 n1        1 JZY     -0.243000
     21 C21         5.2450   -0.4300   -0.8300 c1        1 JZY      0.109000
     22 C22         4.6550    0.9820   -0.8210 c3        1 JZY     -0.181000
     23 N23         8.4600   -2.0390   -0.6530 n3        1 JZY     -0.332000
     24 C24        -2.6490   -0.7960    1.7380 c2        1 JZY     -0.008000
     25 N25        -2.7250    0.5640    2.2900 n3        1 JZY     -0.261000
     26 C26        -2.7820    0.4890    3.7120 c3        1 JZY     -0.085000
     27 C27        -3.0130    1.8180    4.3410 c3        1 JZY     -0.012500
     28 N28        -4.1550    2.5090    3.7710 n3        1 JZY     -0.841000
     29 C29        -4.0970    2.5850    2.3540 c3        1 JZY     -0.012500
     30 C30        -3.8650    1.2520    1.7210 c3        1 JZY     -0.085000
     31 S31        -4.9260    3.7200    4.6460 s4        1 JZY      2.033800
     32 O32        -3.9630    4.5750    5.3250 o         1 JZY     -0.536400
     33 O33        -5.5830    4.6880    3.7600 o         1 JZY     -0.536400
     34 C34        -6.0700    3.0230    5.7730 c2        1 JZY     -0.943000
     35 H9          0.2570   -1.1480    2.3560 DU        1 JZY      0.171000
     36 H11         2.0190   -0.6540   -4.5860 h1        1 JZY      0.106500
     37 H11A        1.2380    0.6970   -4.1670 h1        1 JZY      0.106500
     38 H12         0.0470    0.8690   -5.9720 h1        1 JZY      0.096500
     39 H12A        1.1770   -0.1830   -6.5630 h1        1 JZY      0.096500
     40 H14         0.1350   -2.6860   -6.3040 h1        1 JZY      0.096500
     41 H14A       -1.3500   -2.5210   -5.6210 h1        1 JZY      0.096500
     42 H15         1.1080   -2.5680   -4.3770 h1        1 JZY      0.106500
     43 H15A       -0.2920   -2.9870   -3.7500 h1        1 JZY      0.106500
     44 H17         4.3790   -3.5400   -1.1180 ha        1 JZY      0.173000
     45 H22         3.8010    0.9930   -1.3450 hc        1 JZY      0.103333
     46 H22A        5.3020    1.6120   -1.2310 hc        1 JZY      0.103333
     47 H22B        4.4670    1.2670    0.1440 hc        1 JZY      0.103333
     48 HN23        9.0270   -1.2910   -0.6060 hn        1 JZY      0.229000
     49 HN2A        8.8410   -2.9470   -0.6390 hn        1 JZY      0.229000
     50 H24        -3.3870   -0.9570    1.2240 h4        1 JZY      0.093000
     51 H24A       -2.6140   -1.4780    2.5130 h4        1 JZY      0.093000
     52 H26        -1.9770    0.1430    4.0280 h1        1 JZY      0.081750
     53 H26A       -3.5350   -0.1350    3.9760 h1        1 JZY      0.081750
     54 H27        -3.1570    1.7020    5.2470 h1        1 JZY      0.104750
     55 H27A       -2.1720    2.3950    4.2120 h1        1 JZY      0.104750
     56 H29        -4.9820    2.9710    2.0050 h1        1 JZY      0.104750
     57 H29A       -3.3330    3.2100    2.0880 h1        1 JZY      0.104750
     58 H30        -4.6780    0.6900    1.8440 h1        1 JZY      0.081750
     59 H30A       -3.7100    1.3820    0.7540 h1        1 JZY      0.081750
     60 H34        -5.5810    2.6290    6.5460 ha        1 JZY      0.151333
     61 H34A       -6.5820    2.3290    5.3270 ha        1 JZY      0.151333
     62 H34B       -6.6900    3.7380    6.0980 ha        1 JZY      0.151333
@<TRIPOS>BOND
     1    1    6 1   
     2    1   10 1   
     3    2    3 1   
     4    4    5 1   
     5    7    8 1   
     6    8    9 1   
     7   10   11 1   
     8   10   15 1   
     9   11   12 1   
    10   11   36 1   
    11   11   37 1   
    12   12   13 1   
    13   12   38 1   
    14   12   39 1   
    15   13   14 1   
    16   14   15 1   
    17   14   40 1   
    18   14   41 1   
    19   15   42 1   
    20   15   43 1   
    21   16   21 1   
    22   17   18 1   
    23   17   44 1   
    24   19   20 1   
    25   19   23 1   
    26   21   22 1   
    27   22   45 1   
    28   22   46 1   
    29   22   47 1   
    30   23   48 1   
    31   23   49 1   
    32   24   25 1   
    33   24   50 1   
    34   24   51 1   
    35   25   26 1   
    36   25   30 1   
    37   26   27 1   
    38   26   52 1   
    39   26   53 1   
    40   27   28 1   
    41   27   54 1   
    42   27   55 1   
    43   28   29 1   
    44   28   31 1   
    45   29   30 1   
    46   29   56 1   
    47   29   57 1   
    48   30   58 1   
    49   30   59 1   
    50   31   32 1   
    51   31   33 1   
    52   34   60 1   
    53   34   61 1   
    54   34   62 1   
@<TRIPOS>SUBSTRUCTURE
     1 JZY         1 TEMP              0 ****  ****    0 ROOT
