@<TRIPOS>MOLECULE
JZY
   62    66     1     0     0
SMALL
bcc


@<TRIPOS>ATOM
      1 C1          0.0960   -0.3630   -0.2710 ca        1 JZY      0.700200
      2 N2          1.4390   -0.2700   -0.1110 nb        1 JZY     -0.746000
      3 C3          1.9260    0.0950    1.1300 cp        1 JZY      0.746500
      4 N4          1.1870    0.3550    2.2400 nb        1 JZY     -0.674000
      5 C5         -0.1590    0.2540    2.0800 ca        1 JZY      0.458100
      6 C6         -0.7770   -0.1040    0.8370 ca        1 JZY     -0.348700
      7 S7         -2.4460   -0.1050    0.9670 ss        1 JZY      0.082500
      8 C8         -2.4270    0.3180    2.6070 cc        1 JZY     -0.097600
      9 C9         -1.1620    0.4880    3.1010 cd        1 JZY     -0.227800
     10 N10        -0.4810   -0.6280   -1.5450 nh        1 JZY     -0.733300
     11 C11         0.4130   -0.5470   -2.6960 c3        1 JZY      0.146800
     12 C12        -0.3530   -0.6990   -4.0170 c3        1 JZY      0.122900
     13 O13        -1.1460   -1.8820   -4.0330 os        1 JZY     -0.410600
     14 C14        -2.0600   -1.9270   -2.9450 c3        1 JZY      0.122900
     15 C15        -1.3390   -1.8070   -1.5950 c3        1 JZY      0.146800
     16 C16         3.3980    0.1660    1.2430 cp        1 JZY     -0.442100
     17 C17         4.1830   -0.9070    0.7650 ca        1 JZY      0.505200
     18 N18         5.5160   -0.9420    0.8450 nb        1 JZY     -0.761000
     19 C19         6.1200    0.1640    1.4470 ca        1 JZY      0.886900
     20 N20         5.4360    1.2830    1.9060 nb        1 JZY     -0.769000
     21 C21         4.0890    1.2700    1.8060 ca        1 JZY      0.531600
     22 C22         3.3400    2.4690    2.2930 c3        1 JZY     -0.157400
     23 N23         7.4970    0.1220    1.6460 nh        1 JZY     -0.934500
     24 C24        -3.6950    0.4270    3.3750 c3        1 JZY      0.237000
     25 N25        -3.7370    1.5630    4.2900 n3        1 JZY     -0.724600
     26 C26        -4.8690    1.4710    5.2040 c3        1 JZY      0.153300
     27 C27        -4.9520    2.6740    6.1690 c3        1 JZY      0.222300
     28 N28        -4.8540    3.9490    5.5090 n3        1 JZY     -0.824500
     29 C29        -3.7660    4.0450    4.5690 c3        1 JZY      0.222300
     30 C30        -3.6810    2.8450    3.6020 c3        1 JZY      0.153300
     31 S31        -5.9140    5.1540    5.7570 s6        1 JZY      1.460900
     32 O32        -5.9770    5.9940    4.6240 o         1 JZY     -0.653300
     33 O33        -7.1380    4.6370    6.2340 o         1 JZY     -0.653300
     34 C34        -5.2020    6.0470    7.0220 c3        1 JZY     -0.359300
     35 H9         -0.9070    0.7660    4.1280 ha        1 JZY      0.183000
     36 H11         0.9140    0.4600   -2.6860 h1        1 JZY      0.058700
     37 H11A        1.2120   -1.3420   -2.6530 h1        1 JZY      0.058700
     38 H12         0.3700   -0.8360   -4.8620 h1        1 JZY      0.058950
     39 H12A       -1.0060    0.1930   -4.2060 h1        1 JZY      0.058950
     40 H14        -2.5460   -2.9350   -3.0270 h1        1 JZY      0.058950
     41 H14A       -2.8260   -1.1160   -3.0610 h1        1 JZY      0.058950
     42 H15        -2.1170   -1.7300   -0.7820 h1        1 JZY      0.058700
     43 H15A       -0.7420   -2.7480   -1.4220 h1        1 JZY      0.058700
     44 H17         3.7130   -1.7890    0.2890 h4        1 JZY      0.037100
     45 H22         2.8980    2.2400    3.2950 hc        1 JZY      0.064367
     46 H22A        2.5160    2.7150    1.5800 hc        1 JZY      0.064367
     47 H22B        4.0020    3.3650    2.3960 hc        1 JZY      0.064367
     48 HN23        7.9550    0.9710    1.8780 hn        1 JZY      0.434800
     49 HN2A        8.0140   -0.5540    1.1360 hn        1 JZY      0.434800
     50 H24        -3.8040   -0.5100    3.9990 h1        1 JZY      0.048200
     51 H24A       -4.5610    0.4510    2.6450 h1        1 JZY      0.048200
     52 H26        -5.8490    1.3810    4.6510 h1        1 JZY      0.046200
     53 H26A       -4.7360    0.5440    5.8290 h1        1 JZY      0.046200
     54 H27        -4.1180    2.5840    6.9250 h1        1 JZY      0.061450
     55 H27A       -5.9390    2.6090    6.7120 h1        1 JZY      0.061450
     56 H29        -3.8940    4.9780    3.9460 h1        1 JZY      0.061450
     57 H29A       -2.7940    4.1200    5.1360 h1        1 JZY      0.061450
     58 H30        -2.6910    2.9020    3.0690 h1        1 JZY      0.046200
     59 H30A       -4.5000    2.9420    2.8310 h1        1 JZY      0.046200
     60 H34        -5.0790    5.4630    7.9650 h1        1 JZY      0.114033
     61 H34A       -4.1980    6.4620    6.7650 h1        1 JZY      0.114033
     62 H34B       -5.8460    6.9260    7.2810 h1        1 JZY      0.114033
@<TRIPOS>BOND
     1    1    2 ar  
     2    1    6 ar  
     3    1   10 1   
     4    2    3 ar  
     5    3    4 ar  
     6    3   16 1   
     7    4    5 ar  
     8    5    6 ar  
     9    5    9 1   
    10    6    7 1   
    11    7    8 1   
    12    8    9 2   
    13    8   24 1   
    14    9   35 1   
    15   10   11 1   
    16   10   15 1   
    17   11   12 1   
    18   11   36 1   
    19   11   37 1   
    20   12   13 1   
    21   12   38 1   
    22   12   39 1   
    23   13   14 1   
    24   14   15 1   
    25   14   40 1   
    26   14   41 1   
    27   15   42 1   
    28   15   43 1   
    29   16   17 ar  
    30   16   21 ar  
    31   17   18 ar  
    32   17   44 1   
    33   18   19 ar  
    34   19   20 ar  
    35   19   23 1   
    36   20   21 ar  
    37   21   22 1   
    38   22   45 1   
    39   22   46 1   
    40   22   47 1   
    41   23   48 1   
    42   23   49 1   
    43   24   25 1   
    44   24   50 1   
    45   24   51 1   
    46   25   26 1   
    47   25   30 1   
    48   26   27 1   
    49   26   52 1   
    50   26   53 1   
    51   27   28 1   
    52   27   54 1   
    53   27   55 1   
    54   28   29 1   
    55   28   31 1   
    56   29   30 1   
    57   29   56 1   
    58   29   57 1   
    59   30   58 1   
    60   30   59 1   
    61   31   32 2   
    62   31   33 2   
    63   31   34 1   
    64   34   60 1   
    65   34   61 1   
    66   34   62 1   
@<TRIPOS>SUBSTRUCTURE
     1 JZY         1 TEMP              0 ****  ****    0 ROOT
