@<TRIPOS>MOLECULE
JZY
   63    67     1     0     0
SMALL
bcc


@<TRIPOS>ATOM
      1 C1          0.1070   -0.4060   -0.2710 ca        1 JZY      0.724200
      2 N2          1.4550   -0.3260   -0.1190 nb        1 JZY     -0.758000
      3 C3          1.9410    0.0530    1.1160 cp        1 JZY      0.674500
      4 N4          1.2280    0.3360    2.2300 nb        1 JZY     -0.661000
      5 C5         -0.1230    0.2390    2.0870 ca        1 JZY      0.448100
      6 C6         -0.7540   -0.1280    0.8480 ca        1 JZY     -0.352700
      7 S7         -2.4140   -0.1080    0.9940 ss        1 JZY      0.159500
      8 C8         -2.3840    0.3300    2.6230 cc        1 JZY     -0.090600
      9 C9         -1.1120    0.4940    3.1110 cd        1 JZY     -0.227800
     10 N10        -0.4690   -0.6640   -1.5360 nh        1 JZY     -0.735300
     11 C11         0.4160   -0.6160   -2.6950 c3        1 JZY      0.151300
     12 C12        -0.3650   -0.7170   -4.0140 c3        1 JZY      0.120900
     13 O13        -1.2190   -1.8530   -4.0270 os        1 JZY     -0.400600
     14 C14        -2.1440   -1.8320   -2.9480 c3        1 JZY      0.120900
     15 C15        -1.4210   -1.7680   -1.5940 c3        1 JZY      0.151300
     16 C16         3.4200    0.1120    1.2180 cp        1 JZY     -0.276100
     17 C17         4.1820   -0.9870    0.7610 ca        1 JZY      0.482200
     18 N18         5.5270   -1.0200    0.8340 nb        1 JZY     -0.672000
     19 C19         6.0990    0.0980    1.3840 ca        1 JZY      0.682900
     20 N20         5.4730    1.2220    1.8450 nb        1 JZY     -0.683000
     21 C21         4.1150    1.2300    1.7580 ca        1 JZY      0.516600
     22 C22         3.3870    2.4410    2.2390 c3        1 JZY     -0.168400
     23 N23         7.5890    0.0910    1.4910 n4        1 JZY     -0.813300
     24 C24        -3.6450    0.4610    3.4020 c3        1 JZY      0.229000
     25 N25        -3.6650    1.6080    4.3010 n3        1 JZY     -0.724600
     26 C26        -4.7440    1.4980    5.2770 c3        1 JZY      0.149800
     27 C27        -4.8440    2.7280    6.2050 c3        1 JZY      0.223800
     28 N28        -4.8360    3.9820    5.4980 n3        1 JZY     -0.822500
     29 C29        -3.7790    4.0970    4.5280 c3        1 JZY      0.223800
     30 C30        -3.6800    2.8770    3.5860 c3        1 JZY      0.149800
     31 S31        -5.9990    5.1100    5.6820 s6        1 JZY      1.460900
     32 O32        -6.0580    5.9240    4.5310 o         1 JZY     -0.649300
     33 O33        -7.1970    4.4980    6.1000 o         1 JZY     -0.649300
     34 C34        -5.4200    6.0600    6.9680 c3        1 JZY     -0.362300
     35 H9         -0.8530    0.7820    4.1340 ha        1 JZY      0.190000
     36 H11         0.9680    0.3640   -2.6840 h1        1 JZY      0.057950
     37 H11A        1.1710   -1.4530   -2.6610 h1        1 JZY      0.057950
     38 H12        -0.9660    0.2130   -4.1940 h1        1 JZY      0.067700
     39 H12A        0.3470   -0.8890   -4.8640 h1        1 JZY      0.067700
     40 H14        -2.8480   -0.9670   -3.0650 h1        1 JZY      0.067700
     41 H14A       -2.7010   -2.8030   -3.0340 h1        1 JZY      0.067700
     42 H15        -2.1980   -1.6370   -0.7870 h1        1 JZY      0.057950
     43 H15A       -0.8960   -2.7520   -1.4200 h1        1 JZY      0.057950
     44 H17         3.7050   -1.8840    0.3110 h4        1 JZY      0.083100
     45 H22         4.0590    3.3310    2.3310 hc        1 JZY      0.089033
     46 H22A        2.9430    2.2260    3.2460 hc        1 JZY      0.089033
     47 H22B        2.5600    2.6880    1.5270 hc        1 JZY      0.089033
     48 HN23        7.9660    0.9070    0.9940 hn        1 JZY      0.478800
     49 HN2A        7.8520    0.1430    2.4820 hn        1 JZY      0.478800
     50 H24        -4.5160    0.4810    2.6780 h1        1 JZY      0.055700
     51 H24A       -3.7540   -0.4710    4.0350 h1        1 JZY      0.055700
     52 H26        -4.5330    0.6020    5.9250 h1        1 JZY      0.045950
     53 H26A       -5.7440    1.3390    4.7760 h1        1 JZY      0.045950
     54 H27        -3.9770    2.7050    6.9260 h1        1 JZY      0.063200
     55 H27A       -5.8040    2.6360    6.7900 h1        1 JZY      0.063200
     56 H29        -3.9530    5.0110    3.8890 h1        1 JZY      0.063200
     57 H29A       -2.7940    4.2160    5.0660 h1        1 JZY      0.063200
     58 H30        -2.7120    2.9590    3.0180 h1        1 JZY      0.045950
     59 H30A       -4.5270    2.9270    2.8410 h1        1 JZY      0.045950
     60 H34        -6.1580    6.8670    7.2140 h1        1 JZY      0.117033
     61 H34A       -4.4580    6.5800    6.7420 h1        1 JZY      0.117033
     62 H34B       -5.2630    5.4880    7.9140 h1        1 JZY      0.117033
     63 H233        7.9660   -0.7720    1.0770 hn        1 JZY      0.478800
@<TRIPOS>BOND
     1    1    2 ar  
     2    1    6 ar  
     3    1   10 1   
     4    2    3 ar  
     5    3    4 ar  
     6    3   16 1   
     7    4    5 ar  
     8    5    6 ar  
     9    5    9 1   
    10    6    7 1   
    11    7    8 1   
    12    8    9 2   
    13    8   24 1   
    14    9   35 1   
    15   10   11 1   
    16   10   15 1   
    17   11   12 1   
    18   11   36 1   
    19   11   37 1   
    20   12   13 1   
    21   12   38 1   
    22   12   39 1   
    23   13   14 1   
    24   14   15 1   
    25   14   40 1   
    26   14   41 1   
    27   15   42 1   
    28   15   43 1   
    29   16   17 ar  
    30   16   21 ar  
    31   17   18 ar  
    32   17   44 1   
    33   18   19 ar  
    34   19   20 ar  
    35   19   23 1   
    36   20   21 ar  
    37   21   22 1   
    38   22   45 1   
    39   22   46 1   
    40   22   47 1   
    41   23   48 1   
    42   23   49 1   
    43   23   63 1   
    44   24   25 1   
    45   24   50 1   
    46   24   51 1   
    47   25   26 1   
    48   25   30 1   
    49   26   27 1   
    50   26   52 1   
    51   26   53 1   
    52   27   28 1   
    53   27   54 1   
    54   27   55 1   
    55   28   29 1   
    56   28   31 1   
    57   29   30 1   
    58   29   56 1   
    59   29   57 1   
    60   30   58 1   
    61   30   59 1   
    62   31   32 2   
    63   31   33 2   
    64   31   34 1   
    65   34   60 1   
    66   34   61 1   
    67   34   62 1   
@<TRIPOS>SUBSTRUCTURE
     1 JZY         1 TEMP              0 ****  ****    0 ROOT
