@<TRIPOS>MOLECULE
JZZ
   46    48     1     0     0
SMALL
bcc


@<TRIPOS>ATOM
      1 N2          0.5400    0.1870   -0.0700 n         1 JZZ     -0.279500
      2 C3          1.5780   -0.7930    0.0740 cc        1 JZZ      0.544200
      3 O3          2.0850   -1.3890   -1.0550 os        1 JZZ     -0.381400
      4 N4          1.9500   -0.9960    1.3550 n2        1 JZZ     -0.563300
      5 N5          1.2020   -0.1490    2.1320 n         1 JZZ     -0.159800
      6 C6          0.1950    0.5120    1.3020 c         1 JZZ      0.724500
      7 O6         -0.6580    1.3210    1.6810 o         1 JZZ     -0.574500
      8 C7          0.7880   -0.5760    3.4570 c3        1 JZZ      0.068300
      9 C27         3.3650   -2.0140   -0.8830 c3        1 JZZ      0.122700
     10 CAA         0.8970    7.2400    1.2000 c3        1 JZZ     -0.085100
     11 CAB        -1.9340    3.8420   -2.7150 ca        1 JZZ     -0.101000
     12 CAC        -2.2790    2.6410   -3.2760 ca        1 JZZ     -0.129000
     13 CAD        -1.7680    1.4170   -2.7610 ca        1 JZZ     -0.029000
     14 CAE        -2.1240    0.1810   -3.3610 ca        1 JZZ     -0.113000
     15 CAF        -1.6180   -0.9970   -2.8740 ca        1 JZZ     -0.121000
     16 CAG         0.5910    8.3430   -1.0120 c3        1 JZZ     -0.085100
     17 CAH        -0.0730    7.4550    0.0390 c3        1 JZZ      0.028100
     18 CAI        -0.4230    6.1810   -0.5460 c1        1 JZZ     -0.097100
     19 CAK        -1.0560    3.8810   -1.5940 ca        1 JZZ      0.035000
     20 CAL        -0.5520    2.7010   -1.0730 ca        1 JZZ     -0.076000
     21 CAM        -0.8900    1.4460   -1.6460 ca        1 JZZ     -0.017000
     22 CAN        -0.3740    0.1930   -1.1520 ca        1 JZZ      0.057600
     23 CAO        -0.7420   -0.9970   -1.7690 ca        1 JZZ     -0.135000
     24 CAP        -1.3320    8.1480    0.5590 c3        1 JZZ     -0.085100
     25 H7          1.7090   -0.7550    4.0720 h1        1 JZZ      0.059700
     26 H7A         0.1900    0.2630    3.9020 h1        1 JZZ      0.059700
     27 H7B         0.1690   -1.5120    3.4440 h1        1 JZZ      0.059700
     28 H27         4.1110   -1.2810   -0.4940 h1        1 JZZ      0.059700
     29 H27A        3.2760   -2.8910   -0.1990 h1        1 JZZ      0.059700
     30 H27B        3.6190   -2.3370   -1.9240 h1        1 JZZ      0.059700
     31 HAA         1.1630    8.2250    1.6540 hc        1 JZZ      0.040922
     32 HAAA        0.4280    6.5980    1.9830 hc        1 JZZ      0.040922
     33 HAAB        1.8300    6.7450    0.8400 hc        1 JZZ      0.040922
     34 HAB        -2.3280    4.7890   -3.1150 ha        1 JZZ      0.141000
     35 HAC        -2.9620    2.6010   -4.1380 ha        1 JZZ      0.135000
     36 HAE        -2.8090    0.1890   -4.2220 ha        1 JZZ      0.137000
     37 HAF        -1.8850   -1.9600   -3.3350 ha        1 JZZ      0.138000
     38 HAG         1.5180    7.8580   -1.4000 hc        1 JZZ      0.040922
     39 HAGA       -0.1050    8.5220   -1.8650 hc        1 JZZ      0.040922
     40 HAGB        0.8620    9.3250   -0.5560 hc        1 JZZ      0.040922
     41 HAL         0.1060    2.7410   -0.1900 ha        1 JZZ      0.159000
     42 HAO        -0.3350   -1.9600   -1.4200 ha        1 JZZ      0.144000
     43 HAP        -1.0590    9.1300    1.0130 hc        1 JZZ      0.040922
     44 HAPA       -2.0500    8.3250   -0.2760 hc        1 JZZ      0.040922
     45 HAPB       -1.8290    7.5180    1.3340 hc        1 JZZ      0.040922
     46 CAJ        -0.7140    5.1230   -1.0300 cg        1 JZZ     -0.129000
@<TRIPOS>BOND
     1    1    2 1   
     2    1    6 1   
     3    1   22 1   
     4    2    3 1   
     5    2    4 2   
     6    3    9 1   
     7    4    5 1   
     8    5    6 1   
     9    5    8 1   
    10    6    7 2   
    11    8   25 1   
    12    8   26 1   
    13    8   27 1   
    14    9   28 1   
    15    9   29 1   
    16    9   30 1   
    17   10   17 1   
    18   10   31 1   
    19   10   32 1   
    20   10   33 1   
    21   11   12 ar  
    22   11   19 ar  
    23   11   34 1   
    24   12   13 ar  
    25   12   35 1   
    26   13   14 ar  
    27   13   21 ar  
    28   14   15 ar  
    29   14   36 1   
    30   15   23 ar  
    31   15   37 1   
    32   16   17 1   
    33   16   38 1   
    34   16   39 1   
    35   16   40 1   
    36   17   18 1   
    37   17   24 1   
    38   18   46 3   
    39   19   20 ar  
    40   19   46 1   
    41   20   21 ar  
    42   20   41 1   
    43   21   22 ar  
    44   22   23 ar  
    45   23   42 1   
    46   24   43 1   
    47   24   44 1   
    48   24   45 1   
@<TRIPOS>SUBSTRUCTURE
     1 JZZ         1 TEMP              0 ****  ****    0 ROOT
