@<TRIPOS>MOLECULE
JZZ
   46    48     1     0     0
SMALL
bcc


@<TRIPOS>ATOM
      1 N2          0.4590    0.4590   -0.1110 n         1 JZZ     -0.279500
      2 C3          1.5890   -0.4050    0.0790 cc        1 JZZ      0.544200
      3 O3          2.1490   -1.0110   -1.0190 os        1 JZZ     -0.381400
      4 N4          1.9840   -0.4970    1.3660 n2        1 JZZ     -0.562300
      5 N5          1.1590    0.3160    2.1010 n         1 JZZ     -0.159800
      6 C6          0.0890    0.8260    1.2440 c         1 JZZ      0.724500
      7 O6         -0.8380    1.5680    1.5850 o         1 JZZ     -0.574500
      8 C7          0.7940   -0.0740    3.4510 c3        1 JZZ      0.068300
      9 C27         3.4840   -1.4970   -0.8240 c3        1 JZZ      0.122700
     10 CAA        -0.7410    7.5840    1.1140 c3        1 JZZ     -0.085100
     11 CAB        -2.3720    3.6970   -2.9350 ca        1 JZZ     -0.101000
     12 CAC        -2.6000    2.4380   -3.4230 ca        1 JZZ     -0.129000
     13 CAD        -1.9680    1.3020   -2.8450 ca        1 JZZ     -0.029000
     14 CAE        -2.2040    0.0040   -3.3710 ca        1 JZZ     -0.113000
     15 CAF        -1.5820   -1.0890   -2.8230 ca        1 JZZ     -0.121000
     16 CAG         0.4310    8.1920   -0.9980 c3        1 JZZ     -0.085100
     17 CAH        -0.8610    7.6270   -0.4090 c3        1 JZZ      0.028100
     18 CAI        -1.0880    6.2930   -0.9180 c1        1 JZZ     -0.097100
     19 CAK        -1.4970    3.8850   -1.8270 ca        1 JZZ      0.035000
     20 CAL        -0.8780    2.7930   -1.2440 ca        1 JZZ     -0.076000
     21 CAM        -1.0930    1.4800   -1.7410 ca        1 JZZ     -0.017000
     22 CAN        -0.4540    0.3140   -1.1830 ca        1 JZZ      0.057600
     23 CAO        -0.7070   -0.9400   -1.7280 ca        1 JZZ     -0.135000
     24 CAP        -2.0280    8.5340   -0.7950 c3        1 JZZ     -0.085100
     25 H7          0.1180    0.7260    3.8540 h1        1 JZZ      0.059700
     26 H7A         1.7300   -0.1270    4.0680 h1        1 JZZ      0.059700
     27 H7B         0.2690   -1.0650    3.4970 h1        1 JZZ      0.059700
     28 H27         3.4850   -2.3380   -0.0910 h1        1 JZZ      0.059700
     29 H27A        3.7650   -1.8520   -1.8480 h1        1 JZZ      0.059700
     30 H27B        4.1560   -0.6730   -0.4840 h1        1 JZZ      0.059700
     31 HAA        -0.5660    8.6150    1.5050 hc        1 JZZ      0.040700
     32 HAAA       -1.6780    7.1810    1.5660 hc        1 JZZ      0.040700
     33 HAAB        0.1130    6.9340    1.4180 hc        1 JZZ      0.040700
     34 HAB        -2.8580    4.5760   -3.3840 ha        1 JZZ      0.141000
     35 HAC        -3.2780    2.2820   -4.2750 ha        1 JZZ      0.135000
     36 HAE        -2.8900   -0.1040   -4.2240 ha        1 JZZ      0.137000
     37 HAF        -1.7560   -2.0980   -3.2260 ha        1 JZZ      0.138000
     38 HAG         0.6050    9.2210   -0.6030 hc        1 JZZ      0.040700
     39 HAGA        1.2980    7.5480   -0.7200 hc        1 JZZ      0.040700
     40 HAGB        0.3610    8.2410   -2.1110 hc        1 JZZ      0.040700
     41 HAL        -0.2230    2.9470   -0.3710 ha        1 JZZ      0.159000
     42 HAO        -0.2060   -1.8370   -1.3280 ha        1 JZZ      0.144000
     43 HAP        -2.9820    8.1430   -0.3680 hc        1 JZZ      0.040700
     44 HAPA       -2.1270    8.5880   -1.9050 hc        1 JZZ      0.040700
     45 HAPB       -1.8510    9.5620   -0.3990 hc        1 JZZ      0.040700
     46 CAJ        -1.2760    5.1860   -1.3370 cg        1 JZZ     -0.129000
@<TRIPOS>BOND
     1    1    2 1   
     2    1    6 1   
     3    1   22 1   
     4    2    3 1   
     5    2    4 2   
     6    3    9 1   
     7    4    5 1   
     8    5    6 1   
     9    5    8 1   
    10    6    7 2   
    11    8   25 1   
    12    8   26 1   
    13    8   27 1   
    14    9   28 1   
    15    9   29 1   
    16    9   30 1   
    17   10   17 1   
    18   10   31 1   
    19   10   32 1   
    20   10   33 1   
    21   11   12 ar  
    22   11   19 ar  
    23   11   34 1   
    24   12   13 ar  
    25   12   35 1   
    26   13   14 ar  
    27   13   21 ar  
    28   14   15 ar  
    29   14   36 1   
    30   15   23 ar  
    31   15   37 1   
    32   16   17 1   
    33   16   38 1   
    34   16   39 1   
    35   16   40 1   
    36   17   18 1   
    37   17   24 1   
    38   18   46 3   
    39   19   20 ar  
    40   19   46 1   
    41   20   21 ar  
    42   20   41 1   
    43   21   22 ar  
    44   22   23 ar  
    45   23   42 1   
    46   24   43 1   
    47   24   44 1   
    48   24   45 1   
@<TRIPOS>SUBSTRUCTURE
     1 JZZ         1 TEMP              0 ****  ****    0 ROOT
