@<TRIPOS>MOLECULE
JZZ
   46    48     1     0     0
SMALL
bcc


@<TRIPOS>ATOM
      1 N2          1.8700    0.7540   -0.1730 n         1 JZZ     -0.279500
      2 C3          2.8960    1.5260   -0.8150 cc        1 JZZ      0.544200
      3 O3          3.5050    1.0110   -1.9330 os        1 JZZ     -0.381400
      4 N4          3.1230    2.7160   -0.2220 n2        1 JZZ     -0.562300
      5 N5          2.2490    2.8170    0.8300 n         1 JZZ     -0.159800
      6 C6          1.5390    1.5490    0.9970 c         1 JZZ      0.724500
      7 O6          0.6960    1.2840    1.8600 o         1 JZZ     -0.574500
      8 C7          2.6660    3.5040    2.0390 c3        1 JZZ      0.068300
      9 C27         4.1870    1.9770   -2.7460 c3        1 JZZ      0.122700
     10 CAA        -5.4260    1.8420   -0.8360 c3        1 JZZ     -0.085100
     11 CAB        -1.9080   -2.7390   -0.2270 ca        1 JZZ     -0.101000
     12 CAC        -0.7270   -3.4270   -0.3150 ca        1 JZZ     -0.129000
     13 CAD         0.5220   -2.7440   -0.3130 ca        1 JZZ     -0.029000
     14 CAE         1.7380   -3.4700   -0.4180 ca        1 JZZ     -0.113000
     15 CAF         2.9400   -2.8110   -0.4320 ca        1 JZZ     -0.121000
     16 CAG        -6.5760   -0.2670   -0.1760 c3        1 JZZ     -0.085100
     17 CAH        -5.4170    0.6740    0.1490 c3        1 JZZ      0.028100
     18 CAI        -4.1630   -0.0390    0.0500 c1        1 JZZ     -0.097100
     19 CAK        -1.9000   -1.3180   -0.1230 ca        1 JZZ      0.035000
     20 CAL        -0.6960   -0.6340   -0.1110 ca        1 JZZ     -0.076000
     21 CAM         0.5390   -1.3280   -0.2120 ca        1 JZZ     -0.017000
     22 CAN         1.8170   -0.6590   -0.2260 ca        1 JZZ      0.057600
     23 CAO         2.9850   -1.4040   -0.3350 ca        1 JZZ     -0.135000
     24 CAP        -5.5910    1.2140    1.5690 c3        1 JZZ     -0.085100
     25 H7          2.8900    4.5720    1.7780 h1        1 JZZ      0.059700
     26 H7A         1.8050    3.4600    2.7580 h1        1 JZZ      0.059700
     27 H7B         3.5740    3.0460    2.5150 h1        1 JZZ      0.059700
     28 H27         3.4900    2.7910   -3.0560 h1        1 JZZ      0.059700
     29 H27A        5.0640    2.3930   -2.1950 h1        1 JZZ      0.059700
     30 H27B        4.5140    1.3660   -3.6250 h1        1 JZZ      0.059700
     31 HAA        -6.3940    2.3920   -0.7570 hc        1 JZZ      0.040700
     32 HAAA       -4.5920    2.5470   -0.6100 hc        1 JZZ      0.040700
     33 HAAB       -5.3090    1.4690   -1.8810 hc        1 JZZ      0.040700
     34 HAB        -2.8730   -3.2670   -0.2320 ha        1 JZZ      0.141000
     35 HAC        -0.7220   -4.5250   -0.3910 ha        1 JZZ      0.135000
     36 HAE         1.6940   -4.5670   -0.4920 ha        1 JZZ      0.137000
     37 HAF         3.8870   -3.3640   -0.5170 ha        1 JZZ      0.138000
     38 HAG        -6.4720   -0.6660   -1.2130 hc        1 JZZ      0.040700
     39 HAGA       -6.5930   -1.1230    0.5390 hc        1 JZZ      0.040700
     40 HAGB       -7.5420    0.2870   -0.0980 hc        1 JZZ      0.040700
     41 HAL        -0.7010    0.4620   -0.0040 ha        1 JZZ      0.159000
     42 HAO         3.9680   -0.9050   -0.3730 ha        1 JZZ      0.144000
     43 HAP        -6.5580    1.7680    1.6430 hc        1 JZZ      0.040700
     44 HAPA       -5.5980    0.3760    2.3040 hc        1 JZZ      0.040700
     45 HAPB       -4.7570    1.9090    1.8240 hc        1 JZZ      0.040700
     46 CAJ        -3.1230   -0.6280   -0.0310 cg        1 JZZ     -0.129000
@<TRIPOS>BOND
     1    1    2 1   
     2    1    6 1   
     3    1   22 1   
     4    2    3 1   
     5    2    4 2   
     6    3    9 1   
     7    4    5 1   
     8    5    6 1   
     9    5    8 1   
    10    6    7 2   
    11    8   25 1   
    12    8   26 1   
    13    8   27 1   
    14    9   28 1   
    15    9   29 1   
    16    9   30 1   
    17   10   17 1   
    18   10   31 1   
    19   10   32 1   
    20   10   33 1   
    21   11   12 ar  
    22   11   19 ar  
    23   11   34 1   
    24   12   13 ar  
    25   12   35 1   
    26   13   14 ar  
    27   13   21 ar  
    28   14   15 ar  
    29   14   36 1   
    30   15   23 ar  
    31   15   37 1   
    32   16   17 1   
    33   16   38 1   
    34   16   39 1   
    35   16   40 1   
    36   17   18 1   
    37   17   24 1   
    38   18   46 3   
    39   19   20 ar  
    40   19   46 1   
    41   20   21 ar  
    42   20   41 1   
    43   21   22 ar  
    44   22   23 ar  
    45   23   42 1   
    46   24   43 1   
    47   24   44 1   
    48   24   45 1   
@<TRIPOS>SUBSTRUCTURE
     1 JZZ         1 TEMP              0 ****  ****    0 ROOT
