@<TRIPOS>MOLECULE
JZZ
   46    43     1     0     0
SMALL
bcc


@<TRIPOS>ATOM
      1 N2          0.5140   -2.6100    0.1060 n         1 JZZ     -0.225000
      2 C3          0.5370   -3.1300    1.3710 c2        1 JZZ      0.128000
      3 O3         -0.6170   -3.3920    2.0230 os        1 JZZ     -0.171000
      4 N4          1.5980   -3.8040    1.6430 n1        1 JZZ     -0.151000
      5 N5          2.4920   -3.8420    0.6390 n2        1 JZZ     -0.186000
      6 C6          1.8260   -3.0390   -0.4820 c2        1 JZZ      0.320000
      7 O6          2.0860   -3.1080   -1.6410 o         1 JZZ     -0.305000
      8 C7          3.6020   -4.8000    0.4850 c3        1 JZZ     -0.087000
      9 C27        -0.4930   -3.3550    3.4330 c3        1 JZZ     -0.067000
     10 CAA         1.7510    4.5660    1.0540 c3        1 JZZ     -0.203000
     11 CAB        -2.1870    1.3000   -2.2230 c1        1 JZZ     -0.103000
     12 CAC        -2.6610    0.0640   -2.6470 c1        1 JZZ     -0.126000
     13 CAD        -2.1390   -1.1080   -2.0980 c1        1 JZZ     -0.028000
     14 CAE        -2.6030   -2.3680   -2.5410 c1        1 JZZ     -0.116000
     15 CAF        -2.0640   -3.5350   -2.0040 c1        1 JZZ     -0.116000
     16 CAG         0.5320    5.9870   -0.6530 c3        1 JZZ     -0.203000
     17 CAH         0.3820    4.8780    0.4560 c3        1 JZZ      0.055000
     18 CAI        -0.1930    3.6130   -0.1640 c1        1 JZZ     -0.127000
     19 CAJ        -0.6420    2.6130   -0.6510 c1        1 JZZ     -0.133000
     20 CAK        -1.1940    1.3690   -1.2510 c1        1 JZZ      0.037000
     21 CAL        -0.6820    0.2150   -0.7130 c2        1 JZZ     -0.080000
     22 CAM        -1.1640   -1.0390   -1.1450 c2        1 JZZ     -0.020000
     23 CAN        -0.6230   -2.2210   -0.6050 c2        1 JZZ      0.072000
     24 CAO        -1.0790   -3.4610   -1.0410 c1        1 JZZ     -0.129000
     25 CAP        -0.5740    5.3920    1.5860 c3        1 JZZ     -0.203000
     26 H7          3.5700   -5.2110   -0.4430 h1        1 JZZ      0.098667
     27 H7A         3.5190   -5.5150    1.1660 h1        1 JZZ      0.098667
     28 H7B         4.4310   -4.3430    0.6030 h1        1 JZZ      0.098667
     29 H27        -1.1880   -2.7880    3.8030 h1        1 JZZ      0.099667
     30 H27A       -0.5880   -4.2930    3.8080 h1        1 JZZ      0.099667
     31 H27B        0.4080   -2.9870    3.6800 h1        1 JZZ      0.099667
     32 HAA         2.1010    5.3850    1.5520 hc        1 JZZ      0.080111
     33 HAAA        1.6660    3.7980    1.6920 hc        1 JZZ      0.080111
     34 HAAB        2.3590    4.3320    0.3560 hc        1 JZZ      0.080111
     35 HAB        -2.5540    2.0870   -2.5730 ha        1 JZZ      0.141000
     36 HAC        -3.3370    0.0160   -3.3080 ha        1 JZZ      0.136000
     37 HAE        -3.2910   -2.4180   -3.2120 ha        1 JZZ      0.138500
     38 HAF        -2.3730   -4.3780   -2.2980 ha        1 JZZ      0.138500
     39 HAG         0.6130    6.9030   -0.2090 hc        1 JZZ      0.080111
     40 HAGA        1.3410    5.8100   -1.1870 hc        1 JZZ      0.080111
     41 HAGB       -0.2050    5.9770   -1.2000 hc        1 JZZ      0.080111
     42 HAL         0.0340    0.2620   -0.0120 ha        1 JZZ      0.152000
     43 HAO        -0.6840   -4.3160   -0.6470 ha        1 JZZ      0.146000
     44 HAP        -0.1240    5.2900    2.4760 hc        1 JZZ      0.080111
     45 HAPA       -1.3290    4.9110    1.5780 hc        1 JZZ      0.080111
     46 HAPB       -0.7760    6.2930    1.4410 hc        1 JZZ      0.080111
@<TRIPOS>BOND
     1    1    2 1   
     2    1    6 1   
     3    1   23 1   
     4    2    3 1   
     5    2    4 1   
     6    3    9 1   
     7    5    6 1   
     8    5    8 1   
     9    6    7 1   
    10    8   26 1   
    11    8   27 1   
    12    8   28 1   
    13    9   29 1   
    14    9   30 1   
    15    9   31 1   
    16   10   17 1   
    17   10   32 1   
    18   10   33 1   
    19   10   34 1   
    20   11   20 1   
    21   11   35 1   
    22   12   13 1   
    23   12   36 1   
    24   13   22 1   
    25   14   15 1   
    26   14   37 1   
    27   15   38 1   
    28   16   17 1   
    29   16   39 1   
    30   16   40 1   
    31   16   41 1   
    32   17   18 1   
    33   17   25 1   
    34   18   19 1   
    35   20   21 1   
    36   21   22 1   
    37   21   42 1   
    38   22   23 1   
    39   23   24 1   
    40   24   43 1   
    41   25   44 1   
    42   25   45 1   
    43   25   46 1   
@<TRIPOS>SUBSTRUCTURE
     1 JZZ         1 TEMP              0 ****  ****    0 ROOT
