@<TRIPOS>MOLECULE
JZZ
   46    48     1     0     0
SMALL
bcc


@<TRIPOS>ATOM
      1 N2          0.4490    0.1780   -0.0110 n         1 JZZ     -0.279500
      2 C3          1.4480   -0.8240    0.2270 cc        1 JZZ      0.544200
      3 O3          2.0340   -1.4400   -0.8520 os        1 JZZ     -0.381400
      4 N4          1.7050   -1.0250    1.5360 n2        1 JZZ     -0.562300
      5 N5          0.9140   -0.1540    2.2420 n         1 JZZ     -0.159800
      6 C6         -0.0040    0.5230    1.3250 c         1 JZZ      0.724500
      7 O6         -0.8660    1.3540    1.6250 o         1 JZZ     -0.574500
      8 C7          0.3800   -0.5610    3.5290 c3        1 JZZ      0.068300
      9 C27         3.2800   -2.0920   -0.5680 c3        1 JZZ      0.122700
     10 CAA         1.4900    7.5010    0.3350 c3        1 JZZ     -0.085100
     11 CAB        -1.7060    3.8680   -2.8790 ca        1 JZZ     -0.101000
     12 CAC        -2.0310    2.6700   -3.4590 ca        1 JZZ     -0.129000
     13 CAD        -1.5940    1.4390   -2.8950 ca        1 JZZ     -0.029000
     14 CAE        -1.9270    0.2060   -3.5150 ca        1 JZZ     -0.113000
     15 CAF        -1.4920   -0.9790   -2.9800 ca        1 JZZ     -0.121000
     16 CAG        -0.3300    8.5950   -0.9660 c3        1 JZZ     -0.085100
     17 CAH        -0.0000    7.4590    0.0010 c3        1 JZZ      0.028100
     18 CAI        -0.3300    6.1890   -0.6050 c1        1 JZZ     -0.097100
     19 CAK        -0.9250    3.8950   -1.6880 ca        1 JZZ      0.035000
     20 CAL        -0.4950    2.7090   -1.1180 ca        1 JZZ     -0.076000
     21 CAM        -0.8130    1.4570   -1.7100 ca        1 JZZ     -0.017000
     22 CAN        -0.3700    0.1970   -1.1660 ca        1 JZZ      0.057600
     23 CAO        -0.7130   -0.9900   -1.8040 ca        1 JZZ     -0.135000
     24 CAP        -0.8080    7.6430    1.2850 c3        1 JZZ     -0.085100
     25 H7          1.2410   -0.7560    4.2220 h1        1 JZZ      0.059700
     26 H7A        -0.2340    0.2950    3.9170 h1        1 JZZ      0.059700
     27 H7B        -0.2580   -1.4820    3.4700 h1        1 JZZ      0.059700
     28 H27         4.0070   -1.3730   -0.1220 h1        1 JZZ      0.059700
     29 H27A        3.1130   -2.9610    0.1120 h1        1 JZZ      0.059700
     30 H27B        3.6140   -2.4290   -1.5820 h1        1 JZZ      0.059700
     31 HAA         1.7420    8.4820    0.8040 hc        1 JZZ      0.040700
     32 HAAA        1.7500    6.6830    1.0490 hc        1 JZZ      0.040700
     33 HAAB        2.1000    7.3770   -0.5910 hc        1 JZZ      0.040700
     34 HAB        -2.0430    4.8190   -3.3170 ha        1 JZZ      0.141000
     35 HAC        -2.6390    2.6380   -4.3760 ha        1 JZZ      0.135000
     36 HAE        -2.5370    0.2230   -4.4320 ha        1 JZZ      0.137000
     37 HAF        -1.7420   -1.9390   -3.4560 ha        1 JZZ      0.138000
     38 HAG         0.2570    8.4850   -1.9090 hc        1 JZZ      0.040700
     39 HAGA       -1.4170    8.5890   -1.2160 hc        1 JZZ      0.040700
     40 HAGB       -0.0740    9.5750   -0.4950 hc        1 JZZ      0.040700
     41 HAL         0.0860    2.7410   -0.1830 ha        1 JZZ      0.159000
     42 HAO        -0.3600   -1.9590   -1.4160 ha        1 JZZ      0.144000
     43 HAP        -0.5500    8.6220    1.7540 hc        1 JZZ      0.040700
     44 HAPA       -1.9010    7.6270    1.0620 hc        1 JZZ      0.040700
     45 HAPB       -0.5770    6.8250    2.0090 hc        1 JZZ      0.040700
     46 CAJ        -0.6030    5.1340   -1.1040 cg        1 JZZ     -0.129000
@<TRIPOS>BOND
     1    1    2 1   
     2    1    6 1   
     3    1   22 1   
     4    2    3 1   
     5    2    4 2   
     6    3    9 1   
     7    4    5 1   
     8    5    6 1   
     9    5    8 1   
    10    6    7 2   
    11    8   25 1   
    12    8   26 1   
    13    8   27 1   
    14    9   28 1   
    15    9   29 1   
    16    9   30 1   
    17   10   17 1   
    18   10   31 1   
    19   10   32 1   
    20   10   33 1   
    21   11   12 ar  
    22   11   19 ar  
    23   11   34 1   
    24   12   13 ar  
    25   12   35 1   
    26   13   14 ar  
    27   13   21 ar  
    28   14   15 ar  
    29   14   36 1   
    30   15   23 ar  
    31   15   37 1   
    32   16   17 1   
    33   16   38 1   
    34   16   39 1   
    35   16   40 1   
    36   17   18 1   
    37   17   24 1   
    38   18   46 3   
    39   19   20 ar  
    40   19   46 1   
    41   20   21 ar  
    42   20   41 1   
    43   21   22 ar  
    44   22   23 ar  
    45   23   42 1   
    46   24   43 1   
    47   24   44 1   
    48   24   45 1   
@<TRIPOS>SUBSTRUCTURE
     1 JZZ         1 TEMP              0 ****  ****    0 ROOT
