@<TRIPOS>MOLECULE
Y
   51    54     1     0     0
SMALL
bcc


@<TRIPOS>ATOM
      1 P          -1.2040    1.5440    5.7630 p5        1 Y        1.330900
      2 OP1        -2.0920    2.0580    4.6670 o         1 Y       -0.929500
      3 OP2        -1.7600    1.4480    7.1480 o         1 Y       -0.929500
      4 OP3         0.2460    1.9660    5.6270 o         1 Y       -0.929500
      5 O5'        -1.0070   -0.1260    5.2790 os        1 Y       -0.552200
      6 C5'        -0.5800   -0.2730    3.9910 c3        1 Y        0.226400
      7 C4'         0.9280   -0.6180    3.9510 c3        1 Y        0.051100
      8 O4'         1.1910   -1.5470    2.8620 os        1 Y       -0.434600
      9 C3'         1.8440    0.6060    3.7540 c3        1 Y        0.156100
     10 O3'         2.6460    0.8330    4.8910 oh        1 Y       -0.670800
     11 C2'         2.7580    0.2430    2.5740 c3        1 Y       -0.130400
     12 C1'         2.1000   -0.9940    1.9290 c3        1 Y        0.254800
     13 N9          1.3930   -0.7050    0.6760 na        1 Y       -0.256000
     14 C8          0.0570   -0.2740    0.5240 cc        1 Y        0.467700
     15 N7         -0.3230   -0.1340   -0.7610 nd        1 Y       -0.594100
     16 C5          0.8040   -0.4850   -1.5140 ca        1 Y       -0.203200
     17 C6          1.0600   -0.5360   -2.9200 ca        1 Y        0.697200
     18 N6          0.0050   -0.2940   -3.8080 nh        1 Y       -0.835900
     19 N1          2.3080   -0.8860   -3.3590 nb        1 Y       -0.802000
     20 C2          3.2350   -1.2140   -2.4120 ca        1 Y        0.639900
     21 N3          3.1400   -1.2330   -1.0680 nb        1 Y       -0.708000
     22 C4          1.9040   -0.8550   -0.6150 ca        1 Y        0.428800
     23 CA          0.2720    0.1130   -5.1720 c3        1 Y        0.222800
     24 CB          0.9190    1.5140   -5.3140 c3        1 Y        0.100400
     25 OB          0.2180    2.5340   -4.6340 oh        1 Y       -0.606800
     26 CJ         -0.9880    0.0430   -6.0030 ca        1 Y       -0.081300
     27 CO         -1.1080   -0.9360   -6.9950 ca        1 Y       -0.110500
     28 CO'        -2.0400    0.9390   -5.7860 ca        1 Y       -0.110500
     29 CM         -2.2640   -1.0080   -7.7710 ca        1 Y       -0.138000
     30 CM'        -3.1960    0.8610   -6.5610 ca        1 Y       -0.138000
     31 CP         -3.3100   -0.1110   -7.5550 ca        1 Y       -0.134000
     32 H5'        -0.7730    0.6640    3.3920 h1        1 Y       -0.004800
     33 H5''       -1.1240   -1.1370    3.5030 h1        1 Y       -0.004800
     34 H4'         1.2090   -1.1760    4.8840 h1        1 Y        0.081700
     35 H3'         1.2350    1.5280    3.5350 h1        1 Y        0.105700
     36 HO3'        2.0510    1.2810    5.5370 ho        1 Y        0.501000
     37 H2'         3.7740   -0.0410    2.9420 hc        1 Y        0.054200
     38 H2''        2.8650    1.0990    1.8680 hc        1 Y        0.054200
     39 H1'         2.8500   -1.8020    1.6840 h2        1 Y        0.070700
     40 H8         -0.5730   -0.0850    1.4170 h5        1 Y        0.130800
     41 H6         -0.7910    0.1440   -3.3910 hn        1 Y        0.436800
     42 H2          4.2240   -1.5050   -2.8230 h5        1 Y        0.030100
     43 HA          1.0210   -0.6200   -5.6070 h1        1 Y        0.083700
     44 HB1         0.8920    1.8230   -6.3930 h1        1 Y        0.053200
     45 HB2         1.9830    1.4680   -4.9600 h1        1 Y        0.053200
     46 HB          0.3470    2.3990   -3.6860 ho        1 Y        0.413000
     47 HO         -0.2920   -1.6560   -7.1580 ha        1 Y        0.144500
     48 HO'        -1.9400    1.7160   -5.0100 ha        1 Y        0.144500
     49 HM         -2.3530   -1.7790   -8.5490 ha        1 Y        0.125000
     50 HM'        -4.0210    1.5660   -6.3830 ha        1 Y        0.125000
     51 HP         -4.2230   -0.1730   -8.1620 ha        1 Y        0.120000
@<TRIPOS>BOND
     1    1    2 1   
     2    1    3 1   
     3    1    4 1   
     4    1    5 1   
     5    5    6 1   
     6    6    7 1   
     7    6   32 1   
     8    6   33 1   
     9    7    8 1   
    10    7    9 1   
    11    7   34 1   
    12    8   12 1   
    13    9   10 1   
    14    9   11 1   
    15    9   35 1   
    16   10   36 1   
    17   11   12 1   
    18   11   37 1   
    19   11   38 1   
    20   12   13 1   
    21   12   39 1   
    22   13   14 1   
    23   13   22 1   
    24   14   15 2   
    25   14   40 1   
    26   15   16 1   
    27   16   17 ar  
    28   16   22 ar  
    29   17   18 1   
    30   17   19 ar  
    31   18   23 1   
    32   18   41 1   
    33   19   20 ar  
    34   20   21 ar  
    35   20   42 1   
    36   21   22 ar  
    37   23   24 1   
    38   23   26 1   
    39   23   43 1   
    40   24   25 1   
    41   24   44 1   
    42   24   45 1   
    43   25   46 1   
    44   26   27 ar  
    45   26   28 ar  
    46   27   29 ar  
    47   27   47 1   
    48   28   30 ar  
    49   28   48 1   
    50   29   31 ar  
    51   29   49 1   
    52   30   31 ar  
    53   30   50 1   
    54   31   51 1   
@<TRIPOS>SUBSTRUCTURE
     1 Y           1 TEMP              0 ****  ****    0 ROOT
