@<TRIPOS>MOLECULE
Y00
   45    46     1     0     0
SMALL
bcc


@<TRIPOS>ATOM
      1 O3          8.3350    0.6680    0.5650 oh        1 Y00     -0.499100
      2 C16         6.9950    0.5520    0.2690 ca        1 Y00      0.119100
      3 C15         6.5050    0.5630   -1.0440 ca        1 Y00     -0.183500
      4 C14         5.1350    0.4400   -1.2600 ca        1 Y00     -0.093500
      5 C17         6.1210    0.4200    1.3610 ca        1 Y00     -0.183500
      6 C18         4.7580    0.2990    1.1220 ca        1 Y00     -0.093500
      7 C13         4.2510    0.3060   -0.1860 ca        1 Y00     -0.112300
      8 C12         2.7850    0.1830   -0.4180 c3        1 Y00     -0.030100
      9 C11         2.3090   -1.2400   -0.2080 c3        1 Y00     -0.067400
     10 C9          0.8120   -1.4020   -0.5240 c3        1 Y00      0.172500
     11 C10         0.5020   -2.9010   -0.5800 c3        1 Y00     -0.131100
     12 N1         -0.0110   -0.6350    0.4030 n3        1 Y00     -0.824200
     13 C8         -1.3930   -0.4920   -0.0080 c3        1 Y00      0.166800
     14 C1         -2.2440    0.2380    1.0360 c3        1 Y00     -0.038100
     15 C2         -3.6260    0.4450    0.5250 ca        1 Y00     -0.080300
     16 C7         -4.6820   -0.3320    1.0140 ca        1 Y00     -0.167000
     17 C6         -5.9760   -0.1210    0.5350 ca        1 Y00      0.040100
     18 O1         -7.0720   -0.8440    0.9640 oh        1 Y00     -0.518100
     19 C5         -6.2270    0.8690   -0.4400 ca        1 Y00      0.109100
     20 O2         -7.4790    1.1180   -0.9470 oh        1 Y00     -0.494100
     21 C4         -5.1650    1.6440   -0.9240 ca        1 Y00     -0.131000
     22 C3         -3.8780    1.4270   -0.4400 ca        1 Y00     -0.123000
     23 H3          8.8160    0.7580   -0.2700 ho        1 Y00      0.418000
     24 H15         7.1950    0.6690   -1.8930 ha        1 Y00      0.140500
     25 H17         6.5260    0.4160    2.3820 ha        1 Y00      0.140500
     26 H14         4.7470    0.4500   -2.2910 ha        1 Y00      0.133500
     27 H18         4.0630    0.1970    1.9700 ha        1 Y00      0.133500
     28 H121        2.2400    0.8720    0.2820 hc        1 Y00      0.055700
     29 H122        2.5340    0.5080   -1.4630 hc        1 Y00      0.055700
     30 H111        2.8800   -1.9290   -0.8850 hc        1 Y00      0.043700
     31 H112        2.5180   -1.5570    0.8470 hc        1 Y00      0.043700
     32 H9          0.6290   -0.9730   -1.5550 h1        1 Y00      0.056700
     33 H101       -0.5670   -3.0790   -0.8470 hc        1 Y00      0.038367
     34 H102        1.1420   -3.3870   -1.3540 hc        1 Y00      0.038367
     35 H103        0.7090   -3.3850    0.4050 hc        1 Y00      0.038367
     36 H1          0.0480   -1.0260    1.3240 hn        1 Y00      0.354800
     37 H81C       -1.4040    0.1050   -0.9640 h1        1 Y00      0.033700
     38 H82C       -1.8840   -1.4850   -0.2290 h1        1 Y00      0.033700
     39 H11C       -2.2680   -0.3540    1.9890 hc        1 Y00      0.054200
     40 H12C       -1.7820    1.2340    1.2730 hc        1 Y00      0.054200
     41 H7         -4.4980   -1.1050    1.7740 ha        1 Y00      0.134000
     42 HA         -3.0460    2.0380   -0.8210 ha        1 Y00      0.140000
     43 HB         -6.7690   -1.4660    1.6390 ho        1 Y00      0.428000
     44 H2         -8.1030    0.5160   -0.5130 ho        1 Y00      0.437000
     45 H4         -5.3660    2.4150   -1.6820 ha        1 Y00      0.154000
@<TRIPOS>BOND
     1    1    2 1   
     2    1   23 1   
     3    2    3 ar  
     4    2    5 ar  
     5    3    4 ar  
     6    3   24 1   
     7    4    7 ar  
     8    4   26 1   
     9    5    6 ar  
    10    5   25 1   
    11    6    7 ar  
    12    6   27 1   
    13    7    8 1   
    14    8    9 1   
    15    8   28 1   
    16    8   29 1   
    17    9   10 1   
    18    9   30 1   
    19    9   31 1   
    20   10   11 1   
    21   10   12 1   
    22   10   32 1   
    23   11   33 1   
    24   11   34 1   
    25   11   35 1   
    26   12   13 1   
    27   12   36 1   
    28   13   14 1   
    29   13   37 1   
    30   13   38 1   
    31   14   15 1   
    32   14   39 1   
    33   14   40 1   
    34   15   16 ar  
    35   15   22 ar  
    36   16   17 ar  
    37   16   41 1   
    38   17   18 1   
    39   17   19 ar  
    40   18   43 1   
    41   19   20 1   
    42   19   21 ar  
    43   20   44 1   
    44   21   22 ar  
    45   21   45 1   
    46   22   42 1   
@<TRIPOS>SUBSTRUCTURE
     1 Y00         1 TEMP              0 ****  ****    0 ROOT
