@<TRIPOS>MOLECULE
Y00
   45    42     1     0     0
SMALL
bcc


@<TRIPOS>ATOM
      1 O3         -8.0370   -1.6510    2.1560 oh        1 Y00     -0.252000
      2 C16        -6.6850   -1.2900    1.9940 c2        1 Y00      0.076000
      3 C15        -5.6860   -2.2360    2.1830 c2        1 Y00     -0.212000
      4 C14        -4.3520   -1.8720    2.0620 c1        1 Y00     -0.089000
      5 C17        -6.3500    0.0190    1.6840 c1        1 Y00     -0.154000
      6 C18        -5.0150    0.3850    1.5620 c1        1 Y00     -0.094000
      7 C13        -4.0160   -0.5600    1.7510 c1        1 Y00     -0.107000
      8 C12        -2.5360   -0.1300    1.7270 c3        1 Y00     -0.117000
      9 C11        -1.9410   -0.4180    0.3420 c3        1 Y00     -0.154000
     10 C9         -0.4150   -0.3780    0.4230 c3        1 Y00     -0.023000
     11 C10         0.1040   -1.7540    0.6940 c3        1 Y00     -0.249000
     12 N1          0.1180    0.0990   -0.8190 n3        1 Y00     -0.302000
     13 C8          1.4590    0.6060   -0.6060 c3        1 Y00     -0.070000
     14 C1          2.0770    1.0070   -1.9560 c3        1 Y00     -0.124000
     15 C2          3.5930    1.2030   -1.7890 c2        1 Y00     -0.068000
     16 C7          4.4660    0.1840   -2.1450 c2        1 Y00     -0.182000
     17 C6          5.8370    0.4000   -2.1070 c1        1 Y00      0.057000
     18 O1          6.7260   -0.6540   -2.4120 o         1 Y00     -0.229000
     19 C5          6.3340    1.6340   -1.7130 c2        1 Y00      0.054000
     20 O2          7.7300    1.8440   -1.6460 oh        1 Y00     -0.229000
     21 C4          5.4620    2.6520   -1.3570 c1        1 Y00     -0.182000
     22 C3          4.0910    2.4360   -1.3950 c1        1 Y00     -0.122000
     23 H3         -8.2620   -1.5830    3.0180 ho        1 Y00      0.217000
     24 H15        -5.9210   -3.1570    2.4010 ha        1 Y00      0.132000
     25 H17        -7.0520    0.6840    1.5510 ha        1 Y00      0.150000
     26 H14        -3.6530   -2.5340    2.1950 ha        1 Y00      0.132000
     27 H18        -4.7810    1.3030    1.3450 ha        1 Y00      0.137000
     28 H121       -2.4720    0.8270    1.9170 hc        1 Y00      0.086000
     29 H122       -2.0400   -0.6320    2.4060 hc        1 Y00      0.086000
     30 H111       -2.2510    0.2570   -0.2920 hc        1 Y00      0.092000
     31 H112       -2.2280   -1.3040    0.0410 hc        1 Y00      0.092000
     32 H9         -0.1430    0.2210    1.1460 h1        1 Y00      0.096000
     33 H101       -0.6410   -2.3890    0.6980 hc        1 Y00      0.077333
     34 H102        0.7430   -2.0050   -0.0060 hc        1 Y00      0.077333
     35 H103        0.5510   -1.7690    1.5640 hc        1 Y00      0.077333
     36 H1          0.1450   -0.5880   -1.4240 hn        1 Y00      0.151000
     37 H81C        2.0090   -0.0890   -0.1890 h1        1 Y00      0.072500
     38 H82C        1.4220    1.3880   -0.0200 h1        1 Y00      0.072500
     39 H11C        1.9100    0.3000   -2.6150 hc        1 Y00      0.094000
     40 H12C        1.6730    1.8410   -2.2650 hc        1 Y00      0.094000
     41 H7          4.1160   -0.6730   -2.4580 ha        1 Y00      0.136000
     42 HA          3.4770    3.1530   -1.1440 ha        1 Y00      0.139000
     43 HB          6.6730   -0.8440   -3.2730 ho        1 Y00      0.213000
     44 H2          7.9500    2.5430   -2.1520 ho        1 Y00      0.214000
     45 H4          5.8130    3.5230   -1.0790 ha        1 Y00      0.136000
@<TRIPOS>BOND
     1    1    2 1   
     2    1   23 1   
     3    2    3 1   
     4    2    5 1   
     5    3    4 1   
     6    3   24 1   
     7    4   26 1   
     8    5   25 1   
     9    6    7 1   
    10    6   27 1   
    11    7    8 1   
    12    8    9 1   
    13    8   28 1   
    14    8   29 1   
    15    9   10 1   
    16    9   30 1   
    17    9   31 1   
    18   10   11 1   
    19   10   12 1   
    20   10   32 1   
    21   11   33 1   
    22   11   34 1   
    23   11   35 1   
    24   12   13 1   
    25   12   36 1   
    26   13   14 1   
    27   13   37 1   
    28   13   38 1   
    29   14   15 1   
    30   14   39 1   
    31   14   40 1   
    32   15   16 1   
    33   15   22 1   
    34   16   17 1   
    35   16   41 1   
    36   17   19 1   
    37   18   43 1   
    38   19   20 1   
    39   19   21 1   
    40   20   44 1   
    41   21   45 1   
    42   22   42 1   
@<TRIPOS>SUBSTRUCTURE
     1 Y00         1 TEMP              0 ****  ****    0 ROOT
