@<TRIPOS>MOLECULE
Y00
   46    47     1     0     0
SMALL
bcc


@<TRIPOS>ATOM
      1 O3         -0.1830   -0.4570    0.3670 oh        1 Y00     -0.482100
      2 C16         1.1810   -0.3440    0.3000 ca        1 Y00      0.152100
      3 C15         1.9860   -0.1150    1.4250 ca        1 Y00     -0.178500
      4 C14         3.3660   -0.0150    1.2680 ca        1 Y00     -0.081500
      5 C17         1.7550   -0.4690   -0.9800 ca        1 Y00     -0.178500
      6 C18         3.1320   -0.3650   -1.1140 ca        1 Y00     -0.081500
      7 C13         3.9480   -0.1410    0.0040 ca        1 Y00     -0.158300
      8 C12         5.4220   -0.0210   -0.1620 c3        1 Y00     -0.027100
      9 C11         6.0540   -1.3870   -0.3570 c3        1 Y00     -0.117400
     10 C9          7.5850   -1.3520   -0.3180 c3        1 Y00      0.128500
     11 C10         8.1330   -2.7700   -0.2470 c3        1 Y00     -0.132100
     12 N1          8.1390   -0.6060   -1.5110 n4        1 Y00     -0.769000
     13 C8          9.5260   -0.1040   -1.2880 c3        1 Y00      0.098800
     14 C1         10.1010    0.5980   -2.5200 c3        1 Y00     -0.044100
     15 C2         11.5080    0.9930   -2.2370 ca        1 Y00     -0.125300
     16 C7         12.5010    0.0060   -2.1990 ca        1 Y00     -0.139000
     17 C6         13.8280    0.3670   -1.9500 ca        1 Y00      0.127100
     18 O1         14.7550   -0.6410   -1.9070 oh        1 Y00     -0.485100
     19 C5         14.1570    1.7300   -1.7470 ca        1 Y00      0.075100
     20 O2         15.4830    1.9950   -1.5060 oh        1 Y00     -0.501100
     21 C4         13.1610    2.7080   -1.7950 ca        1 Y00     -0.165000
     22 C3         11.8390    2.3350   -2.0380 ca        1 Y00     -0.109000
     23 H3         -0.4560   -0.3390    1.2900 ho        1 Y00      0.431000
     24 H15         1.5320   -0.0130    2.4220 ha        1 Y00      0.156000
     25 H17         1.1040   -0.6430   -1.8500 ha        1 Y00      0.156000
     26 H14         3.9960    0.1700    2.1520 ha        1 Y00      0.129500
     27 H18         3.5850   -0.4560   -2.1130 ha        1 Y00      0.129500
     28 H121        5.8690    0.4760    0.7410 hc        1 Y00      0.041700
     29 H122        5.6310    0.6400   -1.0470 hc        1 Y00      0.041700
     30 H111        5.7220   -2.0640    0.4780 hc        1 Y00      0.088700
     31 H112        5.6910   -1.8480   -1.3130 hc        1 Y00      0.088700
     32 H9          7.9170   -0.7730    0.5970 hx        1 Y00      0.106700
     33 H101        7.7530   -3.2470    0.6920 hc        1 Y00      0.077367
     34 H102        9.2490   -2.7840   -0.2130 hc        1 Y00      0.077367
     35 H103        7.7850   -3.3850   -1.1130 hc        1 Y00      0.077367
     36 H1          7.5230    0.1900   -1.7160 hn        1 Y00      0.447300
     37 H81C        9.5040    0.6110   -0.4160 hx        1 Y00      0.109200
     38 H82C       10.1790   -0.9830   -1.0140 hx        1 Y00      0.109200
     39 H11C       10.0790   -0.0920   -3.4080 hc        1 Y00      0.068700
     40 H12C        9.4860    1.5030   -2.7730 hc        1 Y00      0.068700
     41 H7         12.2630   -1.0530   -2.3770 ha        1 Y00      0.148000
     42 HA         11.0610    3.1120   -2.0800 ha        1 Y00      0.139000
     43 HB         15.6340   -0.2440   -1.7850 ho        1 Y00      0.452000
     44 H2         15.5990    2.9560   -1.4520 ho        1 Y00      0.444000
     45 H4         13.4190    3.7670   -1.6450 ha        1 Y00      0.154000
     46 H12         8.1310   -1.2290   -2.3250 hn        1 Y00      0.447300
@<TRIPOS>BOND
     1    1    2 1   
     2    1   23 1   
     3    2    3 ar  
     4    2    5 ar  
     5    3    4 ar  
     6    3   24 1   
     7    4    7 ar  
     8    4   26 1   
     9    5    6 ar  
    10    5   25 1   
    11    6    7 ar  
    12    6   27 1   
    13    7    8 1   
    14    8    9 1   
    15    8   28 1   
    16    8   29 1   
    17    9   10 1   
    18    9   30 1   
    19    9   31 1   
    20   10   11 1   
    21   10   12 1   
    22   10   32 1   
    23   11   33 1   
    24   11   34 1   
    25   11   35 1   
    26   12   13 1   
    27   12   36 1   
    28   12   46 1   
    29   13   14 1   
    30   13   37 1   
    31   13   38 1   
    32   14   15 1   
    33   14   39 1   
    34   14   40 1   
    35   15   16 ar  
    36   15   22 ar  
    37   16   17 ar  
    38   16   41 1   
    39   17   18 1   
    40   17   19 ar  
    41   18   43 1   
    42   19   20 1   
    43   19   21 ar  
    44   20   44 1   
    45   21   22 ar  
    46   21   45 1   
    47   22   42 1   
@<TRIPOS>SUBSTRUCTURE
     1 Y00         1 TEMP              0 ****  ****    0 ROOT
