@<TRIPOS>MOLECULE
Y00
   46    47     1     0     0
SMALL
bcc


@<TRIPOS>ATOM
      1 O3         -0.1880   -0.2970    0.3690 oh        1 Y00     -0.482100
      2 C16         1.1780   -0.2010    0.3000 ca        1 Y00      0.152100
      3 C15         1.9850    0.0400    1.4220 ca        1 Y00     -0.178500
      4 C14         3.3660    0.1200    1.2630 ca        1 Y00     -0.081500
      5 C17         1.7500   -0.3590   -0.9770 ca        1 Y00     -0.178500
      6 C18         3.1280   -0.2740   -1.1120 ca        1 Y00     -0.081500
      7 C13         3.9470   -0.0380    0.0020 ca        1 Y00     -0.158300
      8 C12         5.4220    0.0610   -0.1660 c3        1 Y00     -0.027100
      9 C11         6.0370   -1.3150   -0.3370 c3        1 Y00     -0.117400
     10 C9          7.5680   -1.2990   -0.2970 c3        1 Y00      0.128500
     11 C10         8.0980   -2.7230   -0.2020 c3        1 Y00     -0.132100
     12 N1          8.1320   -0.5810   -1.5020 ny        1 Y00     -0.769000
     13 C8          9.5260   -0.0930   -1.2870 c3        1 Y00      0.098800
     14 C1         10.1100    0.5800   -2.5300 c3        1 Y00     -0.044100
     15 C2         11.5220    0.9610   -2.2530 ca        1 Y00     -0.125300
     16 C7         12.5020   -0.0380   -2.1970 ca        1 Y00     -0.139000
     17 C6         13.8340    0.3100   -1.9540 ca        1 Y00      0.127100
     18 O1         14.7470   -0.7090   -1.8930 oh        1 Y00     -0.485100
     19 C5         14.1810    1.6720   -1.7740 ca        1 Y00      0.075100
     20 O2         15.5110    1.9230   -1.5370 oh        1 Y00     -0.501100
     21 C4         13.1980    2.6610   -1.8390 ca        1 Y00     -0.165000
     22 C3         11.8710    2.3020   -2.0760 ca        1 Y00     -0.109000
     23 H3         -0.4600   -0.1560    1.2900 ho        1 Y00      0.431000
     24 H15         1.5320    0.1670    2.4160 ha        1 Y00      0.156000
     25 H17         1.0970   -0.5420   -1.8430 ha        1 Y00      0.156000
     26 H14         3.9990    0.3150    2.1430 ha        1 Y00      0.129500
     27 H18         3.5800   -0.3900   -2.1090 ha        1 Y00      0.129500
     28 H121        5.6390    0.7040   -1.0630 hc        1 Y00      0.041700
     29 H122        5.8750    0.5690    0.7280 hc        1 Y00      0.041700
     30 H111        5.6960   -1.9740    0.5100 hc        1 Y00      0.088700
     31 H112        5.6690   -1.7890   -1.2850 hc        1 Y00      0.088700
     32 H9          7.9070   -0.7090    0.6080 hx        1 Y00      0.106700
     33 H101        7.7120   -3.1780    0.7460 hc        1 Y00      0.077367
     34 H102        9.2140   -2.7500   -0.1660 hc        1 Y00      0.077367
     35 H103        7.7440   -3.3480   -1.0570 hc        1 Y00      0.077367
     36 H1          7.5270    0.2200   -1.7210 hn        1 Y00      0.447300
     37 H81C       10.1670   -0.9750   -0.9960 hx        1 Y00      0.109200
     38 H82C        9.5120    0.6370   -0.4270 hx        1 Y00      0.109200
     39 H11C       10.0800   -0.1240   -3.4050 hc        1 Y00      0.068700
     40 H12C        9.5080    1.4890   -2.7990 hc        1 Y00      0.068700
     41 H7         12.2500   -1.0960   -2.3570 ha        1 Y00      0.148000
     42 HA         11.1040    3.0890   -2.1330 ha        1 Y00      0.139000
     43 HB         15.6310   -0.3220   -1.7770 ho        1 Y00      0.452000
     44 H2         15.6390    2.8830   -1.4990 ho        1 Y00      0.444000
     45 H4         13.4690    3.7200   -1.7080 ha        1 Y00      0.154000
     46 H12         8.1170   -1.2180   -2.3060 hn        1 Y00      0.447300
@<TRIPOS>BOND
     1    1    2 1   
     2    1   23 1   
     3    2    3 ar  
     4    2    5 ar  
     5    3    4 ar  
     6    3   24 1   
     7    4    7 ar  
     8    4   26 1   
     9    5    6 ar  
    10    5   25 1   
    11    6    7 ar  
    12    6   27 1   
    13    7    8 1   
    14    8    9 1   
    15    8   28 1   
    16    8   29 1   
    17    9   10 1   
    18    9   30 1   
    19    9   31 1   
    20   10   11 1   
    21   10   12 1   
    22   10   32 1   
    23   11   33 1   
    24   11   34 1   
    25   11   35 1   
    26   12   13 1   
    27   12   36 1   
    28   12   46 1   
    29   13   14 1   
    30   13   37 1   
    31   13   38 1   
    32   14   15 1   
    33   14   39 1   
    34   14   40 1   
    35   15   16 ar  
    36   15   22 ar  
    37   16   17 ar  
    38   16   41 1   
    39   17   18 1   
    40   17   19 ar  
    41   18   43 1   
    42   19   20 1   
    43   19   21 ar  
    44   20   44 1   
    45   21   22 ar  
    46   21   45 1   
    47   22   42 1   
@<TRIPOS>SUBSTRUCTURE
     1 Y00         1 TEMP              0 ****  ****    0 ROOT
