@<TRIPOS>MOLECULE
Y00
   46    47     1     0     0
SMALL
bcc


@<TRIPOS>ATOM
      1 O3         -0.1870   -0.3000    0.3740 oh        1 Y00     -0.482100
      2 C16         1.1780   -0.2030    0.3030 ca        1 Y00      0.152100
      3 C15         1.9860    0.0460    1.4220 ca        1 Y00     -0.178500
      4 C14         3.3670    0.1280    1.2610 ca        1 Y00     -0.081500
      5 C17         1.7490   -0.3680   -0.9740 ca        1 Y00     -0.178500
      6 C18         3.1270   -0.2830   -1.1110 ca        1 Y00     -0.081500
      7 C13         3.9470   -0.0380   -0.0000 ca        1 Y00     -0.157300
      8 C12         5.4210    0.0620   -0.1700 c3        1 Y00     -0.027100
      9 C11         6.0380   -1.3150   -0.3350 c3        1 Y00     -0.117400
     10 C9          7.5690   -1.2970   -0.2940 c3        1 Y00      0.128500
     11 C10         8.1000   -2.7210   -0.1950 c3        1 Y00     -0.132100
     12 N1          8.1330   -0.5820   -1.5010 n4        1 Y00     -0.769000
     13 C8          9.5260   -0.0930   -1.2870 c3        1 Y00      0.098800
     14 C1         10.1100    0.5770   -2.5310 c3        1 Y00     -0.044100
     15 C2         11.5220    0.9600   -2.2550 ca        1 Y00     -0.125300
     16 C7         12.5020   -0.0380   -2.1980 ca        1 Y00     -0.139000
     17 C6         13.8340    0.3100   -1.9550 ca        1 Y00      0.127100
     18 O1         14.7480   -0.7080   -1.8930 oh        1 Y00     -0.485100
     19 C5         14.1800    1.6730   -1.7770 ca        1 Y00      0.075100
     20 O2         15.5090    1.9250   -1.5400 oh        1 Y00     -0.501100
     21 C4         13.1960    2.6620   -1.8430 ca        1 Y00     -0.165000
     22 C3         11.8700    2.3010   -2.0790 ca        1 Y00     -0.109000
     23 H3         -0.4580   -0.1540    1.2930 ho        1 Y00      0.431000
     24 H15         1.5340    0.1790    2.4150 ha        1 Y00      0.156000
     25 H17         1.0950   -0.5580   -1.8380 ha        1 Y00      0.156000
     26 H14         4.0000    0.3290    2.1390 ha        1 Y00      0.129500
     27 H18         3.5780   -0.4050   -2.1080 ha        1 Y00      0.129500
     28 H121        5.6360    0.7000   -1.0700 hc        1 Y00      0.041700
     29 H122        5.8750    0.5740    0.7210 hc        1 Y00      0.041700
     30 H111        5.6700   -1.7930   -1.2810 hc        1 Y00      0.089200
     31 H112        5.6970   -1.9700    0.5140 hc        1 Y00      0.089200
     32 H9          7.9070   -0.7050    0.6090 hx        1 Y00      0.106700
     33 H101        9.2160   -2.7470   -0.1580 hc        1 Y00      0.077367
     34 H102        7.7460   -3.3490   -1.0490 hc        1 Y00      0.077367
     35 H103        7.7130   -3.1740    0.7530 hc        1 Y00      0.077367
     36 H1          7.5270    0.2180   -1.7220 hn        1 Y00      0.447300
     37 H81C        9.5110    0.6390   -0.4290 hx        1 Y00      0.109700
     38 H82C       10.1670   -0.9740   -0.9950 hx        1 Y00      0.109700
     39 H11C        9.5080    1.4850   -2.8020 hc        1 Y00      0.068700
     40 H12C       10.0800   -0.1290   -3.4050 hc        1 Y00      0.068700
     41 H7         12.2510   -1.0970   -2.3570 ha        1 Y00      0.148000
     42 HA         11.1020    3.0870   -2.1370 ha        1 Y00      0.139000
     43 HB         15.6320   -0.3200   -1.7780 ho        1 Y00      0.452000
     44 H2         15.6370    2.8850   -1.5020 ho        1 Y00      0.444000
     45 H4         13.4670    3.7200   -1.7120 ha        1 Y00      0.154000
     46 H12         8.1180   -1.2210   -2.3030 hn        1 Y00      0.447300
@<TRIPOS>BOND
     1    1    2 1   
     2    1   23 1   
     3    2    3 ar  
     4    2    5 ar  
     5    3    4 ar  
     6    3   24 1   
     7    4    7 ar  
     8    4   26 1   
     9    5    6 ar  
    10    5   25 1   
    11    6    7 ar  
    12    6   27 1   
    13    7    8 1   
    14    8    9 1   
    15    8   28 1   
    16    8   29 1   
    17    9   10 1   
    18    9   30 1   
    19    9   31 1   
    20   10   11 1   
    21   10   12 1   
    22   10   32 1   
    23   11   33 1   
    24   11   34 1   
    25   11   35 1   
    26   12   13 1   
    27   12   36 1   
    28   12   46 1   
    29   13   14 1   
    30   13   37 1   
    31   13   38 1   
    32   14   15 1   
    33   14   39 1   
    34   14   40 1   
    35   15   16 ar  
    36   15   22 ar  
    37   16   17 ar  
    38   16   41 1   
    39   17   18 1   
    40   17   19 ar  
    41   18   43 1   
    42   19   20 1   
    43   19   21 ar  
    44   20   44 1   
    45   21   22 ar  
    46   21   45 1   
    47   22   42 1   
@<TRIPOS>SUBSTRUCTURE
     1 Y00         1 TEMP              0 ****  ****    0 ROOT
