@<TRIPOS>MOLECULE
Y01
   84    87     1     0     0
SMALL
bcc


@<TRIPOS>ATOM
      1 CAA         0.6550   -0.2630    0.6900 c3        1 Y01     -0.089600
      2 CBA         2.1190   -0.2650    0.3010 c3        1 Y01     -0.067700
      3 CAB         2.9860   -0.3580    1.5400 c3        1 Y01     -0.089600
      4 CAN         2.4400   -1.4080   -0.6500 c3        1 Y01     -0.076400
      5 CAJ         1.9390   -1.1470   -2.0550 c3        1 Y01     -0.079400
      6 CAO         2.2940   -2.2930   -2.9800 c3        1 Y01     -0.080400
      7 CBB         1.8170   -2.0460   -4.4100 c3        1 Y01     -0.054700
      8 CAC         2.7890   -1.1170   -5.1110 c3        1 Y01     -0.090100
      9 CBE         1.6680   -3.3690   -5.1530 c3        1 Y01     -0.054700
     10 CAP         0.6580   -4.3110   -4.4620 c3        1 Y01     -0.078400
     11 CAQ        -0.0680   -5.0950   -5.5570 c3        1 Y01     -0.074400
     12 CBG         0.6960   -4.7630   -6.8300 c3        1 Y01     -0.063700
     13 CBI         1.1660   -3.3010   -6.6170 c3        1 Y01     -0.045000
     14 CAE         0.0290   -2.3010   -6.7310 c3        1 Y01     -0.082100
     15 CAU         2.2250   -3.0380   -7.6760 c3        1 Y01     -0.064400
     16 CAS         1.6580   -3.2550   -9.0700 c3        1 Y01     -0.075400
     17 CBF         1.0120   -4.6200   -9.2800 c3        1 Y01     -0.048700
     18 CBD         0.0130   -4.9650   -8.1660 c3        1 Y01     -0.047700
     19 CAK        -0.4430   -6.4100   -8.3100 c3        1 Y01     -0.038200
     20 CAI        -0.7830   -6.7530   -9.7070 c2        1 Y01     -0.182200
     21 CAZ        -0.4260   -6.0270  -10.7770 c2        1 Y01     -0.092400
     22 CAV        -0.8480   -6.4570  -12.1420 c3        1 Y01     -0.070200
     23 CBH         0.3650   -4.7460  -10.6780 c3        1 Y01     -0.001800
     24 CAD        -0.5630   -3.5700  -10.9670 c3        1 Y01     -0.083100
     25 CAT         1.4970   -4.7700  -11.7190 c3        1 Y01     -0.067400
     26 CAR         1.0160   -5.0870  -13.1170 c3        1 Y01     -0.081400
     27 CBC         0.3090   -6.4350  -13.1350 c3        1 Y01      0.156100
     28 OAW        -0.2010   -6.5960  -14.4650 os        1 Y01     -0.456900
     29 CAY        -0.4230   -7.8760  -14.9280 c         1 Y01      0.639100
     30 OAG        -0.2180   -8.8010  -14.1370 o         1 Y01     -0.575000
     31 CAM        -0.9050   -7.8960  -16.3420 c3        1 Y01     -0.108400
     32 CAL         0.0270   -8.6690  -17.2450 c3        1 Y01     -0.201400
     33 CAX        -0.6130   -8.8700  -18.6350 c         1 Y01      0.913600
     34 OAH         0.1710   -9.0460  -19.6090 o         1 Y01     -0.843300
     35 OAF        -1.8740   -8.8590  -18.7240 o         1 Y01     -0.843300
     36 HAA1        0.0090   -0.1600   -0.2150 hc        1 Y01      0.032200
     37 HAA2        0.4390    0.5900    1.3780 hc        1 Y01      0.032200
     38 HAA3        0.3860   -1.2130    1.2100 hc        1 Y01      0.032200
     39 HBA         2.3500    0.7080   -0.2200 hc        1 Y01      0.045700
     40 HAB1        4.0670   -0.2880    1.2680 hc        1 Y01      0.032200
     41 HAB2        2.7440    0.4710    2.2470 hc        1 Y01      0.032200
     42 HAB3        2.8170   -1.3300    2.0640 hc        1 Y01      0.032200
     43 HAN1        1.9890   -2.3570   -0.2590 hc        1 Y01      0.039700
     44 HAN2        3.5520   -1.5580   -0.6810 hc        1 Y01      0.039700
     45 HAJ1        0.8260   -1.0090   -2.0410 hc        1 Y01      0.039700
     46 HAJ2        2.3850   -0.1920   -2.4400 hc        1 Y01      0.039700
     47 HAO1        1.8340   -3.2330   -2.5750 hc        1 Y01      0.040700
     48 HAO2        3.4050   -2.4470   -2.9820 hc        1 Y01      0.040700
     49 HBB         0.8080   -1.5460   -4.3650 hc        1 Y01      0.049700
     50 HAC1        2.3220   -0.6680   -6.0210 hc        1 Y01      0.033367
     51 HAC2        3.0920   -0.2820   -4.4330 hc        1 Y01      0.033367
     52 HAC3        3.7080   -1.6710   -5.4210 hc        1 Y01      0.033367
     53 HBE         2.6770   -3.8680   -5.1620 hc        1 Y01      0.045700
     54 HAP1        1.1940   -5.0070   -3.7710 hc        1 Y01      0.037700
     55 HAP2       -0.0750   -3.7220   -3.8570 hc        1 Y01      0.037700
     56 HAQ1       -1.1360   -4.7750   -5.6370 hc        1 Y01      0.042200
     57 HAQ2       -0.0560   -6.1930   -5.3530 hc        1 Y01      0.042200
     58 HBG         1.6230   -5.4110   -6.8350 hc        1 Y01      0.045700
     59 HBD        -0.8880   -4.2990   -8.2450 hc        1 Y01      0.056700
     60 HAE1        0.4170   -1.2600   -6.6210 hc        1 Y01      0.035033
     61 HAE2       -0.7300   -2.4860   -5.9320 hc        1 Y01      0.035033
     62 HAE3       -0.4810   -2.3750   -7.7210 hc        1 Y01      0.035033
     63 HAU1        3.0980   -3.7210   -7.5100 hc        1 Y01      0.037700
     64 HAU2        2.6030   -1.9860   -7.6000 hc        1 Y01      0.037700
     65 HAS1        2.4940   -3.1360   -9.8110 hc        1 Y01      0.041700
     66 HAS2        0.9110   -2.4450   -9.2810 hc        1 Y01      0.041700
     67 HBF         1.8340   -5.3920   -9.2260 hc        1 Y01      0.048700
     68 HAK1       -1.3320   -6.5810   -7.6460 hc        1 Y01      0.043200
     69 HAK2        0.3690   -7.1040   -7.9560 hc        1 Y01      0.043200
     70 HAI        -1.3570   -7.6870   -9.8310 ha        1 Y01      0.126000
     71 HAV1       -1.6610   -5.7750  -12.5110 hc        1 Y01      0.063700
     72 HAV2       -1.2700   -7.4980  -12.1210 hc        1 Y01      0.063700
     73 HBC         1.0300   -7.2670  -12.9040 h1        1 Y01      0.068700
     74 HAD1        0.0300   -2.6480  -11.1840 hc        1 Y01      0.036033
     75 HAD2       -1.2010   -3.7860  -11.8580 hc        1 Y01      0.036033
     76 HAD3       -1.2300   -3.3710  -10.0950 hc        1 Y01      0.036033
     77 HAT1        2.2570   -5.5350  -11.4110 hc        1 Y01      0.039700
     78 HAT2        2.0050   -3.7700  -11.7300 hc        1 Y01      0.039700
     79 HAR1        1.8860   -5.1150  -13.8220 hc        1 Y01      0.053700
     80 HAR2        0.3140   -4.2930  -13.4810 hc        1 Y01      0.053700
     81 HAM1       -1.0220   -6.8470  -16.7210 hc        1 Y01      0.086700
     82 HAM2       -1.9190   -8.3840  -16.3650 hc        1 Y01      0.086700
     83 HAL1        0.9990   -8.1310  -17.3630 hc        1 Y01      0.036700
     84 HAL2        0.2360   -9.6790  -16.8120 hc        1 Y01      0.036700
@<TRIPOS>BOND
     1    1    2 1   
     2    1   36 1   
     3    1   37 1   
     4    1   38 1   
     5    2    3 1   
     6    2    4 1   
     7    2   39 1   
     8    3   40 1   
     9    3   41 1   
    10    3   42 1   
    11    4    5 1   
    12    4   43 1   
    13    4   44 1   
    14    5    6 1   
    15    5   45 1   
    16    5   46 1   
    17    6    7 1   
    18    6   47 1   
    19    6   48 1   
    20    7    8 1   
    21    7    9 1   
    22    7   49 1   
    23    8   50 1   
    24    8   51 1   
    25    8   52 1   
    26    9   10 1   
    27    9   13 1   
    28    9   53 1   
    29   10   11 1   
    30   10   54 1   
    31   10   55 1   
    32   11   12 1   
    33   11   56 1   
    34   11   57 1   
    35   12   13 1   
    36   12   18 1   
    37   12   58 1   
    38   13   14 1   
    39   13   15 1   
    40   14   60 1   
    41   14   61 1   
    42   14   62 1   
    43   15   16 1   
    44   15   63 1   
    45   15   64 1   
    46   16   17 1   
    47   16   65 1   
    48   16   66 1   
    49   17   18 1   
    50   17   23 1   
    51   17   67 1   
    52   18   19 1   
    53   18   59 1   
    54   19   20 1   
    55   19   68 1   
    56   19   69 1   
    57   20   21 2   
    58   20   70 1   
    59   21   22 1   
    60   21   23 1   
    61   22   27 1   
    62   22   71 1   
    63   22   72 1   
    64   23   24 1   
    65   23   25 1   
    66   24   74 1   
    67   24   75 1   
    68   24   76 1   
    69   25   26 1   
    70   25   77 1   
    71   25   78 1   
    72   26   27 1   
    73   26   79 1   
    74   26   80 1   
    75   27   28 1   
    76   27   73 1   
    77   28   29 1   
    78   29   30 2   
    79   29   31 1   
    80   31   32 1   
    81   31   81 1   
    82   31   82 1   
    83   32   33 1   
    84   32   83 1   
    85   32   84 1   
    86   33   34 1   
    87   33   35 1   
@<TRIPOS>SUBSTRUCTURE
     1 Y01         1 TEMP              0 ****  ****    0 ROOT
