@<TRIPOS>MOLECULE
Y01
   84    87     1     0     0
SMALL
bcc


@<TRIPOS>ATOM
      1 CAA         0.6840   -0.1880    0.6570 c3        1 Y01     -0.089600
      2 CBA         2.1530   -0.2600    0.2930 c3        1 Y01     -0.067700
      3 CAB         2.9940   -0.3830    1.5480 c3        1 Y01     -0.089600
      4 CAN         2.4380   -1.4240   -0.6440 c3        1 Y01     -0.076400
      5 CAJ         1.9710   -1.1520   -2.0590 c3        1 Y01     -0.079400
      6 CAO         2.2910   -2.3200   -2.9690 c3        1 Y01     -0.080400
      7 CBB         1.8460   -2.0640   -4.4090 c3        1 Y01     -0.054700
      8 CAC         2.8680   -1.1830   -5.1010 c3        1 Y01     -0.090100
      9 CBE         1.6540   -3.3860   -5.1440 c3        1 Y01     -0.054700
     10 CAP         0.5940   -4.2790   -4.4630 c3        1 Y01     -0.078400
     11 CAQ        -0.1470   -5.0400   -5.5640 c3        1 Y01     -0.074400
     12 CBG         0.6490   -4.7500   -6.8270 c3        1 Y01     -0.063700
     13 CBI         1.1780   -3.3080   -6.6170 c3        1 Y01     -0.045000
     14 CAE         0.0860   -2.2620   -6.7560 c3        1 Y01     -0.082100
     15 CAU         2.2630   -3.0980   -7.6610 c3        1 Y01     -0.064400
     16 CAS         1.7090   -3.3020   -9.0620 c3        1 Y01     -0.075400
     17 CBF         1.0090   -4.6400   -9.2720 c3        1 Y01     -0.048700
     18 CBD        -0.0200   -4.9350   -8.1720 c3        1 Y01     -0.047700
     19 CAK        -0.5350   -6.3600   -8.3130 c3        1 Y01     -0.038200
     20 CAI        -0.8670   -6.6990   -9.7130 c2        1 Y01     -0.182200
     21 CAZ        -0.4640   -5.9970  -10.7820 c2        1 Y01     -0.092400
     22 CAV        -0.8820   -6.4200  -12.1500 c3        1 Y01     -0.070200
     23 CBH         0.3800   -4.7500  -10.6800 c3        1 Y01     -0.001800
     24 CAD        -0.4940   -3.5380  -10.9910 c3        1 Y01     -0.083100
     25 CAT         1.5250   -4.8290  -11.7020 c3        1 Y01     -0.067400
     26 CAR         1.0530   -5.1360  -13.1050 c3        1 Y01     -0.081400
     27 CBC         0.2900   -6.4540  -13.1250 c3        1 Y01      0.156100
     28 OAW        -0.2060   -6.6040  -14.4620 os        1 Y01     -0.456900
     29 CAY        -0.4730   -7.8760  -14.9200 c         1 Y01      0.639100
     30 OAG        -0.3200   -8.8030  -14.1190 o         1 Y01     -0.575000
     31 CAM        -0.9340   -7.8870  -16.3410 c3        1 Y01     -0.108400
     32 CAL        -0.0190   -8.7020  -17.2240 c3        1 Y01     -0.201400
     33 CAX        -0.6430   -8.8860  -18.6240 c         1 Y01      0.913600
     34 OAH         0.1480   -9.1000  -19.5830 o         1 Y01     -0.843300
     35 OAF        -1.9010   -8.8250  -18.7330 o         1 Y01     -0.843300
     36 HAA1        0.0590   -0.0630   -0.2590 hc        1 Y01      0.032200
     37 HAA2        0.4960    0.6780    1.3360 hc        1 Y01      0.032200
     38 HAA3        0.3630   -1.1220    1.1790 hc        1 Y01      0.032200
     39 HBA         2.4360    0.6970   -0.2310 hc        1 Y01      0.045700
     40 HAB1        2.7790    0.4630    2.2440 hc        1 Y01      0.032200
     41 HAB2        4.0810   -0.3640    1.2930 hc        1 Y01      0.032200
     42 HAB3        2.7720   -1.3410    2.0750 hc        1 Y01      0.032200
     43 HAN1        1.9380   -2.3490   -0.2530 hc        1 Y01      0.039700
     44 HAN2        3.5420   -1.6240   -0.6560 hc        1 Y01      0.039700
     45 HAJ1        2.4640   -0.2200   -2.4430 hc        1 Y01      0.039700
     46 HAJ2        0.8650   -0.9660   -2.0640 hc        1 Y01      0.039700
     47 HAO1        1.7840   -3.2360   -2.5650 hc        1 Y01      0.040700
     48 HAO2        3.3940   -2.5220   -2.9540 hc        1 Y01      0.040700
     49 HBB         0.8590   -1.5220   -4.3830 hc        1 Y01      0.049700
     50 HAC1        3.7680   -1.7770   -5.3930 hc        1 Y01      0.033367
     51 HAC2        3.1960   -0.3570   -4.4250 hc        1 Y01      0.033367
     52 HAC3        2.4350   -0.7210   -6.0210 hc        1 Y01      0.033367
     53 HBE         2.6410   -3.9270   -5.1350 hc        1 Y01      0.045700
     54 HAP1       -0.1220   -3.6550   -3.8740 hc        1 Y01      0.037700
     55 HAP2        1.0890   -4.9920   -3.7590 hc        1 Y01      0.037700
     56 HAQ1       -0.1850   -6.1360   -5.3520 hc        1 Y01      0.042200
     57 HAQ2       -1.2000   -4.6760   -5.6630 hc        1 Y01      0.042200
     58 HBG         1.5480   -5.4370   -6.8120 hc        1 Y01      0.045700
     59 HBD        -0.8910   -4.2320   -8.2700 hc        1 Y01      0.056700
     60 HAE1       -0.4110   -2.3230   -7.7540 hc        1 Y01      0.035033
     61 HAE2       -0.6930   -2.4080   -5.9680 hc        1 Y01      0.035033
     62 HAE3        0.5160   -1.2370   -6.6480 hc        1 Y01      0.035033
     63 HAU1        3.1040   -3.8170   -7.4760 hc        1 Y01      0.037700
     64 HAU2        2.6840   -2.0620   -7.5860 hc        1 Y01      0.037700
     65 HAS1        2.5600   -3.2240   -9.7900 hc        1 Y01      0.041700
     66 HAS2        1.0010   -2.4620   -9.2900 hc        1 Y01      0.041700
     67 HBF         1.7970   -5.4460   -9.2000 hc        1 Y01      0.048700
     68 HAK1       -1.4410   -6.4880   -7.6620 hc        1 Y01      0.043200
     69 HAK2        0.2420   -7.0840   -7.9410 hc        1 Y01      0.043200
     70 HAI        -1.4780   -7.6090   -9.8390 ha        1 Y01      0.126000
     71 HAV1       -1.3480   -7.4420  -12.1290 hc        1 Y01      0.063700
     72 HAV2       -1.6600   -5.7070  -12.5370 hc        1 Y01      0.063700
     73 HBC         0.9720   -7.3140  -12.8770 h1        1 Y01      0.068700
     74 HAD1        0.1400   -2.6440  -11.2050 hc        1 Y01      0.036033
     75 HAD2       -1.1260   -3.7340  -11.8900 hc        1 Y01      0.036033
     76 HAD3       -1.1650   -3.3040  -10.1310 hc        1 Y01      0.036033
     77 HAT1        2.0740   -3.8520  -11.7130 hc        1 Y01      0.039700
     78 HAT2        2.2480   -5.6230  -11.3770 hc        1 Y01      0.039700
     79 HAR1        1.9320   -5.2070  -13.7970 hc        1 Y01      0.053700
     80 HAR2        0.3900   -4.3160  -13.4860 hc        1 Y01      0.053700
     81 HAM1       -1.9650   -8.3360  -16.3770 hc        1 Y01      0.086700
     82 HAM2       -1.0030   -6.8370  -16.7280 hc        1 Y01      0.086700
     83 HAL1        0.1440   -9.7160  -16.7820 hc        1 Y01      0.036700
     84 HAL2        0.9760   -8.2030  -17.3300 hc        1 Y01      0.036700
@<TRIPOS>BOND
     1    1    2 1   
     2    1   36 1   
     3    1   37 1   
     4    1   38 1   
     5    2    3 1   
     6    2    4 1   
     7    2   39 1   
     8    3   40 1   
     9    3   41 1   
    10    3   42 1   
    11    4    5 1   
    12    4   43 1   
    13    4   44 1   
    14    5    6 1   
    15    5   45 1   
    16    5   46 1   
    17    6    7 1   
    18    6   47 1   
    19    6   48 1   
    20    7    8 1   
    21    7    9 1   
    22    7   49 1   
    23    8   50 1   
    24    8   51 1   
    25    8   52 1   
    26    9   10 1   
    27    9   13 1   
    28    9   53 1   
    29   10   11 1   
    30   10   54 1   
    31   10   55 1   
    32   11   12 1   
    33   11   56 1   
    34   11   57 1   
    35   12   13 1   
    36   12   18 1   
    37   12   58 1   
    38   13   14 1   
    39   13   15 1   
    40   14   60 1   
    41   14   61 1   
    42   14   62 1   
    43   15   16 1   
    44   15   63 1   
    45   15   64 1   
    46   16   17 1   
    47   16   65 1   
    48   16   66 1   
    49   17   18 1   
    50   17   23 1   
    51   17   67 1   
    52   18   19 1   
    53   18   59 1   
    54   19   20 1   
    55   19   68 1   
    56   19   69 1   
    57   20   21 2   
    58   20   70 1   
    59   21   22 1   
    60   21   23 1   
    61   22   27 1   
    62   22   71 1   
    63   22   72 1   
    64   23   24 1   
    65   23   25 1   
    66   24   74 1   
    67   24   75 1   
    68   24   76 1   
    69   25   26 1   
    70   25   77 1   
    71   25   78 1   
    72   26   27 1   
    73   26   79 1   
    74   26   80 1   
    75   27   28 1   
    76   27   73 1   
    77   28   29 1   
    78   29   30 2   
    79   29   31 1   
    80   31   32 1   
    81   31   81 1   
    82   31   82 1   
    83   32   33 1   
    84   32   83 1   
    85   32   84 1   
    86   33   34 1   
    87   33   35 1   
@<TRIPOS>SUBSTRUCTURE
     1 Y01         1 TEMP              0 ****  ****    0 ROOT
