@<TRIPOS>MOLECULE
Y01
   84    87     1     0     0
SMALL
bcc


@<TRIPOS>ATOM
      1 CAA       -10.5910   -0.5220   -1.7170 c3        1 Y01     -0.089600
      2 CBA       -10.4950    0.0970   -0.3380 c3        1 Y01     -0.067700
      3 CAB       -11.7190   -0.2600    0.4800 c3        1 Y01     -0.089600
      4 CAN        -9.2330   -0.3510    0.3860 c3        1 Y01     -0.076400
      5 CAJ        -7.9900    0.3320   -0.1460 c3        1 Y01     -0.079400
      6 CAO        -6.7580   -0.1180    0.6110 c3        1 Y01     -0.080400
      7 CBB        -5.4900    0.5690    0.1050 c3        1 Y01     -0.054700
      8 CAC        -5.4040    1.9630    0.6980 c3        1 Y01     -0.090100
      9 CBE        -4.2630   -0.2660    0.4530 c3        1 Y01     -0.054700
     10 CAP        -4.3280   -1.6770   -0.1690 c3        1 Y01     -0.078400
     11 CAQ        -2.9010   -2.0830   -0.5470 c3        1 Y01     -0.074400
     12 CBG        -2.0250   -1.0060    0.0740 c3        1 Y01     -0.063700
     13 CBI        -2.8880    0.2780   -0.0110 c3        1 Y01     -0.045000
     14 CAE        -2.9930    0.8170   -1.4270 c3        1 Y01     -0.082100
     15 CAU        -2.2260    1.2960    0.9050 c3        1 Y01     -0.064400
     16 CAS        -0.7880    1.5480    0.4810 c3        1 Y01     -0.075400
     17 CBF         0.0630    0.2880    0.3680 c3        1 Y01     -0.048700
     18 CBD        -0.6240   -0.8030   -0.4650 c3        1 Y01     -0.047700
     19 CAK         0.1680   -2.0990   -0.3730 c3        1 Y01     -0.038200
     20 CAI         1.6200   -1.8800   -0.5410 c2        1 Y01     -0.182200
     21 CAZ         2.2260   -0.6880   -0.4450 c2        1 Y01     -0.092400
     22 CAV         3.6980   -0.5820   -0.6580 c3        1 Y01     -0.070200
     23 CBH         1.4820    0.5950   -0.1630 c3        1 Y01     -0.001800
     24 CAD         1.4270    1.4230   -1.4440 c3        1 Y01     -0.083100
     25 CAT         2.2310    1.3850    0.9230 c3        1 Y01     -0.067400
     26 CAR         3.6970    1.5820    0.6150 c3        1 Y01     -0.081400
     27 CBC         4.3810    0.2340    0.4350 c3        1 Y01      0.156100
     28 OAW         5.7290    0.5230    0.0420 os        1 Y01     -0.456900
     29 CAY         6.7010   -0.4200    0.3010 c         1 Y01      0.639100
     30 OAG         6.3290   -1.4830    0.8060 o         1 Y01     -0.575000
     31 CAM         8.0620    0.0340   -0.1140 c3        1 Y01     -0.108400
     32 CAL         9.0220    0.0750    1.0510 c3        1 Y01     -0.201400
     33 CAX        10.4630    0.3190    0.5550 c         1 Y01      0.913600
     34 OAH        11.2720    0.8450    1.3690 o         1 Y01     -0.843300
     35 OAF        10.7600   -0.0280   -0.6240 o         1 Y01     -0.843300
     36 HAA1       -9.7090   -0.2360   -2.3380 hc        1 Y01      0.032200
     37 HAA2      -10.6270   -1.6360   -1.6450 hc        1 Y01      0.032200
     38 HAA3      -11.5170   -0.1720   -2.2340 hc        1 Y01      0.032200
     39 HBA       -10.4600    1.2180   -0.4540 hc        1 Y01      0.045700
     40 HAB1      -11.7670   -1.3620    0.6520 hc        1 Y01      0.032200
     41 HAB2      -11.6890    0.2520    1.4720 hc        1 Y01      0.032200
     42 HAB3      -12.6480    0.0560   -0.0540 hc        1 Y01      0.032200
     43 HAN1       -9.3360   -0.1210    1.4800 hc        1 Y01      0.039700
     44 HAN2       -9.1230   -1.4630    0.2900 hc        1 Y01      0.039700
     45 HAJ1       -7.8650    0.0970   -1.2360 hc        1 Y01      0.039700
     46 HAJ2       -8.1080    1.4440   -0.0600 hc        1 Y01      0.039700
     47 HAO1       -6.8850    0.0980    1.7040 hc        1 Y01      0.040700
     48 HAO2       -6.6620   -1.2310    0.5060 hc        1 Y01      0.040700
     49 HBB        -5.5580    0.6570   -1.0160 hc        1 Y01      0.049700
     50 HAC1       -4.6880    2.5960    0.1200 hc        1 Y01      0.033367
     51 HAC2       -6.4030    2.4630    0.6710 hc        1 Y01      0.033367
     52 HAC3       -5.0610    1.9190    1.7600 hc        1 Y01      0.033367
     53 HBE        -4.2270   -0.3670    1.5730 hc        1 Y01      0.045700
     54 HAP1       -4.7600   -2.4010    0.5650 hc        1 Y01      0.037700
     55 HAP2       -4.9820   -1.6750   -1.0760 hc        1 Y01      0.037700
     56 HAQ1       -2.6430   -3.0950   -0.1490 hc        1 Y01      0.042200
     57 HAQ2       -2.7740   -2.1110   -1.6570 hc        1 Y01      0.042200
     58 HBG        -1.9190   -1.2620    1.1710 hc        1 Y01      0.045700
     59 HBD        -0.6670   -0.4880   -1.5420 hc        1 Y01      0.056700
     60 HAE1       -3.5790    1.7670   -1.4380 hc        1 Y01      0.035033
     61 HAE2       -1.9850    1.0300   -1.8570 hc        1 Y01      0.035033
     62 HAE3       -3.5040    0.0730   -2.0870 hc        1 Y01      0.035033
     63 HAU1       -2.7860    2.2660    0.8830 hc        1 Y01      0.037700
     64 HAU2       -2.2510    0.9180    1.9610 hc        1 Y01      0.037700
     65 HAS1       -0.7980    2.0910   -0.5000 hc        1 Y01      0.041700
     66 HAS2       -0.3160    2.2340    1.2340 hc        1 Y01      0.041700
     67 HBF         0.1850   -0.1300    1.4100 hc        1 Y01      0.048700
     68 HAK1       -0.0110   -2.5860    0.6250 hc        1 Y01      0.043200
     69 HAK2       -0.2060   -2.8120   -1.1570 hc        1 Y01      0.043200
     70 HAI         2.2080   -2.7920   -0.7420 ha        1 Y01      0.126000
     71 HAV1        4.1740   -1.6000   -0.6820 hc        1 Y01      0.063700
     72 HAV2        3.8960   -0.0990   -1.6530 hc        1 Y01      0.063700
     73 HBC         4.3850   -0.3440    1.4000 h1        1 Y01      0.068700
     74 HAD1        1.1460    2.4800   -1.2140 hc        1 Y01      0.036033
     75 HAD2        2.4250    1.4340   -1.9450 hc        1 Y01      0.036033
     76 HAD3        0.6790    1.0000   -2.1550 hc        1 Y01      0.036033
     77 HAT1        1.7480    2.3900    1.0410 hc        1 Y01      0.039700
     78 HAT2        2.1310    0.8420    1.9000 hc        1 Y01      0.039700
     79 HAR1        3.8250    2.1920   -0.3170 hc        1 Y01      0.053700
     80 HAR2        4.1920    2.1400    1.4520 hc        1 Y01      0.053700
     81 HAM1        8.4580   -0.6860   -0.8830 hc        1 Y01      0.086700
     82 HAM2        7.9990    1.0460   -0.5930 hc        1 Y01      0.086700
     83 HAL1        8.7400    0.8850    1.7670 hc        1 Y01      0.036700
     84 HAL2        9.0060   -0.8990    1.6010 hc        1 Y01      0.036700
@<TRIPOS>BOND
     1    1    2 1   
     2    1   36 1   
     3    1   37 1   
     4    1   38 1   
     5    2    3 1   
     6    2    4 1   
     7    2   39 1   
     8    3   40 1   
     9    3   41 1   
    10    3   42 1   
    11    4    5 1   
    12    4   43 1   
    13    4   44 1   
    14    5    6 1   
    15    5   45 1   
    16    5   46 1   
    17    6    7 1   
    18    6   47 1   
    19    6   48 1   
    20    7    8 1   
    21    7    9 1   
    22    7   49 1   
    23    8   50 1   
    24    8   51 1   
    25    8   52 1   
    26    9   10 1   
    27    9   13 1   
    28    9   53 1   
    29   10   11 1   
    30   10   54 1   
    31   10   55 1   
    32   11   12 1   
    33   11   56 1   
    34   11   57 1   
    35   12   13 1   
    36   12   18 1   
    37   12   58 1   
    38   13   14 1   
    39   13   15 1   
    40   14   60 1   
    41   14   61 1   
    42   14   62 1   
    43   15   16 1   
    44   15   63 1   
    45   15   64 1   
    46   16   17 1   
    47   16   65 1   
    48   16   66 1   
    49   17   18 1   
    50   17   23 1   
    51   17   67 1   
    52   18   19 1   
    53   18   59 1   
    54   19   20 1   
    55   19   68 1   
    56   19   69 1   
    57   20   21 2   
    58   20   70 1   
    59   21   22 1   
    60   21   23 1   
    61   22   27 1   
    62   22   71 1   
    63   22   72 1   
    64   23   24 1   
    65   23   25 1   
    66   24   74 1   
    67   24   75 1   
    68   24   76 1   
    69   25   26 1   
    70   25   77 1   
    71   25   78 1   
    72   26   27 1   
    73   26   79 1   
    74   26   80 1   
    75   27   28 1   
    76   27   73 1   
    77   28   29 1   
    78   29   30 2   
    79   29   31 1   
    80   31   32 1   
    81   31   81 1   
    82   31   82 1   
    83   32   33 1   
    84   32   83 1   
    85   32   84 1   
    86   33   34 1   
    87   33   35 1   
@<TRIPOS>SUBSTRUCTURE
     1 Y01         1 TEMP              0 ****  ****    0 ROOT
