@<TRIPOS>MOLECULE
Y02
   67    67     1     0     0
SMALL
bcc


@<TRIPOS>ATOM
      1 N          -1.2610    2.4420   -0.9110 n         1 Y02     -0.531900
      2 O1          2.6870   -0.6900   -1.4110 oh        1 Y02     -0.591800
      3 O2          0.4500    0.3590    0.1330 oh        1 Y02     -0.610800
      4 O3          2.5980    0.4160    1.6160 oh        1 Y02     -0.597800
      5 O4         -1.0180    4.1140    0.6440 o         1 Y02     -0.615100
      6 O5          1.7730    3.6950   -0.3530 os        1 Y02     -0.410600
      7 O6         -3.3970    0.7070    0.0890 os        1 Y02     -0.347900
      8 C01         6.0970   -2.6660    0.2950 c3        1 Y02     -0.026800
      9 C04         3.5480    0.1370   -0.6450 c3        1 Y02      0.145300
     10 C05         2.7630    1.0220    0.3450 c3        1 Y02      0.079100
     11 C06         1.3710    1.3750   -0.2210 c3        1 Y02      0.107100
     12 C07         0.9280    2.7520    0.3010 c3        1 Y02      0.046100
     13 C08         6.7130   -1.9860    1.5090 c3        1 Y02     -0.085433
     14 C09         5.4950   -4.0010    0.7240 c3        1 Y02     -0.085433
     15 C10         7.1890   -2.9190   -0.7410 c3        1 Y02     -0.085433
     16 C11        -0.5380    3.1330    0.0360 c         1 Y02      0.633100
     17 C19        -2.6750    2.6630   -1.0670 c3        1 Y02      0.076000
     18 C20        -3.5080    1.3810   -1.1720 c3        1 Y02      0.107400
     19 C22        -4.1040   -0.4930    0.1230 ca        1 Y02      0.076100
     20 C23        -3.4740   -1.6810   -0.2880 ca        1 Y02     -0.075300
     21 C24        -4.1600   -2.8890   -0.1350 ca        1 Y02     -0.131000
     22 C25        -5.4460   -2.9220    0.4110 ca        1 Y02     -0.073300
     23 C26        -6.0580   -1.7290    0.8090 ca        1 Y02     -0.131000
     24 C27        -5.4010   -0.5040    0.6680 ca        1 Y02     -0.075300
     25 C28        -2.1160   -1.6650   -0.8770 c3        1 Y02     -0.057300
     26 C29        -6.1520   -4.2140    0.5820 c3        1 Y02     -0.053800
     27 C30        -6.0650    0.7520    1.0850 c3        1 Y02     -0.057300
     28 HN         -0.9250    1.5460   -1.1920 hn        1 Y02      0.321500
     29 HO1         2.1040   -1.1540   -0.7950 ho        1 Y02      0.406000
     30 HO2         0.3070    0.4110    1.0890 ho        1 Y02      0.419000
     31 HO3         2.3930   -0.5160    1.4690 ho        1 Y02      0.406000
     32 H02         4.5590   -2.3150   -1.2290 ha        1 Y02      0.133000
     33 H03         5.0350   -0.1290    0.9430 ha        1 Y02      0.141000
     34 H04         4.0290    0.8060   -1.4200 h1        1 Y02      0.093700
     35 H05         3.3470    1.9630    0.5490 h1        1 Y02      0.099700
     36 H06         1.4000    1.3660   -1.3470 h1        1 Y02      0.113700
     37 H07         1.0740    2.7920    1.4190 h1        1 Y02      0.079700
     38 H08         7.5060   -2.6380    1.9470 hc        1 Y02      0.037144
     39 H08A        7.1740   -1.0120    1.2190 hc        1 Y02      0.037144
     40 H08B        5.9360   -1.7990    2.2890 hc        1 Y02      0.037144
     41 H09         4.6990   -3.8400    1.4880 hc        1 Y02      0.037144
     42 H09A        5.0490   -4.5260   -0.1540 hc        1 Y02      0.037144
     43 H09B        6.2880   -4.6510    1.1650 hc        1 Y02      0.037144
     44 H10         7.9890   -3.5610   -0.3020 hc        1 Y02      0.037144
     45 H10A        6.7640   -3.4370   -1.6340 hc        1 Y02      0.037144
     46 H10B        7.6430   -1.9530   -1.0680 hc        1 Y02      0.037144
     47 H19        -3.0590    3.2820   -0.2050 h1        1 Y02      0.070700
     48 H19A       -2.8370    3.2440   -2.0210 h1        1 Y02      0.070700
     49 H20        -3.1390    0.7050   -1.9880 h1        1 Y02      0.043700
     50 H20A       -4.5810    1.6490   -1.3580 h1        1 Y02      0.043700
     51 H21         2.5180    5.5610   -0.3390 h1        1 Y02      0.049367
     52 H21A        0.9130    5.3850    0.5490 h1        1 Y02      0.049367
     53 H21B        2.4570    4.7520    1.3130 h1        1 Y02      0.049367
     54 H24        -3.6760   -3.8270   -0.4490 ha        1 Y02      0.133500
     55 H26        -7.0700   -1.7520    1.2400 ha        1 Y02      0.133500
     56 H28        -1.5640   -2.6040   -0.6290 hc        1 Y02      0.050033
     57 H28A       -2.1840   -1.5820   -1.9910 hc        1 Y02      0.050033
     58 H28B       -1.5240   -0.7920   -0.4950 hc        1 Y02      0.050033
     59 H29        -5.9250   -4.6400    1.5910 hc        1 Y02      0.044700
     60 H29A       -7.2580   -4.0800    0.4990 hc        1 Y02      0.044700
     61 H29B       -5.8270   -4.9530   -0.1910 hc        1 Y02      0.044700
     62 H30        -6.7350    0.5770    1.9620 hc        1 Y02      0.050033
     63 H30A       -5.3070    1.5270    1.3620 hc        1 Y02      0.050033
     64 H30B       -6.6840    1.1530    0.2430 hc        1 Y02      0.050033
     65 C21         1.9120    4.9230    0.3520 c3        1 Y02      0.103700
     66 C03         4.6090   -0.6410    0.0660 c2        1 Y02     -0.231200
     67 C02         5.0220   -1.8420   -0.3430 c2        1 Y02     -0.127200
@<TRIPOS>BOND
     1    1   16 1   
     2    1   17 1   
     3    1   28 1   
     4    2    9 1   
     5    2   29 1   
     6    3   11 1   
     7    3   30 1   
     8    4   10 1   
     9    4   31 1   
    10    5   16 2   
    11    6   12 1   
    12    6   65 1   
    13    7   18 1   
    14    7   19 1   
    15    8   13 1   
    16    8   14 1   
    17    8   15 1   
    18    8   67 1   
    19    9   10 1   
    20    9   34 1   
    21    9   66 1   
    22   10   11 1   
    23   10   35 1   
    24   11   12 1   
    25   11   36 1   
    26   12   16 1   
    27   12   37 1   
    28   13   38 1   
    29   13   39 1   
    30   13   40 1   
    31   14   41 1   
    32   14   42 1   
    33   14   43 1   
    34   15   44 1   
    35   15   45 1   
    36   15   46 1   
    37   17   18 1   
    38   17   47 1   
    39   17   48 1   
    40   18   49 1   
    41   18   50 1   
    42   19   20 ar  
    43   19   24 ar  
    44   20   21 ar  
    45   20   25 1   
    46   21   22 ar  
    47   21   54 1   
    48   22   23 ar  
    49   22   26 1   
    50   23   24 ar  
    51   23   55 1   
    52   24   27 1   
    53   25   56 1   
    54   25   57 1   
    55   25   58 1   
    56   26   59 1   
    57   26   60 1   
    58   26   61 1   
    59   27   62 1   
    60   27   63 1   
    61   27   64 1   
    62   32   67 1   
    63   33   66 1   
    64   51   65 1   
    65   52   65 1   
    66   53   65 1   
    67   66   67 2   
@<TRIPOS>SUBSTRUCTURE
     1 Y02         1 TEMP              0 ****  ****    0 ROOT
