@<TRIPOS>MOLECULE
Y02
   67    63     1     0     0
SMALL
bcc


@<TRIPOS>ATOM
      1 N           0.1770   -0.8200   -0.2830 n         1 Y02     -0.395000
      2 O1          0.1450    1.8800   -4.8430 oh        1 Y02     -0.446000
      3 O2         -0.0030   -0.5550   -3.1700 oh        1 Y02     -0.364000
      4 O3          2.2060   -2.0000   -4.7150 oh        1 Y02     -0.344000
      5 O4          2.3170   -0.0980    0.1090 o         1 Y02     -0.389000
      6 O5          3.3480   -1.2930   -2.0400 oh        1 Y02     -0.306000
      7 O6         -2.4450    0.2260    0.5050 os        1 Y02     -0.188000
      8 C01         3.4160    3.5410   -5.9010 c3        1 Y02     -0.101000
      9 C04         3.3080    0.0680   -4.7390 c2        1 Y02     -0.165000
     10 C05         1.9970   -0.6060   -4.5150 c3        1 Y02      0.047000
     11 C06         1.3960   -0.3040   -3.1260 c3        1 Y02     -0.025000
     12 C07         1.9440   -1.2040   -2.0000 c3        1 Y02      0.022000
     13 C08         3.7050    4.9970   -5.5070 c3        1 Y02     -0.207000
     14 C09         4.3650    3.1320   -7.0240 c3        1 Y02     -0.207000
     15 C10         2.0010    3.5170   -6.3270 c1        1 Y02     -0.053000
     16 C11         1.4850   -0.6500   -0.6440 c2        1 Y02      0.265000
     17 C19        -1.5220    1.8660    1.8950 c2        1 Y02     -0.254000
     18 C20        -2.5610    1.4540    1.1640 c2        1 Y02     -0.045000
     19 C22        -3.6150   -0.3960    0.1140 c2        1 Y02      0.076000
     20 C23        -3.4400   -1.1500   -1.1720 c3        1 Y02     -0.134000
     21 C24        -4.6110   -1.8870   -1.6530 c1        1 Y02     -0.066000
     22 C25        -5.8180   -1.8380   -0.9060 c2        1 Y02     -0.193000
     23 C26        -5.8930   -1.1690    0.2850 c2        1 Y02      0.003000
     24 C27        -4.7770   -0.4390    0.8310 c2        1 Y02     -0.194000
     25 C28        -2.9080   -0.2510   -2.2810 c3        1 Y02     -0.171000
     26 C29        -6.9890   -2.5580   -1.4620 c3        1 Y02     -0.155000
     27 C30        -4.9740    0.2030    2.1510 c3        1 Y02     -0.175000
     28 HN         -0.1600   -0.3690    0.5360 hn        1 Y02      0.231000
     29 HO1         1.0460    2.1880   -4.6700 ho        1 Y02      0.219000
     30 HO2        -0.4020    0.1390   -3.7170 ho        1 Y02      0.244000
     31 HO3         1.4070   -2.4480   -4.4120 ho        1 Y02      0.220000
     32 H02         3.9110    3.1640   -3.7740 ha        1 Y02      0.142000
     33 H03        -0.1210    2.4170   -5.5960 ho        1 Y02      0.219000
     34 H04         1.2530   -0.2430   -5.2910 h1        1 Y02      0.106000
     35 H05         4.2360   -0.6220   -4.9530 ha        1 Y02      0.251000
     36 H06         1.5890    0.7790   -2.8860 h1        1 Y02      0.103000
     37 H07         1.5800   -2.2610   -2.1460 h1        1 Y02      0.137000
     38 H08         4.7550    5.0720   -5.1380 hc        1 Y02      0.087167
     39 H08A        3.0130    5.3280   -4.6970 hc        1 Y02      0.087167
     40 H08B        3.5860    5.6670   -6.3910 hc        1 Y02      0.087167
     41 H09         4.1540    2.0800   -7.3370 hc        1 Y02      0.087167
     42 H09A        5.4230    3.1920   -6.6730 hc        1 Y02      0.087167
     43 H09B        4.2390    3.8070   -7.9040 hc        1 Y02      0.087167
     44 H10         1.7110    1.5630   -7.3830 ha        1 Y02      0.015000
     45 H10A        1.8310    3.9080   -7.3450 ha        1 Y02      0.037000
     46 H10B        1.7900    1.3670   -6.7340 ha        1 Y02      0.015000
     47 H19        -1.5270    2.8550    2.3690 ha        1 Y02      0.136000
     48 H19A       -0.4920   -1.0410   -0.9840 hn        1 Y02      0.231000
     49 H20        -3.4890    2.0110    0.9780 h4        1 Y02      0.147000
     50 H20A       -0.6190    1.2610    2.0480 ha        1 Y02      0.136000
     51 H21         3.7130   -0.5070   -1.6060 ho        1 Y02      0.229000
     52 H21A        4.6540   -2.3540   -3.7100 ha        1 Y02      0.047500
     53 H21B        4.2640   -2.7860   -5.4450 ha        1 Y02      0.047500
     54 H24        -2.6600   -1.9570   -0.9710 hc        1 Y02      0.168000
     55 H26        -6.8230   -1.1720    0.8820 ha        1 Y02      0.133000
     56 H28        -2.0100    0.3090   -1.9210 hc        1 Y02      0.091333
     57 H28A       -2.6160   -0.8750   -3.1600 hc        1 Y02      0.091333
     58 H28B       -3.6880    0.4810   -2.5990 hc        1 Y02      0.091333
     59 H29        -7.8840   -2.4620   -0.8000 hc        1 Y02      0.081333
     60 H29A       -7.2440   -2.1480   -2.4710 hc        1 Y02      0.081333
     61 H29B       -6.7460   -3.6430   -1.5840 hc        1 Y02      0.081333
     62 H30        -5.6830   -0.3980    2.7740 hc        1 Y02      0.086333
     63 H30A       -5.4050    1.2290    2.0310 hc        1 Y02      0.086333
     64 H30B       -4.0090    0.2840    2.7100 hc        1 Y02      0.086333
     65 C21         4.7180   -2.0510   -4.7650 c1        1 Y02     -0.074000
     66 C03         3.4560    1.3590   -4.7290 c1        1 Y02     -0.170000
     67 C02         3.6210    2.6520   -4.7070 c2        1 Y02     -0.111000
@<TRIPOS>BOND
     1    1   16 1   
     2    1   28 1   
     3    1   48 1   
     4    2   29 1   
     5    2   33 1   
     6    3   11 1   
     7    3   30 1   
     8    4   10 1   
     9    4   31 1   
    10    5   16 1   
    11    6   12 1   
    12    6   51 1   
    13    7   18 1   
    14    7   19 1   
    15    8   13 1   
    16    8   14 1   
    17    8   15 1   
    18    8   67 1   
    19    9   10 1   
    20    9   35 1   
    21    9   66 1   
    22   10   11 1   
    23   10   34 1   
    24   11   12 1   
    25   11   36 1   
    26   12   16 1   
    27   12   37 1   
    28   13   38 1   
    29   13   39 1   
    30   13   40 1   
    31   14   41 1   
    32   14   42 1   
    33   14   43 1   
    34   15   45 1   
    35   17   18 1   
    36   17   47 1   
    37   17   50 1   
    38   18   49 1   
    39   19   20 1   
    40   19   24 1   
    41   20   21 1   
    42   20   25 1   
    43   20   54 1   
    44   21   22 1   
    45   22   23 1   
    46   22   26 1   
    47   23   24 1   
    48   23   55 1   
    49   24   27 1   
    50   25   56 1   
    51   25   57 1   
    52   25   58 1   
    53   26   59 1   
    54   26   60 1   
    55   26   61 1   
    56   27   62 1   
    57   27   63 1   
    58   27   64 1   
    59   32   67 1   
    60   44   46 1   
    61   52   65 1   
    62   53   65 1   
    63   66   67 1   
@<TRIPOS>SUBSTRUCTURE
     1 Y02         1 TEMP              0 ****  ****    0 ROOT
