@<TRIPOS>MOLECULE
Y02
   68    65     1     0     0
SMALL
bcc


@<TRIPOS>ATOM
      1 N           1.9790   -1.2260    0.3960 n         1 Y02     -0.387000
      2 O1          0.3950    1.8080   -3.4010 oh        1 Y02     -0.403000
      3 O2         -0.5630   -2.1170   -2.9500 oh        1 Y02     -0.359000
      4 O3          0.6340   -2.7540   -5.2560 oh        1 Y02     -0.117000
      5 O4          0.0270   -0.6330   -0.6130 o         1 Y02     -0.494000
      6 O5          2.9410   -1.0760   -2.3070 os        1 Y02     -0.071000
      7 O6         -2.3510    0.1300   -1.4880 os        1 Y02     -0.024000
      8 C01         3.7680    3.7660   -6.2500 c3        1 Y02     -0.027000
      9 C04         1.7880    2.1170   -3.4650 c3        1 Y02     -0.079000
     10 C05         1.3290   -2.0920   -4.4070 c1        1 Y02      0.016000
     11 C06         0.7040   -1.5200   -3.1600 c3        1 Y02     -0.102000
     12 C07         1.6670   -1.7650   -1.9980 c3        1 Y02     -0.144000
     13 C08         3.1300    5.0760   -5.8160 c3        1 Y02     -0.209333
     14 C09         5.2580    3.9730   -6.4770 c3        1 Y02     -0.209333
     15 C10         3.1170    3.2780   -7.5350 c3        1 Y02     -0.209333
     16 C11         1.1680   -1.1600   -0.6930 c2        1 Y02      0.345000
     17 C19        -1.9640    1.9140    0.0890 c2        1 Y02     -0.287000
     18 C20        -1.6280    1.1430   -1.0660 c2        1 Y02      0.286000
     19 C22        -3.5230   -0.2280   -0.7770 c2        1 Y02     -0.136000
     20 C23        -4.3950   -1.0600   -1.4080 c2        1 Y02      0.067000
     21 C24        -5.6250   -1.3930   -0.7150 c2        1 Y02     -0.179000
     22 C25        -5.9990   -0.7490    0.4110 c2        1 Y02     -0.029000
     23 C26        -5.1730    0.3440    1.0000 c3        1 Y02     -0.134000
     24 C27        -3.6940    0.2380    0.6290 c3        1 Y02     -0.079000
     25 C28        -4.1730   -1.6290   -2.7530 c3        1 Y02     -0.210000
     26 C29        -7.2720   -1.0350    1.1060 c3        1 Y02     -0.202000
     27 C30        -2.9720    1.5100    0.8980 c2        1 Y02      0.045000
     28 HN          2.9050   -1.5720    0.3110 hn        1 Y02      0.243500
     29 HO1         0.0030    2.0500   -4.2540 ho        1 Y02      0.238000
     30 HO2        -0.9810   -1.6680   -2.2000 ho        1 Y02      0.236000
     31 HO3        -0.3170   -2.8900   -5.0410 ho        1 Y02      0.205000
     32 H02         3.9640    1.7240   -5.5260 hc        1 Y02      0.120000
     33 H03         4.2240    3.0000   -4.2600 hc        1 Y02      0.120000
     34 H04         2.3220    1.1990   -3.0790 h1        1 Y02      0.121000
     35 H05         1.9670    2.9710   -2.7480 h1        1 Y02      0.121000
     36 H06         0.5890   -0.4010   -3.3090 h1        1 Y02      0.146000
     37 H07         1.8650   -2.8610   -1.8630 h1        1 Y02      0.134000
     38 H08         3.6030    5.4490   -4.8760 hc        1 Y02      0.080111
     39 H08A        2.0370    4.9300   -5.6390 hc        1 Y02      0.080111
     40 H08B        3.2630    5.8500   -6.6090 hc        1 Y02      0.080111
     41 H09         5.7480    4.3530   -5.5480 hc        1 Y02      0.080111
     42 H09A        5.7450    3.0120   -6.7710 hc        1 Y02      0.080111
     43 H09B        5.4180    4.7170   -7.2930 hc        1 Y02      0.080111
     44 H10         3.6300    2.3580   -7.9050 hc        1 Y02      0.080111
     45 H10A        3.1880    4.0660   -8.3230 hc        1 Y02      0.080111
     46 H10B        2.0410    3.0410   -7.3520 hc        1 Y02      0.080111
     47 H19        -1.7870    0.6390   -3.8340 ha        1 Y02      0.002500
     48 H19A        1.6940   -0.8320    1.2590 hn        1 Y02      0.243500
     49 H20        -0.7360    1.3250   -1.7220 h4        1 Y02      0.269000
     50 H20A       -1.3700    2.8230    0.2860 ha        1 Y02      0.196000
     51 H21         4.1620   -3.0520   -1.2300 ha        1 Y02      0.002500
     52 H21A        3.6630   -2.4050   -3.7670 ha        1 Y02      0.103000
     53 H21B        4.8140   -2.9200   -1.3630 ha        1 Y02      0.002500
     54 H24        -6.2490   -2.1810   -1.1670 ha        1 Y02      0.166000
     55 H26        -5.5920    1.3270    0.6450 hc        1 Y02      0.119500
     56 H28        -3.1340   -1.4330   -3.1230 hc        1 Y02      0.115000
     57 H28A       -4.3410   -2.7360   -2.7300 hc        1 Y02      0.115000
     58 H28B       -4.9020   -1.1820   -3.4770 hc        1 Y02      0.115000
     59 H29        -7.8440   -0.0880    1.2750 hc        1 Y02      0.106333
     60 H29A       -7.9130   -1.7380    0.5180 hc        1 Y02      0.106333
     61 H29B       -7.0640   -1.5000    2.1040 hc        1 Y02      0.106333
     62 H30        -5.2600    0.3290    2.1200 hc        1 Y02      0.119500
     63 H30A       -3.2240   -0.5500    1.3040 hc        1 Y02      0.153000
     64 H30B       -3.2690    2.0790    1.7960 ha        1 Y02      0.179000
     65 C03         2.1960    2.4840   -4.8140 c1        1 Y02     -0.089000
     66 C02         3.5820    2.7200   -5.1410 c3        1 Y02     -0.207000
     67 HN3        -1.4740    0.0380   -3.8240 ha        1 Y02      0.002500
     68 C21         3.7760   -1.4900   -3.1590 c1        1 Y02     -0.002000
@<TRIPOS>BOND
     1    1   16 1   
     2    1   28 1   
     3    1   48 1   
     4    2    9 1   
     5    2   29 1   
     6    3   11 1   
     7    3   30 1   
     8    4   10 1   
     9    4   31 1   
    10    5   16 1   
    11    6   12 1   
    12    6   68 1   
    13    7   18 1   
    14    7   19 1   
    15    8   13 1   
    16    8   14 1   
    17    8   15 1   
    18    8   66 1   
    19    9   34 1   
    20    9   35 1   
    21    9   65 1   
    22   10   11 1   
    23   11   12 1   
    24   11   36 1   
    25   12   16 1   
    26   12   37 1   
    27   13   38 1   
    28   13   39 1   
    29   13   40 1   
    30   14   41 1   
    31   14   42 1   
    32   14   43 1   
    33   15   44 1   
    34   15   45 1   
    35   15   46 1   
    36   17   18 1   
    37   17   27 1   
    38   17   50 1   
    39   18   49 1   
    40   19   20 1   
    41   19   24 1   
    42   20   21 1   
    43   20   25 1   
    44   21   22 1   
    45   21   54 1   
    46   22   23 1   
    47   22   26 1   
    48   23   24 1   
    49   23   55 1   
    50   23   62 1   
    51   24   27 1   
    52   24   63 1   
    53   25   56 1   
    54   25   57 1   
    55   25   58 1   
    56   26   59 1   
    57   26   60 1   
    58   26   61 1   
    59   27   64 1   
    60   32   66 1   
    61   33   66 1   
    62   47   67 1   
    63   51   53 1   
    64   52   68 1   
    65   65   66 1   
@<TRIPOS>SUBSTRUCTURE
     1 Y02         1 TEMP              0 ****  ****    0 ROOT
