@<TRIPOS>MOLECULE
Y03
   33    34     1     0     0
SMALL
bcc


@<TRIPOS>ATOM
      1 OAS         2.1220    0.6550    1.5070 o         1 Y03     -0.878000
      2 PAR         3.1880    0.9920    0.5310 p5        1 Y03      1.391900
      3 OAU         4.3200    1.8660    0.9360 o         1 Y03     -0.878000
      4 OAT         3.8300   -0.4440    0.0550 oh        1 Y03     -0.794400
      5 CAM         2.5030    1.5800   -0.9180 ca        1 Y03     -0.328500
      6 CAN         2.5350    2.9830   -0.9340 ca        1 Y03     -0.079000
      7 CAO         2.0310    3.7330   -1.9880 ca        1 Y03     -0.207000
      8 CAP         1.4740    3.0760   -3.0880 ca        1 Y03     -0.129000
      9 CAQ         1.4340    1.6920   -3.1120 ca        1 Y03     -0.185000
     10 CAL         1.9410    0.9380   -2.0280 ca        1 Y03      0.190100
     11 OAK         1.7630   -0.4540   -2.1110 os        1 Y03     -0.232200
     12 CAA         2.4590   -1.0550   -3.1480 c2        1 Y03     -0.387900
     13 CAB         1.8240   -1.3340   -4.3560 c2        1 Y03      0.648300
     14 OAD         0.6650   -1.0090   -4.7450 o         1 Y03     -0.777300
     15 NAC         2.6410   -2.1270   -5.2700 ns        1 Y03     -0.455100
     16 CAE         2.3220   -2.6540   -6.4840 ca        1 Y03      0.171600
     17 CAF         3.3010   -3.4210   -7.1940 ca        1 Y03     -0.235000
     18 CAG         3.0030   -3.9640   -8.4350 ca        1 Y03      0.079900
     19 Cl1         4.2070   -4.8770   -9.2520 cl        1 Y03     -0.159400
     20 CAH         1.7630   -3.7990   -9.0460 ca        1 Y03     -0.247000
     21 CAI         0.8040   -3.0490   -8.3490 ca        1 Y03      0.079900
     22 Cl2        -0.7310   -2.8340   -9.0820 cl        1 Y03     -0.159400
     23 CAJ         1.0460   -2.4850   -7.1110 ca        1 Y03     -0.235000
     24 H3          3.0120    3.4890   -0.0750 ha        1 Y03      0.147000
     25 H4          2.0740    4.8300   -1.9620 ha        1 Y03      0.091000
     26 H5          1.0700    3.6550   -3.9310 ha        1 Y03      0.090000
     27 H6          1.0060    1.1420   -3.9680 ha        1 Y03      0.162000
     28 H7          3.4880   -1.3080   -2.8880 h4        1 Y03      0.117000
     29 H8          3.1960   -1.0040   -0.3800 ho        1 Y03      0.429000
     30 H9          3.5580   -2.3350   -4.9390 hn        1 Y03      0.293500
     31 H10         4.2950   -3.5790   -6.7530 ha        1 Y03      0.171000
     32 H11         1.5430   -4.2350  -10.0270 ha        1 Y03      0.132000
     33 H12         0.2690   -1.8980   -6.5860 ha        1 Y03      0.171000
@<TRIPOS>BOND
     1    1    2 1   
     2    2    3 1   
     3    2    4 1   
     4    2    5 1   
     5    4   29 1   
     6    5    6 ar  
     7    5   10 ar  
     8    6    7 ar  
     9    6   24 1   
    10    7    8 ar  
    11    7   25 1   
    12    8    9 ar  
    13    8   26 1   
    14    9   10 ar  
    15    9   27 1   
    16   10   11 1   
    17   11   12 1   
    18   12   13 2   
    19   12   28 1   
    20   13   14 1   
    21   13   15 1   
    22   15   16 1   
    23   15   30 1   
    24   16   17 ar  
    25   16   23 ar  
    26   17   18 ar  
    27   17   31 1   
    28   18   19 1   
    29   18   20 ar  
    30   20   21 ar  
    31   20   32 1   
    32   21   22 1   
    33   21   23 ar  
    34   23   33 1   
@<TRIPOS>SUBSTRUCTURE
     1 Y03         1 TEMP              0 ****  ****    0 ROOT
