@<TRIPOS>MOLECULE
Y03
   33    34     1     0     0
SMALL
bcc


@<TRIPOS>ATOM
      1 OAS         3.2850    0.4770    0.9230 o         1 Y03     -0.877500
      2 PAR         4.0210    0.5410   -0.3650 p5        1 Y03      1.391900
      3 OAU         5.3980    1.0980   -0.4190 o         1 Y03     -0.877500
      4 OAT         4.0980   -1.0160   -0.8800 oh        1 Y03     -0.790400
      5 CAM         3.0540    1.2810   -1.5640 ca        1 Y03     -0.345500
      6 CAN         3.4620    2.6080   -1.7500 ca        1 Y03     -0.066000
      7 CAO         2.8210    3.4850   -2.6170 ca        1 Y03     -0.228000
      8 CAP         1.7210    3.0300   -3.3450 ca        1 Y03     -0.107000
      9 CAQ         1.2940    1.7200   -3.2040 ca        1 Y03     -0.226000
     10 CAL         1.9570    0.8320   -2.3240 ca        1 Y03      0.202100
     11 OAK         1.5110   -0.4850   -2.2350 os        1 Y03     -0.230200
     12 CAA         0.3420   -0.7900   -2.9150 c2        1 Y03     -0.409900
     13 CAB         0.3350   -1.4600   -4.1400 c2        1 Y03      0.659300
     14 OAD        -0.7160   -1.8530   -4.7360 o         1 Y03     -0.797300
     15 NAC         1.6180   -1.7350   -4.7420 n         1 Y03     -0.451100
     16 CAE         1.8980   -2.3430   -5.9310 ca        1 Y03      0.171600
     17 CAF         3.2640   -2.5320   -6.3130 ca        1 Y03     -0.228000
     18 CAG         3.5760   -3.1390   -7.5210 ca        1 Y03      0.077400
     19 CL1         5.2250   -3.3490   -7.9480 cl        1 Y03     -0.160400
     20 CAH         2.5980   -3.5870   -8.4080 ca        1 Y03     -0.246000
     21 CAI         1.2640   -3.4020   -8.0300 ca        1 Y03      0.077400
     22 CL2         0.0400   -3.9470   -9.1060 cl        1 Y03     -0.160400
     23 CAJ         0.8950   -2.8040   -6.8390 ca        1 Y03     -0.228000
     24 H3          4.3520    2.9490   -1.1870 ha        1 Y03      0.152000
     25 H4          3.1750    4.5170   -2.7310 ha        1 Y03      0.093000
     26 H5          1.1960    3.7080   -4.0340 ha        1 Y03      0.089000
     27 H6          0.4330    1.3510   -3.7820 ha        1 Y03      0.146000
     28 H7          3.2540   -1.4500   -0.8360 ho        1 Y03      0.425000
     29 H8         -0.5800   -0.5470   -2.3920 h4        1 Y03      0.134000
     30 H9          2.4030   -1.4560   -4.1880 hn        1 Y03      0.325500
     31 H10         4.0700   -2.1940   -5.6430 ha        1 Y03      0.177000
     32 H11         2.8620   -4.0640   -9.3580 ha        1 Y03      0.131000
     33 H12        -0.1700   -2.6770   -6.5700 ha        1 Y03      0.177000
@<TRIPOS>BOND
     1    1    2 1   
     2    2    3 1   
     3    2    4 1   
     4    2    5 1   
     5    4   28 1   
     6    5    6 ar  
     7    5   10 ar  
     8    6    7 ar  
     9    6   24 1   
    10    7    8 ar  
    11    7   25 1   
    12    8    9 ar  
    13    8   26 1   
    14    9   10 ar  
    15    9   27 1   
    16   10   11 1   
    17   11   12 1   
    18   12   13 2   
    19   12   29 1   
    20   13   14 1   
    21   13   15 1   
    22   15   16 1   
    23   15   30 1   
    24   16   17 ar  
    25   16   23 ar  
    26   17   18 ar  
    27   17   31 1   
    28   18   19 1   
    29   18   20 ar  
    30   20   21 ar  
    31   20   32 1   
    32   21   22 1   
    33   21   23 ar  
    34   23   33 1   
@<TRIPOS>SUBSTRUCTURE
     1 Y03         1 TEMP              0 ****  ****    0 ROOT
