@<TRIPOS>MOLECULE
Y03
   33    34     1     0     0
SMALL
bcc


@<TRIPOS>ATOM
      1 OAS         5.6250    1.6660    1.1100 o         1 Y03     -0.878000
      2 PAR         5.1150    0.3290    1.5040 p5        1 Y03      1.391900
      3 OAU         6.0150   -0.6420    2.1790 o         1 Y03     -0.878000
      4 OAT         3.8560    0.6120    2.5200 oh        1 Y03     -0.794400
      5 CAM         4.3480   -0.4290    0.1800 ca        1 Y03     -0.328500
      6 CAN         5.2260   -1.3350   -0.4340 ca        1 Y03     -0.079000
      7 CAO         4.8730   -2.0860   -1.5480 ca        1 Y03     -0.207000
      8 CAP         3.5900   -1.9480   -2.0840 ca        1 Y03     -0.129000
      9 CAQ         2.6930   -1.0700   -1.5000 ca        1 Y03     -0.185000
     10 CAL         3.0680   -0.3030   -0.3720 ca        1 Y03      0.190100
     11 OAK         2.1160    0.6270    0.0830 os        1 Y03     -0.232200
     12 CAA         0.9530    0.0550    0.5750 c2        1 Y03     -0.387900
     13 CAB        -0.1750   -0.0570   -0.2340 c2        1 Y03      0.648300
     14 OAD        -0.3030    0.1860   -1.4690 o         1 Y03     -0.777300
     15 NAC        -1.3610   -0.5110    0.4870 n         1 Y03     -0.455100
     16 CAE        -2.6430   -0.6490    0.0480 ca        1 Y03      0.171600
     17 CAF        -3.6500   -1.1020    0.9600 ca        1 Y03     -0.235000
     18 CAG        -4.9620   -1.2560    0.5370 ca        1 Y03      0.079900
     19 CL1        -6.1380   -1.8020    1.6650 cl        1 Y03     -0.159400
     20 CAH        -5.3650   -0.9840   -0.7670 ca        1 Y03     -0.247000
     21 CAI        -4.3780   -0.5390   -1.6590 ca        1 Y03      0.079900
     22 CL2        -4.8520   -0.1970   -3.2720 cl        1 Y03     -0.159400
     23 CAJ        -3.0560   -0.3680   -1.2930 ca        1 Y03     -0.235000
     24 H3          6.2250   -1.4630    0.0230 ha        1 Y03      0.147000
     25 H4          5.5890   -2.7840   -1.9990 ha        1 Y03      0.091000
     26 H5          3.2950   -2.5340   -2.9660 ha        1 Y03      0.090000
     27 H6          1.6710   -0.9410   -1.8950 ha        1 Y03      0.162000
     28 H7          1.0230   -0.2290    1.6260 h4        1 Y03      0.117000
     29 H8          3.1460    1.0880    2.1020 ho        1 Y03      0.429000
     30 H9         -1.2110   -0.7220    1.4490 hn        1 Y03      0.293500
     31 H10        -3.3810   -1.3290    2.0020 ha        1 Y03      0.171000
     32 H11        -6.4050   -1.1110   -1.0860 ha        1 Y03      0.132000
     33 H12        -2.3000   -0.0150   -2.0200 ha        1 Y03      0.171000
@<TRIPOS>BOND
     1    1    2 1   
     2    2    3 1   
     3    2    4 1   
     4    2    5 1   
     5    4   29 1   
     6    5    6 ar  
     7    5   10 ar  
     8    6    7 ar  
     9    6   24 1   
    10    7    8 ar  
    11    7   25 1   
    12    8    9 ar  
    13    8   26 1   
    14    9   10 ar  
    15    9   27 1   
    16   10   11 1   
    17   11   12 1   
    18   12   13 2   
    19   12   28 1   
    20   13   14 1   
    21   13   15 1   
    22   15   16 1   
    23   15   30 1   
    24   16   17 ar  
    25   16   23 ar  
    26   17   18 ar  
    27   17   31 1   
    28   18   19 1   
    29   18   20 ar  
    30   20   21 ar  
    31   20   32 1   
    32   21   22 1   
    33   21   23 ar  
    34   23   33 1   
@<TRIPOS>SUBSTRUCTURE
     1 Y03         1 TEMP              0 ****  ****    0 ROOT
