@<TRIPOS>MOLECULE
Y03
   33    34     1     0     0
SMALL
bcc


@<TRIPOS>ATOM
      1 OAS         1.6410   -0.4930    0.3020 o         1 Y03     -0.869500
      2 PAR         2.2120    0.8720    0.2110 p5        1 Y03      1.388900
      3 OAU         1.6910    2.0340    0.9690 o         1 Y03     -0.869500
      4 OAT         3.7320    0.5770    0.8010 oh        1 Y03     -0.806400
      5 CAM         2.5640    1.3420   -1.3840 ca        1 Y03     -0.325500
      6 CAN         3.5320    2.3600   -1.3810 ca        1 Y03     -0.067000
      7 CAO         4.0250    2.9310   -2.5460 ca        1 Y03     -0.193000
      8 CAP         3.5500    2.4800   -3.7810 ca        1 Y03     -0.126000
      9 CAQ         2.5890    1.4840   -3.8240 ca        1 Y03     -0.161000
     10 CAL         2.0800    0.9240   -2.6270 ca        1 Y03      0.202100
     11 OAK         1.0050    0.0630   -2.8390 os        1 Y03     -0.344900
     12 CAA         1.2970   -1.3310   -2.6930 c3        1 Y03      0.091400
     13 CAB         1.0450   -2.0670   -4.0220 c2        1 Y03      0.563300
     14 OAD         0.1810   -2.9860   -3.9940 o         1 Y03     -0.736300
     15 NAC         1.8270   -1.6750   -5.0780 ne        1 Y03     -0.556400
     16 CAE         1.7510   -2.2010   -6.3180 ca        1 Y03      0.312400
     17 CAF         2.6670   -1.6910   -7.3090 ca        1 Y03     -0.247000
     18 CAG         2.6510   -2.1730   -8.6020 ca        1 Y03      0.085900
     19 CL1         3.7680   -1.5300   -9.7510 cl        1 Y03     -0.195900
     20 CAH         1.7680   -3.1660   -9.0360 ca        1 Y03     -0.286000
     21 CAI         0.8760   -3.6650   -8.0810 ca        1 Y03      0.085900
     22 CL2        -0.2280   -4.8920   -8.5820 cl        1 Y03     -0.195900
     23 CAJ         0.8470   -3.2230   -6.7730 ca        1 Y03     -0.247000
     24 H3          3.9000    2.7050   -0.3980 ha        1 Y03      0.144000
     25 H4          4.7820    3.7240   -2.5010 ha        1 Y03      0.098000
     26 H5          3.9420    2.9090   -4.7130 ha        1 Y03      0.100000
     27 H6          2.2090    1.0960   -4.7820 ha        1 Y03      0.158000
     28 H7          2.3470   -1.5100   -2.3530 h1        1 Y03      0.073200
     29 H8          0.5790   -1.7020   -1.9130 h1        1 Y03      0.073200
     30 H9          3.8440   -0.3450    0.9980 ho        1 Y03      0.417000
     31 H10         3.3800   -0.9080   -7.0140 ha        1 Y03      0.156500
     32 H11         1.7740   -3.5320  -10.0660 ha        1 Y03      0.122000
     33 H12         0.1280   -3.6440   -6.0520 ha        1 Y03      0.156500
@<TRIPOS>BOND
     1    1    2 1   
     2    2    3 1   
     3    2    4 1   
     4    2    5 1   
     5    4   30 1   
     6    5    6 ar  
     7    5   10 ar  
     8    6    7 ar  
     9    6   24 1   
    10    7    8 ar  
    11    7   25 1   
    12    8    9 ar  
    13    8   26 1   
    14    9   10 ar  
    15    9   27 1   
    16   10   11 1   
    17   11   12 1   
    18   12   13 1   
    19   12   28 1   
    20   12   29 1   
    21   13   14 1   
    22   13   15 2   
    23   15   16 1   
    24   16   17 ar  
    25   16   23 ar  
    26   17   18 ar  
    27   17   31 1   
    28   18   19 1   
    29   18   20 ar  
    30   20   21 ar  
    31   20   32 1   
    32   21   22 1   
    33   21   23 ar  
    34   23   33 1   
@<TRIPOS>SUBSTRUCTURE
     1 Y03         1 TEMP              0 ****  ****    0 ROOT
