@<TRIPOS>MOLECULE
Y04
   33    34     1     0     0
SMALL
bcc


@<TRIPOS>ATOM
      1 OAC         0.4680    1.8130    1.6500 o         1 Y04     -0.881000
      2 PAV         1.1840    1.2210    0.4890 p5        1 Y04      1.399900
      3 OAD         2.3620    0.2880    1.1380 oh        1 Y04     -0.799400
      4 OAB         0.4670    0.3620   -0.4930 o         1 Y04     -0.881000
      5 CAU         2.0510    2.4370   -0.3250 ca        1 Y04     -0.359500
      6 CAM         1.8450    2.3650   -1.7100 ca        1 Y04     -0.065000
      7 CAI         2.3340    3.3100   -2.6020 ca        1 Y04     -0.234000
      8 CAH         3.0600    4.3950   -2.1030 ca        1 Y04     -0.115000
      9 CAL         3.3020    4.4880   -0.7460 ca        1 Y04     -0.216000
     10 CAT         2.8160    3.5020    0.1650 ca        1 Y04      0.227100
     11 OAP         3.1880    3.8570    1.4550 os        1 Y04     -0.234200
     12 CAN         3.6690    2.8830    2.3130 c2        1 Y04     -0.414900
     13 CAQ         3.1210    2.6650    3.5780 c2        1 Y04      0.668300
     14 OAA         3.7090    1.9940    4.4850 o         1 Y04     -0.802300
     15 NAO         1.8360    3.2560    3.8870 ns        1 Y04     -0.432100
     16 CAS         1.4910    3.7980    5.0800 ca        1 Y04      0.185600
     17 CAR         0.1840    4.3410    5.3200 ca        1 Y04     -0.123600
     18 Cl1        -1.0220    4.2490    4.1150 cl        1 Y04     -0.121400
     19 CAJ        -0.1460    4.9540    6.5240 ca        1 Y04     -0.081000
     20 CAF         0.7850    5.0650    7.5490 ca        1 Y04     -0.271000
     21 CAG         2.0680    4.5380    7.3520 ca        1 Y04     -0.098000
     22 CAK         2.4190    3.9240    6.1700 ca        1 Y04     -0.216000
     23 H3          1.2490    1.5100   -2.0900 ha        1 Y04      0.170000
     24 H4          2.1500    3.2140   -3.6780 ha        1 Y04      0.091000
     25 H5          3.4420    5.1660   -2.7870 ha        1 Y04      0.083000
     26 H6          3.8760    5.3300   -0.3340 ha        1 Y04      0.115000
     27 H7          2.7140    0.6570    1.9450 ho        1 Y04      0.442000
     28 H8          4.5710    2.3660    1.9880 h4        1 Y04      0.124000
     29 H9          1.1320    3.1360    3.1720 hn        1 Y04      0.384500
     30 H10        -1.1600    5.3570    6.6640 ha        1 Y04      0.101000
     31 H11         0.5200    5.5510    8.4940 ha        1 Y04      0.092000
     32 H12         2.8090    4.6130    8.1620 ha        1 Y04      0.091000
     33 H13         3.4260    3.4930    6.0430 ha        1 Y04      0.171000
@<TRIPOS>BOND
     1    1    2 1   
     2    2    3 1   
     3    2    4 1   
     4    2    5 1   
     5    3   27 1   
     6    5    6 ar  
     7    5   10 ar  
     8    6    7 ar  
     9    6   23 1   
    10    7    8 ar  
    11    7   24 1   
    12    8    9 ar  
    13    8   25 1   
    14    9   10 ar  
    15    9   26 1   
    16   10   11 1   
    17   11   12 1   
    18   12   13 2   
    19   12   28 1   
    20   13   14 1   
    21   13   15 1   
    22   15   16 1   
    23   15   29 1   
    24   16   17 ar  
    25   16   22 ar  
    26   17   18 1   
    27   17   19 ar  
    28   19   20 ar  
    29   19   30 1   
    30   20   21 ar  
    31   20   31 1   
    32   21   22 ar  
    33   21   32 1   
    34   22   33 1   
@<TRIPOS>SUBSTRUCTURE
     1 Y04         1 TEMP              0 ****  ****    0 ROOT
