@<TRIPOS>MOLECULE
Y04
   33    34     1     0     0
SMALL
bcc


@<TRIPOS>ATOM
      1 OAC         3.3380    0.3200   -2.1780 o         1 Y04     -0.870500
      2 PAV         2.4770    0.3990   -0.9730 p5        1 Y04      1.389900
      3 OAD         0.9710   -0.1030   -1.4500 oh        1 Y04     -0.806400
      4 OAB         2.6570   -0.4660    0.2180 o         1 Y04     -0.870500
      5 CAU         2.1730    2.0250   -0.5920 ca        1 Y04     -0.326500
      6 CAM         1.5210    2.6560   -1.6650 ca        1 Y04     -0.070000
      7 CAI         1.1230    3.9840   -1.6270 ca        1 Y04     -0.194000
      8 CAH         1.3670    4.7370   -0.4740 ca        1 Y04     -0.127000
      9 CAL         2.0180    4.1540    0.6010 ca        1 Y04     -0.160000
     10 CAT         2.4440    2.8050    0.5360 ca        1 Y04      0.199100
     11 OAP         3.2340    2.4210    1.6180 os        1 Y04     -0.343900
     12 CAN         2.5580    1.6430    2.6130 c3        1 Y04      0.089400
     13 CAQ         2.6420    2.3400    3.9840 c2        1 Y04      0.564300
     14 OAA         3.1760    1.6670    4.9100 o         1 Y04     -0.749300
     15 NAO         2.0730    3.5830    4.0580 ne        1 Y04     -0.550400
     16 CAS         2.0650    4.3480    5.1710 ca        1 Y04      0.309400
     17 CAR         1.4060    5.6290    5.1350 ca        1 Y04     -0.077600
     18 CL1         0.6360    6.1680    3.6970 cl        1 Y04     -0.165400
     19 CAJ         1.3590    6.4780    6.2310 ca        1 Y04     -0.094000
     20 CAF         1.9570    6.1220    7.4370 ca        1 Y04     -0.281000
     21 CAG         2.6100    4.8880    7.5190 ca        1 Y04     -0.097000
     22 CAK         2.6660    4.0330    6.4400 ca        1 Y04     -0.258000
     23 H3          1.3280    2.0470   -2.5670 ha        1 Y04      0.143000
     24 H4          0.6150    4.4390   -2.4870 ha        1 Y04      0.096000
     25 H5          1.0390    5.7840   -0.4180 ha        1 Y04      0.100000
     26 H6          2.2040    4.7160    1.5320 ha        1 Y04      0.170000
     27 H7          1.4880    1.4600    2.3470 h1        1 Y04      0.069700
     28 H8          3.1110    0.6650    2.6520 h1        1 Y04      0.069700
     29 H9          0.6260   -0.7500   -0.8460 ho        1 Y04      0.416000
     30 H10         0.8420    7.4460    6.1490 ha        1 Y04      0.095000
     31 H11         1.9170    6.7950    8.2990 ha        1 Y04      0.088000
     32 H12         3.0880    4.5970    8.4670 ha        1 Y04      0.084000
     33 H13         3.1880    3.0670    6.5340 ha        1 Y04      0.157000
@<TRIPOS>BOND
     1    1    2 1   
     2    2    3 1   
     3    2    4 1   
     4    2    5 1   
     5    3   29 1   
     6    5    6 ar  
     7    5   10 ar  
     8    6    7 ar  
     9    6   23 1   
    10    7    8 ar  
    11    7   24 1   
    12    8    9 ar  
    13    8   25 1   
    14    9   10 ar  
    15    9   26 1   
    16   10   11 1   
    17   11   12 1   
    18   12   13 1   
    19   12   27 1   
    20   12   28 1   
    21   13   14 1   
    22   13   15 2   
    23   15   16 1   
    24   16   17 ar  
    25   16   22 ar  
    26   17   18 1   
    27   17   19 ar  
    28   19   20 ar  
    29   19   30 1   
    30   20   21 ar  
    31   20   31 1   
    32   21   22 ar  
    33   21   32 1   
    34   22   33 1   
@<TRIPOS>SUBSTRUCTURE
     1 Y04         1 TEMP              0 ****  ****    0 ROOT
