@<TRIPOS>MOLECULE
Y04
   33    34     1     0     0
SMALL
bcc


@<TRIPOS>ATOM
      1 OAC         3.5550    0.3360   -2.1190 o         1 Y04     -0.870500
      2 PAV         2.6430    0.4070   -0.9530 p5        1 Y04      1.389900
      3 OAD         1.1610   -0.1030   -1.4960 oh        1 Y04     -0.806400
      4 OAB         2.7750   -0.4580    0.2430 o         1 Y04     -0.870500
      5 CAU         2.3120    2.0310   -0.5830 ca        1 Y04     -0.326500
      6 CAM         1.7040    2.6590   -1.6830 ca        1 Y04     -0.070000
      7 CAI         1.2960    3.9850   -1.6600 ca        1 Y04     -0.194000
      8 CAH         1.4850    4.7370   -0.4970 ca        1 Y04     -0.127000
      9 CAL         2.0930    4.1570    0.6050 ca        1 Y04     -0.160000
     10 CAT         2.5290    2.8110    0.5570 ca        1 Y04      0.199100
     11 OAP         3.2740    2.4300    1.6710 os        1 Y04     -0.343900
     12 CAN         2.5600    1.6460    2.6350 c3        1 Y04      0.089400
     13 CAQ         2.5800    2.3410    4.0090 c2        1 Y04      0.564300
     14 OAA         3.0780    1.6690    4.9560 o         1 Y04     -0.749300
     15 NAO         2.0010    3.5810    4.0600 ne        1 Y04     -0.549400
     16 CAS         1.9410    4.3440    5.1730 ca        1 Y04      0.309400
     17 CAR         1.2760    5.6210    5.1100 ca        1 Y04     -0.077600
     18 CL1         0.5650    6.1570    3.6420 cl        1 Y04     -0.165400
     19 CAJ         1.1780    6.4680    6.2050 ca        1 Y04     -0.094000
     20 CAF         1.7270    6.1140    7.4340 ca        1 Y04     -0.281000
     21 CAG         2.3840    4.8840    7.5430 ca        1 Y04     -0.097000
     22 CAK         2.4900    4.0300    6.4660 ca        1 Y04     -0.258000
     23 H3          1.5530    2.0510   -2.5930 ha        1 Y04      0.143000
     24 H4          0.8230    4.4390   -2.5400 ha        1 Y04      0.096000
     25 H5          1.1490    5.7820   -0.4540 ha        1 Y04      0.100000
     26 H6          2.2340    4.7190    1.5440 ha        1 Y04      0.170000
     27 H7          3.1170    0.6710    2.6970 h1        1 Y04      0.069700
     28 H8          1.5040    1.4570    2.3230 h1        1 Y04      0.069700
     29 H9          0.7940   -0.7530   -0.9090 ho        1 Y04      0.416000
     30 H10         0.6590    7.4330    6.1020 ha        1 Y04      0.095000
     31 H11         1.6460    6.7860    8.2950 ha        1 Y04      0.088000
     32 H12         2.8230    4.5950    8.5100 ha        1 Y04      0.084000
     33 H13         3.0130    3.0670    6.5810 ha        1 Y04      0.157000
@<TRIPOS>BOND
     1    1    2 1   
     2    2    3 1   
     3    2    4 1   
     4    2    5 1   
     5    3   29 1   
     6    5    6 ar  
     7    5   10 ar  
     8    6    7 ar  
     9    6   23 1   
    10    7    8 ar  
    11    7   24 1   
    12    8    9 ar  
    13    8   25 1   
    14    9   10 ar  
    15    9   26 1   
    16   10   11 1   
    17   11   12 1   
    18   12   13 1   
    19   12   27 1   
    20   12   28 1   
    21   13   14 1   
    22   13   15 2   
    23   15   16 1   
    24   16   17 ar  
    25   16   22 ar  
    26   17   18 1   
    27   17   19 ar  
    28   19   20 ar  
    29   19   30 1   
    30   20   21 ar  
    31   20   31 1   
    32   21   22 ar  
    33   21   32 1   
    34   22   33 1   
@<TRIPOS>SUBSTRUCTURE
     1 Y04         1 TEMP              0 ****  ****    0 ROOT
