@<TRIPOS>MOLECULE
Y04
   33    34     1     0     0
SMALL
bcc


@<TRIPOS>ATOM
      1 OAC         5.5590   -1.1090    2.0350 o         1 Y04     -0.871500
      2 PAV         4.2800   -0.3700    1.8760 p5        1 Y04      1.384900
      3 OAD         3.2670   -0.8770    3.0630 oh        1 Y04     -0.786400
      4 OAB         4.2310    1.1100    1.9420 o         1 Y04     -0.871500
      5 CAU         3.4770   -0.9040    0.4590 ca        1 Y04     -0.312500
      6 CAM         4.4020   -1.4170   -0.4620 ca        1 Y04     -0.085000
      7 CAI         4.0390   -1.8510   -1.7300 ca        1 Y04     -0.198000
      8 CAH         2.6980   -1.7920   -2.1140 ca        1 Y04     -0.121000
      9 CAL         1.7500   -1.3110   -1.2250 ca        1 Y04     -0.196000
     10 CAT         2.1340   -0.8720    0.0630 ca        1 Y04      0.196100
     11 OAP         1.1030   -0.4990    0.9270 os        1 Y04     -0.338900
     12 CAN         0.2480    0.5400    0.4380 c3        1 Y04      0.080400
     13 CAQ        -1.1260    0.0000    0.0060 c2        1 Y04      0.558300
     14 OAA        -1.2210   -1.2040   -0.3530 o         1 Y04     -0.731300
     15 NAO        -2.1020    0.9630    0.0250 ne        1 Y04     -0.566400
     16 CAS        -3.3950    0.7390   -0.2990 ca        1 Y04      0.310400
     17 CAR        -4.3130    1.8480   -0.3040 ca        1 Y04     -0.075600
     18 CL1        -3.7680    3.4320    0.0740 cl        1 Y04     -0.167400
     19 CAJ        -5.6600    1.7020   -0.6090 ca        1 Y04     -0.095000
     20 CAF        -6.1870    0.4540   -0.9300 ca        1 Y04     -0.275000
     21 CAG        -5.3310   -0.6520   -0.9400 ca        1 Y04     -0.096000
     22 CAK        -3.9920   -0.5240   -0.6390 ca        1 Y04     -0.255000
     23 H3          5.4590   -1.4800   -0.1370 ha        1 Y04      0.163000
     24 H4          4.7960   -2.2400   -2.4230 ha        1 Y04      0.097000
     25 H5          2.3920   -2.1340   -3.1120 ha        1 Y04      0.098000
     26 H6          0.6790   -1.2880   -1.4900 ha        1 Y04      0.166000
     27 H7          0.1460    1.2320    1.3180 h1        1 Y04      0.063700
     28 H8          0.7110    1.0830   -0.4240 h1        1 Y04      0.063700
     29 H9          2.4290   -0.4290    3.0380 ho        1 Y04      0.425000
     30 H10        -6.3210    2.5820   -0.5970 ha        1 Y04      0.097000
     31 H11        -7.2500    0.3440   -1.1700 ha        1 Y04      0.090000
     32 H12        -5.7380   -1.6430   -1.1920 ha        1 Y04      0.087000
     33 H13        -3.3410   -1.4130   -0.6540 ha        1 Y04      0.159000
@<TRIPOS>BOND
     1    1    2 1   
     2    2    3 1   
     3    2    4 1   
     4    2    5 1   
     5    3   29 1   
     6    5    6 ar  
     7    5   10 ar  
     8    6    7 ar  
     9    6   23 1   
    10    7    8 ar  
    11    7   24 1   
    12    8    9 ar  
    13    8   25 1   
    14    9   10 ar  
    15    9   26 1   
    16   10   11 1   
    17   11   12 1   
    18   12   13 1   
    19   12   27 1   
    20   12   28 1   
    21   13   14 1   
    22   13   15 2   
    23   15   16 1   
    24   16   17 ar  
    25   16   22 ar  
    26   17   18 1   
    27   17   19 ar  
    28   19   20 ar  
    29   19   30 1   
    30   20   21 ar  
    31   20   31 1   
    32   21   22 ar  
    33   21   32 1   
    34   22   33 1   
@<TRIPOS>SUBSTRUCTURE
     1 Y04         1 TEMP              0 ****  ****    0 ROOT
