@<TRIPOS>MOLECULE
Y06
   33    34     1     0     0
SMALL
bcc


@<TRIPOS>ATOM
      1 OAS         4.4420    2.6120    0.7880 o         1 Y06     -0.871500
      2 PAR         4.5200    1.7280   -0.4030 p5        1 Y06      1.384900
      3 OAU         5.7320    1.6850   -1.2560 o         1 Y06     -0.871500
      4 OAT         4.3170    0.1840    0.1140 oh        1 Y06     -0.786400
      5 CAM         3.1390    1.9640   -1.3900 ca        1 Y06     -0.311500
      6 CAN         2.6000    3.2420   -1.1810 ca        1 Y06     -0.086000
      7 CAO         1.5220    3.7310   -1.9070 ca        1 Y06     -0.196000
      8 CAP         0.9330    2.9240   -2.8830 ca        1 Y06     -0.123000
      9 CAQ         1.4250    1.6470   -3.1060 ca        1 Y06     -0.194000
     10 CAL         2.5210    1.1620   -2.3570 ca        1 Y06      0.192100
     11 OAK         2.8760   -0.1710   -2.5750 os        1 Y06     -0.340900
     12 CAA         3.2740   -0.4760   -3.9160 c3        1 Y06      0.080400
     13 CAB         2.2130   -1.3160   -4.6480 c2        1 Y06      0.558300
     14 OAD         0.9980   -1.1540   -4.3490 o         1 Y06     -0.736300
     15 NAC         2.7490   -2.1310   -5.6090 ne        1 Y06     -0.579400
     16 CAE         2.0180   -2.9510   -6.4030 ca        1 Y06      0.304400
     17 CAF         2.7310   -3.7130   -7.3960 ca        1 Y06     -0.226000
     18 CAG         2.0550   -4.5740   -8.2410 ca        1 Y06      0.074400
     19 Cl1         2.9530   -5.4650   -9.4180 cl        1 Y06     -0.209400
     20 CAH         0.6710   -4.7560   -8.1880 ca        1 Y06     -0.277000
     21 CAI        -0.0360   -4.0270   -7.2290 ca        1 Y06     -0.089000
     22 CAJ         0.6000   -3.1560   -6.3660 ca        1 Y06     -0.260000
     23 H3          3.0620    3.8640   -0.3880 ha        1 Y06      0.164000
     24 H4          1.1330    4.7390   -1.7150 ha        1 Y06      0.097000
     25 H5          0.0780    3.2930   -3.4660 ha        1 Y06      0.098000
     26 H6          0.9600    0.9760   -3.8480 ha        1 Y06      0.170000
     27 H7          4.2290   -1.0520   -3.7860 h1        1 Y06      0.061200
     28 H8          3.4660    0.4520   -4.5110 h1        1 Y06      0.061200
     29 H9          4.3850   -0.4460   -0.5950 ho        1 Y06      0.425000
     30 H10         3.8210   -3.6010   -7.4710 ha        1 Y06      0.133000
     31 H11         0.1600   -5.4440   -8.8690 ha        1 Y06      0.105000
     32 H12        -1.1270   -4.1540   -7.1650 ha        1 Y06      0.090000
     33 H13         0.0110   -2.5970   -5.6210 ha        1 Y06      0.158000
@<TRIPOS>BOND
     1    1    2 1   
     2    2    3 1   
     3    2    4 1   
     4    2    5 1   
     5    4   29 1   
     6    5    6 ar  
     7    5   10 ar  
     8    6    7 ar  
     9    6   23 1   
    10    7    8 ar  
    11    7   24 1   
    12    8    9 ar  
    13    8   25 1   
    14    9   10 ar  
    15    9   26 1   
    16   10   11 1   
    17   11   12 1   
    18   12   13 1   
    19   12   27 1   
    20   12   28 1   
    21   13   14 1   
    22   13   15 2   
    23   15   16 1   
    24   16   17 ar  
    25   16   22 ar  
    26   17   18 ar  
    27   17   30 1   
    28   18   19 1   
    29   18   20 ar  
    30   20   21 ar  
    31   20   31 1   
    32   21   22 ar  
    33   21   32 1   
    34   22   33 1   
@<TRIPOS>SUBSTRUCTURE
     1 Y06         1 TEMP              0 ****  ****    0 ROOT
