@<TRIPOS>MOLECULE
Y06
   33    34     1     0     0
SMALL
bcc


@<TRIPOS>ATOM
      1 OAS         2.0300    0.6180    1.5170 o         1 Y06     -0.878500
      2 PAR         3.1190    1.0330    0.5970 p5        1 Y06      1.392900
      3 OAU         4.1630    1.9820    1.0640 o         1 Y06     -0.878500
      4 OAT         3.8860   -0.3510    0.1560 oh        1 Y06     -0.794400
      5 CAM         2.4720    1.5800   -0.8850 ca        1 Y06     -0.333500
      6 CAN         2.4020    2.9810   -0.8910 ca        1 Y06     -0.076000
      7 CAO         1.9030    3.7060   -1.9640 ca        1 Y06     -0.212000
      8 CAP         1.4510    3.0220   -3.0960 ca        1 Y06     -0.127000
      9 CAQ         1.5120    1.6400   -3.1320 ca        1 Y06     -0.189000
     10 CAL         2.0170    0.9100   -2.0290 ca        1 Y06      0.195100
     11 OAK         1.9590   -0.4890   -2.1240 os        1 Y06     -0.227200
     12 CAA         2.6200   -1.0210   -3.2200 c2        1 Y06     -0.396900
     13 CAB         1.9190   -1.3580   -4.3780 c2        1 Y06      0.653300
     14 OAD         0.7110   -1.1240   -4.6730 o         1 Y06     -0.778300
     15 NAC         2.7220   -2.0830   -5.3530 n         1 Y06     -0.463100
     16 CAE         2.3530   -2.6260   -6.5500 ca        1 Y06      0.164600
     17 CAF         3.3260   -3.3220   -7.3330 ca        1 Y06     -0.275000
     18 CAG         2.9730   -3.8750   -8.5570 ca        1 Y06      0.081400
     19 CL1         4.1740   -4.7040   -9.4680 cl        1 Y06     -0.180400
     20 CAH         1.6830   -3.7830   -9.0720 ca        1 Y06     -0.246000
     21 CAI         0.7250   -3.1030   -8.3100 ca        1 Y06     -0.096000
     22 CAJ         1.0310   -2.5380   -7.0880 ca        1 Y06     -0.195000
     23 H3          2.7960    3.5120   -0.0040 ha        1 Y06      0.146000
     24 H4          1.8660    4.8030   -1.9290 ha        1 Y06      0.090000
     25 H5          1.0490    3.5800   -3.9540 ha        1 Y06      0.089000
     26 H6          1.1610    1.0720   -4.0100 ha        1 Y06      0.160000
     27 H7          3.3240   -0.9460   -0.3280 ho        1 Y06      0.430000
     28 H8          3.6820   -1.1890   -3.0430 h4        1 Y06      0.113000
     29 H9          3.6700   -2.2340   -5.0880 hn        1 Y06      0.290500
     30 H10         4.3570   -3.4210   -6.9660 ha        1 Y06      0.128000
     31 H11         1.4220   -4.2240  -10.0390 ha        1 Y06      0.115000
     32 H12        -0.3010   -3.0200   -8.6990 ha        1 Y06      0.108000
     33 H13         0.2560   -2.0090   -6.5050 ha        1 Y06      0.193000
@<TRIPOS>BOND
     1    1    2 1   
     2    2    3 1   
     3    2    4 1   
     4    2    5 1   
     5    4   27 1   
     6    5    6 ar  
     7    5   10 ar  
     8    6    7 ar  
     9    6   23 1   
    10    7    8 ar  
    11    7   24 1   
    12    8    9 ar  
    13    8   25 1   
    14    9   10 ar  
    15    9   26 1   
    16   10   11 1   
    17   11   12 1   
    18   12   13 2   
    19   12   28 1   
    20   13   14 1   
    21   13   15 1   
    22   15   16 1   
    23   15   29 1   
    24   16   17 ar  
    25   16   22 ar  
    26   17   18 ar  
    27   17   30 1   
    28   18   19 1   
    29   18   20 ar  
    30   20   21 ar  
    31   20   31 1   
    32   21   22 ar  
    33   21   32 1   
    34   22   33 1   
@<TRIPOS>SUBSTRUCTURE
     1 Y06         1 TEMP              0 ****  ****    0 ROOT
