@<TRIPOS>MOLECULE
Y06
   33    34     1     0     0
SMALL
bcc


@<TRIPOS>ATOM
      1 OAS         5.3670   -1.6500   -0.7000 o         1 Y06     -0.878500
      2 PAR         4.7670   -0.4930   -1.4090 p5        1 Y06      1.392900
      3 OAU         5.6120    0.3590   -2.2880 o         1 Y06     -0.878500
      4 OAT         3.5680   -1.1120   -2.3460 oh        1 Y06     -0.794400
      5 CAM         3.9040    0.4950   -0.3170 ca        1 Y06     -0.333500
      6 CAN         4.6950    1.5860    0.0730 ca        1 Y06     -0.076000
      7 CAO         4.2590    2.5520    0.9690 ca        1 Y06     -0.212000
      8 CAP         2.9740    2.4470    1.5100 ca        1 Y06     -0.127000
      9 CAQ         2.1590    1.3900    1.1420 ca        1 Y06     -0.189000
     10 CAL         2.6180    0.4070    0.2330 ca        1 Y06      0.195100
     11 OAK         1.7530   -0.6710   -0.0120 os        1 Y06     -0.227200
     12 CAA         0.5040   -0.3120   -0.4940 c2        1 Y06     -0.396900
     13 CAB        -0.5880   -0.2100    0.3670 c2        1 Y06      0.653300
     14 OAD        -0.6120   -0.2650    1.6310 o         1 Y06     -0.778300
     15 NAC        -1.8570   -0.0200   -0.3240 n         1 Y06     -0.463100
     16 CAE        -3.1200    0.0480    0.1880 ca        1 Y06      0.164600
     17 CAF        -4.2270    0.2160   -0.7030 ca        1 Y06     -0.275000
     18 CAG        -5.5210    0.2950   -0.2030 ca        1 Y06      0.081400
     19 CL1        -6.8240    0.4990   -1.3080 cl        1 Y06     -0.180400
     20 CAH        -5.7990    0.2140    1.1580 ca        1 Y06     -0.246000
     21 CAI        -4.7210    0.0470    2.0350 ca        1 Y06     -0.096000
     22 CAJ        -3.4190   -0.0350    1.5830 ca        1 Y06     -0.195000
     23 H3          5.6960    1.6770   -0.3900 ha        1 Y06      0.146000
     24 H4          4.9090    3.3910    1.2470 ha        1 Y06      0.090000
     25 H5          2.6120    3.2010    2.2230 ha        1 Y06      0.089000
     26 H6          1.1420    1.2790    1.5530 ha        1 Y06      0.160000
     27 H7          0.4790   -0.1920   -1.5780 h4        1 Y06      0.113000
     28 H8          2.8740   -1.5160   -1.8360 ho        1 Y06      0.430000
     29 H9         -1.7920    0.0320   -1.3160 hn        1 Y06      0.290500
     30 H10        -4.0550    0.2840   -1.7860 ha        1 Y06      0.128000
     31 H11        -6.8250    0.2790    1.5360 ha        1 Y06      0.115000
     32 H12        -4.9200   -0.0200    3.1150 ha        1 Y06      0.108000
     33 H13        -2.5860   -0.1690    2.2960 ha        1 Y06      0.193000
@<TRIPOS>BOND
     1    1    2 1   
     2    2    3 1   
     3    2    4 1   
     4    2    5 1   
     5    4   28 1   
     6    5    6 ar  
     7    5   10 ar  
     8    6    7 ar  
     9    6   23 1   
    10    7    8 ar  
    11    7   24 1   
    12    8    9 ar  
    13    8   25 1   
    14    9   10 ar  
    15    9   26 1   
    16   10   11 1   
    17   11   12 1   
    18   12   13 2   
    19   12   27 1   
    20   13   14 1   
    21   13   15 1   
    22   15   16 1   
    23   15   29 1   
    24   16   17 ar  
    25   16   22 ar  
    26   17   18 ar  
    27   17   30 1   
    28   18   19 1   
    29   18   20 ar  
    30   20   21 ar  
    31   20   31 1   
    32   21   22 ar  
    33   21   32 1   
    34   22   33 1   
@<TRIPOS>SUBSTRUCTURE
     1 Y06         1 TEMP              0 ****  ****    0 ROOT
