@<TRIPOS>MOLECULE
Y06
   33    34     1     0     0
SMALL
bcc


@<TRIPOS>ATOM
      1 OAS         5.4200    1.0940   -0.0880 o         1 Y06     -0.880000
      2 PAR         4.9140    2.2900   -0.8070 p5        1 Y06      1.393900
      3 OAU         4.9990    3.6320   -0.1730 o         1 Y06     -0.880000
      4 OAT         5.7790    2.3600   -2.2010 oh        1 Y06     -0.791400
      5 CAM         3.3240    2.0100   -1.3640 ca        1 Y06     -0.341500
      6 CAN         2.4030    2.6570   -0.5270 ca        1 Y06     -0.075000
      7 CAO         1.0280    2.5370   -0.6810 ca        1 Y06     -0.220000
      8 CAP         0.5280    1.7440   -1.7170 ca        1 Y06     -0.120000
      9 CAQ         1.4050    1.1060   -2.5770 ca        1 Y06     -0.196000
     10 CAL         2.8040    1.2400   -2.4160 ca        1 Y06      0.204100
     11 OAK         3.6230    0.6510   -3.3860 os        1 Y06     -0.219200
     12 CAA         3.2710   -0.6360   -3.7600 c2        1 Y06     -0.399900
     13 CAB         2.5310   -0.8600   -4.9210 c2        1 Y06      0.653300
     14 OAD         1.9610   -0.0200   -5.6750 o         1 Y06     -0.773300
     15 NAC         2.4300   -2.2680   -5.2820 n         1 Y06     -0.464100
     16 CAE         1.8270   -2.8450   -6.3610 ca        1 Y06      0.163600
     17 CAF         1.8830   -4.2660   -6.5180 ca        1 Y06     -0.275000
     18 CAG         1.2680   -4.8750   -7.6040 ca        1 Y06      0.080400
     19 CL1         1.3590   -6.5870   -7.7540 cl        1 Y06     -0.180400
     20 CAH         0.5810   -4.1500   -8.5730 ca        1 Y06     -0.246000
     21 CAI         0.5230   -2.7590   -8.4280 ca        1 Y06     -0.096000
     22 CAJ         1.1200   -2.1110   -7.3650 ca        1 Y06     -0.195000
     23 H3          2.8120    3.2990    0.2760 ha        1 Y06      0.151000
     24 H4          0.3420    3.0580   -0.0010 ha        1 Y06      0.090000
     25 H5         -0.5570    1.6360   -1.8550 ha        1 Y06      0.088000
     26 H6          1.0340    0.4970   -3.4170 ha        1 Y06      0.152000
     27 H7          3.6850   -1.4040   -3.1070 h4        1 Y06      0.114000
     28 H8          5.6680    1.5860   -2.7410 ho        1 Y06      0.428000
     29 H9          2.9020   -2.8940   -4.6680 hn        1 Y06      0.290500
     30 H10         2.4160   -4.8790   -5.7780 ha        1 Y06      0.128000
     31 H11         0.1010   -4.6460   -9.4230 ha        1 Y06      0.115000
     32 H12        -0.0140   -2.1680   -9.1840 ha        1 Y06      0.108000
     33 H13         1.0610   -1.0120   -7.2740 ha        1 Y06      0.193000
@<TRIPOS>BOND
     1    1    2 1   
     2    2    3 1   
     3    2    4 1   
     4    2    5 1   
     5    4   28 1   
     6    5    6 ar  
     7    5   10 ar  
     8    6    7 ar  
     9    6   23 1   
    10    7    8 ar  
    11    7   24 1   
    12    8    9 ar  
    13    8   25 1   
    14    9   10 ar  
    15    9   26 1   
    16   10   11 1   
    17   11   12 1   
    18   12   13 2   
    19   12   27 1   
    20   13   14 1   
    21   13   15 1   
    22   15   16 1   
    23   15   29 1   
    24   16   17 ar  
    25   16   22 ar  
    26   17   18 ar  
    27   17   30 1   
    28   18   19 1   
    29   18   20 ar  
    30   20   21 ar  
    31   20   31 1   
    32   21   22 ar  
    33   21   32 1   
    34   22   33 1   
@<TRIPOS>SUBSTRUCTURE
     1 Y06         1 TEMP              0 ****  ****    0 ROOT
