@<TRIPOS>MOLECULE
Y07
   36    29     1     0     0
SMALL
bcc


@<TRIPOS>ATOM
      1 OAI        -2.2300    1.9130    1.8230 o         1 Y07     -1.068000
      2 PAG        -1.6450    1.9280    3.2150 p3        1 Y07      2.646000
      3 OAJ        -2.5230    2.7570    4.1210 o         1 Y07     -1.068000
      4 OAH        -1.5670    0.5150    3.7440 o         1 Y07     -1.068000
      5 CAC         0.0220    2.6460    3.1640 c1        1 Y07     -0.278500
      6 CAD         0.3000    3.8010    3.8780 c1        1 Y07     -0.127500
      7 CAE         1.5870    4.3130    3.8930 c1        1 Y07     -0.161500
      8 CAF         2.5970    3.6720    3.1940 c1        1 Y07     -0.161500
      9 CAA         2.3190    2.5170    2.4800 c1        1 Y07     -0.127500
     10 CAB         1.0310    2.0050    2.4650 c1        1 Y07     -0.278500
     11 OAK         0.7530    0.8260    1.7550 o         1 Y07     -0.229000
     12 CAL         1.0270    0.9120    0.3770 c3        1 Y07     -0.024000
     13 CAM         0.6780   -0.4000   -0.2900 c2        1 Y07      0.279000
     14 OAO         0.8030   -1.4430    0.3200 o         1 Y07     -0.430000
     15 NAN         0.2520   -0.4160   -1.6440 n         1 Y07     -0.443000
     16 CAP        -0.0270   -1.6520   -2.2850 c2        1 Y07      0.210000
     17 CAU        -1.3400   -2.0310   -2.5150 c2        1 Y07     -0.191000
     18 CAQ        -1.6120   -3.2060   -3.1980 c1        1 Y07     -0.103000
     19 CAW        -3.0450   -3.5960   -3.4930 c3        1 Y07      0.461000
     20 FAY        -3.4160   -3.0770   -4.6710 f         1 Y07     -0.192667
     21 FAZ        -3.1440   -4.9300   -3.5420 f         1 Y07     -0.192667
     22 FAX        -3.8440   -3.1240   -2.5270 f         1 Y07     -0.192667
     23 CAR        -0.5710   -4.0020   -3.6500 c1        1 Y07     -0.161500
     24 CAS         0.7420   -3.6230   -3.4200 c1        1 Y07     -0.161500
     25 CAT         1.0140   -2.4480   -2.7370 c1        1 Y07     -0.199000
     26 CL1         2.6650   -1.9400   -2.5000 cl        1 Y07     -0.059000
     27 H3         -0.4110    4.2530    4.3710 ha        1 Y07      0.164000
     28 H4          1.7830    5.1270    4.3970 ha        1 Y07      0.104250
     29 H5          3.5090    4.0170    3.2270 ha        1 Y07      0.104250
     30 H6          3.0290    2.0650    1.9880 ha        1 Y07      0.164000
     31 H7          1.9780    1.1030    0.2440 h1        1 Y07      0.110500
     32 H8          0.4920    1.6320   -0.0180 h1        1 Y07      0.110500
     33 H9          0.1530    0.3670   -2.1000 hn        1 Y07      0.222000
     34 H10        -2.0730   -1.4690   -2.2000 ha        1 Y07      0.137000
     35 H11        -0.7630   -4.8290   -4.1310 ha        1 Y07      0.104250
     36 H12         1.4750   -4.1840   -3.7380 ha        1 Y07      0.104250
@<TRIPOS>BOND
     1    1    2 1   
     2    2    3 1   
     3    2    4 1   
     4    5    6 1   
     5    6   27 1   
     6    7    8 1   
     7    7   28 1   
     8    8   29 1   
     9    9   10 1   
    10    9   30 1   
    11   11   12 1   
    12   12   13 1   
    13   12   31 1   
    14   12   32 1   
    15   13   14 1   
    16   13   15 1   
    17   15   16 1   
    18   15   33 1   
    19   16   17 1   
    20   16   25 1   
    21   17   18 1   
    22   17   34 1   
    23   18   19 1   
    24   19   20 1   
    25   19   21 1   
    26   19   22 1   
    27   23   24 1   
    28   23   35 1   
    29   24   36 1   
@<TRIPOS>SUBSTRUCTURE
     1 Y07         1 TEMP              0 ****  ****    0 ROOT
