@<TRIPOS>MOLECULE
Y07
   36    37     1     0     0
SMALL
bcc


@<TRIPOS>ATOM
      1 OAI         6.0740   -1.0350   -0.5280 o         1 Y07     -0.874500
      2 PAG         4.7870   -0.8300   -1.2470 p5        1 Y07      1.385900
      3 OAJ         4.7540   -0.8630   -2.7290 o         1 Y07     -0.874500
      4 OAH         3.7940   -2.0380   -0.7540 oh        1 Y07     -0.793400
      5 CAC         4.0020    0.5600   -0.6300 ca        1 Y07     -0.328500
      6 CAD         4.7760    1.1570    0.3770 ca        1 Y07     -0.075000
      7 CAE         4.4210    2.3410    1.0090 ca        1 Y07     -0.216000
      8 CAF         3.2400    2.9830    0.6310 ca        1 Y07     -0.116000
      9 CAA         2.4410    2.4150   -0.3450 ca        1 Y07     -0.216000
     10 CAB         2.8030    1.1940   -0.9780 ca        1 Y07      0.209100
     11 OAK         1.8930    0.8890   -1.9950 os        1 Y07     -0.254200
     12 CAL         1.2790   -0.3510   -1.9880 c2        1 Y07     -0.376900
     13 CAM         0.0440   -0.5730   -1.3830 c2        1 Y07      0.642300
     14 OAO        -0.6570   -1.6220   -1.5150 o         1 Y07     -0.790300
     15 NAN        -0.4780    0.4880   -0.5340 n         1 Y07     -0.437100
     16 CAP        -1.7100    0.6120    0.0210 ca        1 Y07      0.172600
     17 CAU        -2.7350   -0.3890   -0.1070 ca        1 Y07     -0.147000
     18 CAQ        -3.9760   -0.2090    0.4680 ca        1 Y07     -0.126300
     19 CAW        -5.0520   -1.2720    0.2960 c3        1 Y07      0.686200
     20 FAY        -4.6120   -2.5450    0.0360 f         1 Y07     -0.255633
     21 FAZ        -5.8770   -1.4410    1.3890 f         1 Y07     -0.255633
     22 FAX        -5.9460   -1.0250   -0.7230 f         1 Y07     -0.255633
     23 CAR        -4.3000    0.9410    1.2040 ca        1 Y07     -0.220000
     24 CAS        -3.3340    1.9220    1.3510 ca        1 Y07     -0.077000
     25 CAT        -2.0730    1.7740    0.7770 ca        1 Y07     -0.117600
     26 CL1        -0.9500    3.0430    1.0070 cl        1 Y07     -0.132400
     27 H3          5.7190    0.6470    0.6650 ha        1 Y07      0.175000
     28 H4          5.0580    2.7690    1.7930 ha        1 Y07      0.095000
     29 H5          2.9440    3.9270    1.1100 ha        1 Y07      0.089000
     30 H6          1.5130    2.9140   -0.6610 ha        1 Y07      0.116000
     31 H7          1.7290   -1.0950   -2.6460 h4        1 Y07      0.161000
     32 H8          2.9730   -2.0630   -1.2330 ho        1 Y07      0.433000
     33 H9          0.1630    1.2420   -0.3830 hn        1 Y07      0.323500
     34 H10        -2.5030   -1.3120   -0.6740 ha        1 Y07      0.212000
     35 H11        -5.2940    1.0480    1.6550 ha        1 Y07      0.120000
     36 H12        -3.5640    2.8310    1.9270 ha        1 Y07      0.118000
@<TRIPOS>BOND
     1    1    2 1   
     2    2    3 1   
     3    2    4 1   
     4    2    5 1   
     5    4   32 1   
     6    5    6 ar  
     7    5   10 ar  
     8    6    7 ar  
     9    6   27 1   
    10    7    8 ar  
    11    7   28 1   
    12    8    9 ar  
    13    8   29 1   
    14    9   10 ar  
    15    9   30 1   
    16   10   11 1   
    17   11   12 1   
    18   12   13 2   
    19   12   31 1   
    20   13   14 1   
    21   13   15 1   
    22   15   16 1   
    23   15   33 1   
    24   16   17 ar  
    25   16   25 ar  
    26   17   18 ar  
    27   17   34 1   
    28   18   19 1   
    29   18   23 ar  
    30   19   20 1   
    31   19   21 1   
    32   19   22 1   
    33   23   24 ar  
    34   23   35 1   
    35   24   25 ar  
    36   24   36 1   
    37   25   26 1   
@<TRIPOS>SUBSTRUCTURE
     1 Y07         1 TEMP              0 ****  ****    0 ROOT
