@<TRIPOS>MOLECULE
Y07
   36    37     1     0     0
SMALL
bcc


@<TRIPOS>ATOM
      1 OAI        -0.2060    3.0420   -0.8180 o         1 Y07     -0.878500
      2 PAG         0.7530    2.2840    0.0240 p5        1 Y07      1.391900
      3 OAJ         1.2030    2.8350    1.3290 o         1 Y07     -0.878500
      4 OAH         0.0210    0.8470    0.3320 oh        1 Y07     -0.791400
      5 CAC         2.1080    1.8200   -0.9070 ca        1 Y07     -0.334500
      6 CAD         3.2010    2.6490   -0.6150 ca        1 Y07     -0.078000
      7 CAE         4.4150    2.5600   -1.2820 ca        1 Y07     -0.214000
      8 CAF         4.5700    1.6010   -2.2870 ca        1 Y07     -0.122000
      9 CAA         3.5210    0.7500   -2.5900 ca        1 Y07     -0.193000
     10 CAB         2.2900    0.8460   -1.8990 ca        1 Y07      0.200100
     11 OAK         1.3220   -0.1270   -2.1880 os        1 Y07     -0.225200
     12 CAL         1.0510   -0.2990   -3.5370 c2        1 Y07     -0.375900
     13 CAM         1.6410   -1.3400   -4.2470 c2        1 Y07      0.642300
     14 OAO         2.5510   -2.1420   -3.8900 o         1 Y07     -0.772300
     15 NAN         1.1000   -1.4980   -5.5980 ns        1 Y07     -0.446100
     16 CAP         1.3610   -2.4550   -6.5240 ca        1 Y07      0.169600
     17 CAU         2.2680   -3.5470   -6.2950 ca        1 Y07     -0.142000
     18 CAQ         2.4990   -4.4900   -7.2750 ca        1 Y07     -0.125300
     19 CAW         3.4790   -5.6260   -7.0190 c3        1 Y07      0.686200
     20 FAY         3.6830   -5.9620   -5.7040 f         1 Y07     -0.253300
     21 FAZ         3.1340   -6.8270   -7.6020 f         1 Y07     -0.253300
     22 FAX         4.7510   -5.4070   -7.5000 f         1 Y07     -0.253300
     23 CAR         1.8680   -4.4370   -8.5280 ca        1 Y07     -0.214000
     24 CAS         0.9850   -3.4010   -8.7800 ca        1 Y07     -0.076000
     25 CAT         0.7320   -2.4320   -7.8100 ca        1 Y07     -0.119600
     26 Cl1        -0.3750   -1.1870   -8.2100 cl        1 Y07     -0.142400
     27 H3          3.0720    3.3890    0.1980 ha        1 Y07      0.153000
     28 H4          5.2440    3.2310   -1.0250 ha        1 Y07      0.091000
     29 H5          5.5230    1.5160   -2.8270 ha        1 Y07      0.090000
     30 H6          3.6250   -0.0310   -3.3610 ha        1 Y07      0.154000
     31 H7          0.3090    0.4020   -3.9220 h4        1 Y07      0.119000
     32 H8         -0.1910    0.3670   -0.4600 ho        1 Y07      0.428000
     33 H9          0.4300   -0.8060   -5.8600 hn        1 Y07      0.305500
     34 H10         2.7760   -3.6140   -5.3120 ha        1 Y07      0.215000
     35 H11         2.0700   -5.2070   -9.2830 ha        1 Y07      0.123000
     36 H12         0.4770   -3.3400   -9.7540 ha        1 Y07      0.120000
@<TRIPOS>BOND
     1    1    2 1   
     2    2    3 1   
     3    2    4 1   
     4    2    5 1   
     5    4   32 1   
     6    5    6 ar  
     7    5   10 ar  
     8    6    7 ar  
     9    6   27 1   
    10    7    8 ar  
    11    7   28 1   
    12    8    9 ar  
    13    8   29 1   
    14    9   10 ar  
    15    9   30 1   
    16   10   11 1   
    17   11   12 1   
    18   12   13 2   
    19   12   31 1   
    20   13   14 1   
    21   13   15 1   
    22   15   16 1   
    23   15   33 1   
    24   16   17 ar  
    25   16   25 ar  
    26   17   18 ar  
    27   17   34 1   
    28   18   19 1   
    29   18   23 ar  
    30   19   20 1   
    31   19   21 1   
    32   19   22 1   
    33   23   24 ar  
    34   23   35 1   
    35   24   25 ar  
    36   24   36 1   
    37   25   26 1   
@<TRIPOS>SUBSTRUCTURE
     1 Y07         1 TEMP              0 ****  ****    0 ROOT
