@<TRIPOS>MOLECULE
Y07
   36    37     1     0     0
SMALL
bcc


@<TRIPOS>ATOM
      1 OAI         3.7620    1.1350    1.3390 o         1 Y07     -0.877500
      2 PAG         4.0050    1.8420    0.0570 p5        1 Y07      1.390900
      3 OAJ         4.5260    3.2340    0.0590 o         1 Y07     -0.877500
      4 OAH         5.0860    0.9180   -0.7640 oh        1 Y07     -0.793400
      5 CAC         2.6230    1.7530   -0.9420 ca        1 Y07     -0.325500
      6 CAD         1.8750    2.9360   -0.8420 ca        1 Y07     -0.079000
      7 CAE         0.6890    3.1360   -1.5360 ca        1 Y07     -0.206000
      8 CAF         0.2130    2.1270   -2.3780 ca        1 Y07     -0.129000
      9 CAA         0.9280    0.9490   -2.5090 ca        1 Y07     -0.185000
     10 CAB         2.1300    0.7530   -1.7890 ca        1 Y07      0.189100
     11 OAK         2.7230   -0.5150   -1.9200 os        1 Y07     -0.233200
     12 CAL         3.1950   -0.7910   -3.1940 c2        1 Y07     -0.373900
     13 CAM         2.4220   -1.5330   -4.0820 c2        1 Y07      0.642300
     14 OAO         1.2290   -1.9380   -3.9670 o         1 Y07     -0.777300
     15 NAN         3.1300   -1.8810   -5.3160 n         1 Y07     -0.445100
     16 CAP         2.7460   -2.7020   -6.3250 ca        1 Y07      0.169600
     17 CAU         1.5000   -3.4190   -6.3270 ca        1 Y07     -0.142000
     18 CAQ         1.1590   -4.2400   -7.3810 ca        1 Y07     -0.125300
     19 CAW        -0.1740   -4.9740   -7.3700 c3        1 Y07      0.686200
     20 FAY        -0.7260   -5.2070   -6.1350 f         1 Y07     -0.253300
     21 FAZ        -1.1840   -4.3440   -8.0640 f         1 Y07     -0.253300
     22 FAX        -0.1460   -6.2280   -7.9440 f         1 Y07     -0.253300
     23 CAR         1.9980   -4.4180   -8.4930 ca        1 Y07     -0.215000
     24 CAS         3.2080   -3.7450   -8.5210 ca        1 Y07     -0.076000
     25 CAT         3.5800   -2.9070   -7.4710 ca        1 Y07     -0.119600
     26 CL1         5.0940   -2.1150   -7.5930 cl        1 Y07     -0.142400
     27 H3          2.2830    3.7410   -0.2020 ha        1 Y07      0.147000
     28 H4          0.1340    4.0770   -1.4310 ha        1 Y07      0.091000
     29 H5         -0.7240    2.2700   -2.9330 ha        1 Y07      0.091000
     30 H6          0.5840    0.1350   -3.1690 ha        1 Y07      0.162000
     31 H7          4.7580    0.0440   -0.9480 ho        1 Y07      0.429000
     32 H8          4.2050   -0.4190   -3.3720 h4        1 Y07      0.121000
     33 H9          4.0320   -1.4620   -5.4090 hn        1 Y07      0.305500
     34 H10         0.8200   -3.2970   -5.4590 ha        1 Y07      0.214000
     35 H11         1.6980   -5.0820   -9.3120 ha        1 Y07      0.123000
     36 H12         3.8820   -3.8710   -9.3810 ha        1 Y07      0.120000
@<TRIPOS>BOND
     1    1    2 1   
     2    2    3 1   
     3    2    4 1   
     4    2    5 1   
     5    4   31 1   
     6    5    6 ar  
     7    5   10 ar  
     8    6    7 ar  
     9    6   27 1   
    10    7    8 ar  
    11    7   28 1   
    12    8    9 ar  
    13    8   29 1   
    14    9   10 ar  
    15    9   30 1   
    16   10   11 1   
    17   11   12 1   
    18   12   13 2   
    19   12   32 1   
    20   13   14 1   
    21   13   15 1   
    22   15   16 1   
    23   15   33 1   
    24   16   17 ar  
    25   16   25 ar  
    26   17   18 ar  
    27   17   34 1   
    28   18   19 1   
    29   18   23 ar  
    30   19   20 1   
    31   19   21 1   
    32   19   22 1   
    33   23   24 ar  
    34   23   35 1   
    35   24   25 ar  
    36   24   36 1   
    37   25   26 1   
@<TRIPOS>SUBSTRUCTURE
     1 Y07         1 TEMP              0 ****  ****    0 ROOT
