@<TRIPOS>MOLECULE
Y07
   36    37     1     0     0
SMALL
bcc


@<TRIPOS>ATOM
      1 OAI         1.5260    1.9890    0.9490 o         1 Y07     -0.874500
      2 PAG         2.3370    1.0340    0.1440 p5        1 Y07      1.385900
      3 OAJ         3.6800    0.6230    0.6170 o         1 Y07     -0.874500
      4 OAH         1.4570   -0.3450    0.0520 oh        1 Y07     -0.793400
      5 CAC         2.3740    1.5500   -1.4880 ca        1 Y07     -0.328500
      6 CAD         1.6510    2.7430   -1.6440 ca        1 Y07     -0.076000
      7 CAE         1.5680    3.4310   -2.8480 ca        1 Y07     -0.215000
      8 CAF         2.2350    2.9250   -3.9650 ca        1 Y07     -0.116000
      9 CAA         2.9430    1.7410   -3.8540 ca        1 Y07     -0.216000
     10 CAB         3.0120    1.0340   -2.6220 ca        1 Y07      0.209100
     11 OAK         3.8710   -0.0630   -2.7430 os        1 Y07     -0.254200
     12 CAL         3.3990   -1.3160   -2.3930 c2        1 Y07     -0.376900
     13 CAM         2.8230   -2.1860   -3.3170 c2        1 Y07      0.642300
     14 OAO         2.5600   -3.4090   -3.1060 o         1 Y07     -0.789300
     15 NAN         2.4950   -1.6410   -4.6270 n         1 Y07     -0.437100
     16 CAP         2.1470   -2.2970   -5.7610 ca        1 Y07      0.172600
     17 CAU         2.0210   -3.7280   -5.8330 ca        1 Y07     -0.147000
     18 CAQ         1.6740   -4.3500   -7.0140 ca        1 Y07     -0.126300
     19 CAW         1.5340   -5.8640   -7.0620 c3        1 Y07      0.686200
     20 FAY         2.2450   -6.5670   -6.1210 f         1 Y07     -0.255633
     21 FAZ         0.2460   -6.3310   -6.9090 f         1 Y07     -0.255633
     22 FAX         1.9280   -6.4440   -8.2500 f         1 Y07     -0.255633
     23 CAR         1.4240   -3.6300   -8.1940 ca        1 Y07     -0.220000
     24 CAS         1.5360   -2.2500   -8.1580 ca        1 Y07     -0.076000
     25 CAT         1.8880   -1.5920   -6.9810 ca        1 Y07     -0.118600
     26 CL1         2.0050    0.1130   -7.0370 cl        1 Y07     -0.131400
     27 H3          1.1320    3.1460   -0.7500 ha        1 Y07      0.175000
     28 H4          0.9890    4.3590   -2.9220 ha        1 Y07      0.095000
     29 H5          2.1920    3.4570   -4.9250 ha        1 Y07      0.089000
     30 H6          3.4830    1.3340   -4.7220 ha        1 Y07      0.117000
     31 H7          3.6760   -1.6540   -1.3940 h4        1 Y07      0.161000
     32 H8          1.9310   -1.0620   -0.3540 ho        1 Y07      0.433000
     33 H9          2.5780   -0.6450   -4.6860 hn        1 Y07      0.323500
     34 H10         2.2080   -4.3210   -4.9160 ha        1 Y07      0.211000
     35 H11         1.1520   -4.1550   -9.1170 ha        1 Y07      0.120000
     36 H12         1.3440   -1.6640   -9.0700 ha        1 Y07      0.118000
@<TRIPOS>BOND
     1    1    2 1   
     2    2    3 1   
     3    2    4 1   
     4    2    5 1   
     5    4   32 1   
     6    5    6 ar  
     7    5   10 ar  
     8    6    7 ar  
     9    6   27 1   
    10    7    8 ar  
    11    7   28 1   
    12    8    9 ar  
    13    8   29 1   
    14    9   10 ar  
    15    9   30 1   
    16   10   11 1   
    17   11   12 1   
    18   12   13 2   
    19   12   31 1   
    20   13   14 1   
    21   13   15 1   
    22   15   16 1   
    23   15   33 1   
    24   16   17 ar  
    25   16   25 ar  
    26   17   18 ar  
    27   17   34 1   
    28   18   19 1   
    29   18   23 ar  
    30   19   20 1   
    31   19   21 1   
    32   19   22 1   
    33   23   24 ar  
    34   23   35 1   
    35   24   25 ar  
    36   24   36 1   
    37   25   26 1   
@<TRIPOS>SUBSTRUCTURE
     1 Y07         1 TEMP              0 ****  ****    0 ROOT
