@<TRIPOS>MOLECULE
Y08
   69    65     1     0     0
SMALL
bcc


@<TRIPOS>ATOM
      1 N1          0.7610   -0.3040    0.2500 n4        1 Y08     -0.066000
      2 O1         -1.4860    2.0150   -2.7880 oh        1 Y08     -0.442500
      3 N2         -3.8140    0.4610    1.3030 n4        1 Y08     -0.218000
      4 O2          1.3490    1.6500   -1.6940 oh        1 Y08     -0.375000
      5 O3         -0.3720   -0.3650   -2.5520 oh        1 Y08     -0.442500
      6 O4          1.7640   -3.9650    1.2960 os        1 Y08     -0.143000
      7 O5         -4.7170    1.0550    3.3450 o         1 Y08     -0.230000
      8 O6          3.5240   -2.7020    1.1260 os        1 Y08     -0.143000
      9 C01         3.2310    3.9660   -8.1250 c3        1 Y08     -0.053000
     10 C04         1.5320    2.8500   -5.1660 c1        1 Y08     -0.190000
     11 C05         1.2120    2.4450   -3.9410 c1        1 Y08     -0.121000
     12 C06         2.0440    2.2600   -2.7710 c3        1 Y08     -0.006000
     13 C07         3.9810   -3.9820    1.5340 c2        1 Y08     -0.102000
     14 C08         4.1410    2.7600   -7.9630 c3        1 Y08     -0.209667
     15 C09         3.1870    4.3740   -9.5920 c3        1 Y08     -0.209667
     16 C10         3.7540    5.1250   -7.2930 c3        1 Y08     -0.209667
     17 C11         2.8800   -4.7730    1.6400 c2        1 Y08     -0.102000
     18 C12        -0.3510    0.1640    1.0440 c1        1 Y08     -0.195000
     19 C13        -1.4210    0.7600    0.4500 c2        1 Y08     -0.433000
     20 C14        -3.7830    3.6130   -0.9280 c3        1 Y08     -0.214000
     21 C15        -4.0390    2.1570   -0.6210 c3        1 Y08     -0.169000
     22 C16        -3.7360    1.8710    0.8270 cx        1 Y08     -0.050000
     23 C17        -2.4670    1.2470    1.3120 cx        1 Y08      0.121000
     24 C19        -4.8220   -1.3110    2.7940 c3        1 Y08     -0.151000
     25 C20        -4.8420   -3.1050    1.0820 c2        1 Y08     -0.159000
     26 C21        -5.3630   -1.9910    1.5930 c2        1 Y08     -0.229000
     27 HN1         0.5770   -0.4110   -0.7580 hn        1 Y08      0.241000
     28 HO1        -2.0910    2.7600   -2.8330 ho        1 Y08      0.219250
     29 HO2         0.4360    1.9750   -1.6900 ho        1 Y08      0.232000
     30 HO3         0.1030    0.2820   -3.0870 ho        1 Y08      0.219250
     31 H02         1.4160    2.7750   -8.3440 hc        1 Y08      0.132000
     32 H03         1.1330    4.5010   -7.8570 hc        1 Y08      0.132000
     33 H04        -0.8150    2.2060   -3.4680 ho        1 Y08      0.219250
     34 H05        -1.2930   -0.0910   -2.6190 ho        1 Y08      0.219250
     35 H06         2.4370    3.2640   -2.4250 h1        1 Y08      0.129000
     36 H07         2.9220    1.5760   -2.9630 h1        1 Y08      0.129000
     37 H08         5.1810    3.0190   -8.2770 hc        1 Y08      0.081000
     38 H08A        4.1630    2.4310   -6.8960 hc        1 Y08      0.081000
     39 H08B        3.7810    1.9110   -8.5930 hc        1 Y08      0.081000
     40 H09         2.5220    5.2600   -9.7320 hc        1 Y08      0.081000
     41 H09A        2.8040    3.5340  -10.2200 hc        1 Y08      0.081000
     42 H09B        4.2130    4.6410   -9.9420 hc        1 Y08      0.081000
     43 H10         3.7680    4.8510   -6.2110 hc        1 Y08      0.081000
     44 H10A        4.7940    5.3840   -7.6080 hc        1 Y08      0.081000
     45 H10B        3.1080    6.0260   -7.4280 hc        1 Y08      0.081000
     46 H12         1.5200    0.3750    0.3540 hn        1 Y08      0.241000
     47 H12A        1.0750   -1.2150    0.6460 hn        1 Y08      0.241000
     48 H13        -1.5330    0.9200   -0.6390 ha        1 Y08      0.125000
     49 H14        -4.0650    3.8240   -1.9890 hc        1 Y08      0.092000
     50 H14A       -4.3880    4.2770   -0.2650 hc        1 Y08      0.092000
     51 H15        -2.7020    3.8600   -0.7920 hc        1 Y08      0.092000
     52 H15A       -3.4090    1.5180   -1.2990 hc        1 Y08      0.111500
     53 H16        -5.1170    1.9110   -0.8230 hc        1 Y08      0.111500
     54 H16A       -4.2420    2.6040    1.5110 hx        1 Y08      0.176000
     55 H17        -2.1400    1.4790    2.3590 hx        1 Y08      0.178000
     56 H17A       -3.9150   -0.2620    0.5990 hn        1 Y08      0.260000
     57 H19        -5.5830   -1.3490    3.6260 hc        1 Y08      0.150500
     58 H20        -3.8840   -1.8120    3.1680 hc        1 Y08      0.150500
     59 H20A       -3.9430   -3.5900    1.4900 ha        1 Y08      0.132000
     60 H21        -5.2940   -3.6160    0.2200 ha        1 Y08      0.132000
     61 H21A       -6.2820   -1.5450    1.1760 ha        1 Y08      0.139000
     62 H22         5.0550   -4.0640    1.6710 h4        1 Y08      0.233000
     63 H22A       -0.1970   -5.5150    1.4780 ha        1 Y08      0.000500
     64 H22B        0.3110   -5.9190    1.6720 ha        1 Y08      0.000500
     65 C03         1.6790    3.2040   -6.3280 c1        1 Y08     -0.008000
     66 C02         1.8040    3.6080   -7.6870 c3        1 Y08     -0.082000
     67 H121        2.6390   -5.7980    1.9020 h4        1 Y08      0.233000
     68 C18        -4.4940    0.1410    2.5550 c2        1 Y08      0.282000
     69 C22         2.1860   -2.7250    0.9930 c1        1 Y08      0.055000
@<TRIPOS>BOND
     1    1   18 1   
     2    1   27 1   
     3    1   46 1   
     4    1   47 1   
     5    2   28 1   
     6    2   33 1   
     7    3   22 1   
     8    3   23 1   
     9    3   56 1   
    10    3   68 1   
    11    4   12 1   
    12    4   29 1   
    13    5   30 1   
    14    5   34 1   
    15    6   17 1   
    16    6   69 1   
    17    7   68 1   
    18    8   13 1   
    19    8   69 1   
    20    9   14 1   
    21    9   15 1   
    22    9   16 1   
    23    9   66 1   
    24   10   11 1   
    25   10   65 1   
    26   11   12 1   
    27   12   35 1   
    28   12   36 1   
    29   13   17 1   
    30   13   62 1   
    31   14   37 1   
    32   14   38 1   
    33   14   39 1   
    34   15   40 1   
    35   15   41 1   
    36   15   42 1   
    37   16   43 1   
    38   16   44 1   
    39   16   45 1   
    40   17   67 1   
    41   18   19 1   
    42   19   23 1   
    43   19   48 1   
    44   20   21 1   
    45   20   49 1   
    46   20   50 1   
    47   20   51 1   
    48   21   22 1   
    49   21   52 1   
    50   21   53 1   
    51   22   23 1   
    52   22   54 1   
    53   23   55 1   
    54   24   26 1   
    55   24   57 1   
    56   24   58 1   
    57   24   68 1   
    58   25   26 1   
    59   25   59 1   
    60   25   60 1   
    61   26   61 1   
    62   31   66 1   
    63   32   66 1   
    64   63   64 1   
    65   65   66 1   
@<TRIPOS>SUBSTRUCTURE
     1 Y08         1 TEMP              0 ****  ****    0 ROOT
