@<TRIPOS>MOLECULE
Y08
   68    68     1     0     0
SMALL
bcc


@<TRIPOS>ATOM
      1 N1         -1.7480   -0.9560   -0.2710 n         1 Y08     -0.345000
      2 O1          4.1340    2.8240   -1.3710 oh        1 Y08     -0.328000
      3 N2         -4.3980   -2.1580    3.1030 n         1 Y08     -0.325000
      4 O2          1.6340    0.7670    0.1890 oh        1 Y08     -0.357000
      5 O3          1.6810    2.9750   -1.3170 oh        1 Y08     -0.329000
      6 O4         -0.6600    0.7870    0.7970 o         1 Y08     -0.391000
      7 O5         -3.5180   -0.7730    4.7300 o         1 Y08     -0.363000
      8 O6         -0.2790   -0.4050   -2.5000 os        1 Y08     -0.283000
      9 C01         6.4750    1.5770   -2.3840 c3        1 Y08     -0.025000
     10 C02         5.4780    1.4020   -3.5570 c2        1 Y08     -0.118000
     11 C03         4.1050    1.4400   -3.3170 c1        1 Y08     -0.174000
     12 C04         3.5820    1.6540   -1.9010 c2        1 Y08      0.046000
     13 C05         2.0650    1.7770   -1.9330 c3        1 Y08      0.001000
     14 C06         1.4430    0.6030   -1.1910 c3        1 Y08      0.004000
     15 C07        -0.0440    0.5430   -1.4930 c3        1 Y08     -0.022000
     16 C08         7.9000    1.2740   -2.8740 c3        1 Y08     -0.205000
     17 C09         6.1070    0.6090   -1.2490 c3        1 Y08     -0.205000
     18 C10         6.4100    3.0210   -1.8670 c3        1 Y08     -0.205000
     19 C11        -0.8040    0.1440   -0.2310 c2        1 Y08      0.285000
     20 C12        -2.7630   -1.0840    0.7670 c3        1 Y08     -0.032000
     21 C13        -2.9320   -2.5840    1.1440 c3        1 Y08     -0.153000
     22 C14        -4.0880   -3.1420    0.3960 c3        1 Y08     -0.156000
     23 C15        -5.3870   -2.5790    0.8690 c3        1 Y08     -0.181000
     24 C16        -5.5490   -2.6930    2.3820 c3        1 Y08     -0.024000
     25 C17        -3.1140   -2.6970    2.6570 c3        1 Y08     -0.028000
     26 C18        -4.5180   -1.1810    4.1650 c2        1 Y08      0.329000
     27 C19        -5.8390   -0.7970    4.6550 cx        1 Y08     -0.203000
     28 C20        -5.6010    0.6600    4.9880 cx        1 Y08     -0.189500
     29 C21        -5.4910   -0.3200    6.0490 cx        1 Y08     -0.189500
     30 C22        -0.9820    0.1120   -3.6280 c3        1 Y08     -0.086000
     31 HN1        -1.7080   -1.5700   -0.9500 hn        1 Y08      0.227000
     32 HO1         3.7630    2.9960   -0.5780 ho        1 Y08      0.220000
     33 HO2         2.0580    0.0530    0.5180 ho        1 Y08      0.245000
     34 HO3         1.4410    3.5680   -1.9420 ho        1 Y08      0.227000
     35 H02         5.8140    1.2650   -4.4700 ha        1 Y08      0.116000
     36 H03         3.4740    1.3290   -4.0610 ha        1 Y08      0.127000
     37 H04         3.8360    0.8900   -1.3400 h4        1 Y08      0.086000
     38 H05         1.7570    1.7750   -2.8660 h1        1 Y08      0.131000
     39 H06         1.8710   -0.2330   -1.4830 h1        1 Y08      0.095000
     40 H07        -0.3530    1.4250   -1.7960 h1        1 Y08      0.136000
     41 H08         8.1220    1.8690   -3.6250 hc        1 Y08      0.076778
     42 H08A        7.9520    0.3380   -3.1720 hc        1 Y08      0.076778
     43 H08B        8.5380    1.4200   -2.1400 hc        1 Y08      0.076778
     44 H09         5.5310   -0.1040   -1.6010 hc        1 Y08      0.076778
     45 H09A        6.9280    0.2140   -0.8750 hc        1 Y08      0.076778
     46 H09B        5.6300    1.0980   -0.5450 hc        1 Y08      0.076778
     47 H10         7.2900    3.4480   -1.9750 hc        1 Y08      0.076778
     48 H10A        5.7380    3.5220   -2.3790 hc        1 Y08      0.076778
     49 H10B        6.1620    3.0180   -0.9170 hc        1 Y08      0.076778
     50 H12        -2.4850   -0.5760    1.5610 h1        1 Y08      0.111000
     51 H12A       -3.6180   -0.7310    0.4340 h1        1 Y08      0.111000
     52 H13        -2.1180   -3.0720    0.8840 hc        1 Y08      0.108000
     53 H14        -4.1020   -4.1210    0.5120 hc        1 Y08      0.083500
     54 H14A       -3.9800   -2.9360   -0.5590 hc        1 Y08      0.083500
     55 H15        -6.1250   -3.0660    0.4310 hc        1 Y08      0.087000
     56 H15A       -5.4350   -1.6320    0.6140 hc        1 Y08      0.087000
     57 H16        -5.6620   -3.6420    2.6200 h1        1 Y08      0.090500
     58 H16A       -6.3530   -2.1990    2.6540 h1        1 Y08      0.090500
     59 H17        -3.0600   -3.6450    2.9150 h1        1 Y08      0.108500
     60 H17A       -2.3900   -2.2040    3.1030 h1        1 Y08      0.108500
     61 H19        -6.4210   -1.4050    4.1540 hc        1 Y08      0.140000
     62 H20        -4.7520    1.0350    4.6680 hc        1 Y08      0.120000
     63 H20A       -6.4030    1.2270    5.0150 hc        1 Y08      0.120000
     64 H21        -6.2290   -0.3280    6.6980 hc        1 Y08      0.120000
     65 H21A       -4.5780   -0.5190    6.3500 hc        1 Y08      0.120000
     66 H22        -1.6020    0.8150   -3.3330 h1        1 Y08      0.087667
     67 H22A       -0.3400    0.4890   -4.2690 h1        1 Y08      0.087667
     68 H22B       -1.4890   -0.6130   -4.0590 h1        1 Y08      0.087667
@<TRIPOS>BOND
     1    1   19 1   
     2    1   20 1   
     3    1   31 1   
     4    2   12 1   
     5    2   32 1   
     6    3   24 1   
     7    3   25 1   
     8    3   26 1   
     9    4   14 1   
    10    4   33 1   
    11    5   13 1   
    12    5   34 1   
    13    6   19 1   
    14    7   26 1   
    15    8   15 1   
    16    8   30 1   
    17    9   10 1   
    18    9   16 1   
    19    9   17 1   
    20    9   18 1   
    21   10   11 1   
    22   10   35 1   
    23   11   36 1   
    24   12   13 1   
    25   12   37 1   
    26   13   14 1   
    27   13   38 1   
    28   14   15 1   
    29   14   39 1   
    30   15   19 1   
    31   15   40 1   
    32   16   41 1   
    33   16   42 1   
    34   16   43 1   
    35   17   44 1   
    36   17   45 1   
    37   17   46 1   
    38   18   47 1   
    39   18   48 1   
    40   18   49 1   
    41   20   21 1   
    42   20   50 1   
    43   20   51 1   
    44   21   22 1   
    45   21   25 1   
    46   21   52 1   
    47   22   23 1   
    48   22   53 1   
    49   22   54 1   
    50   23   24 1   
    51   23   55 1   
    52   23   56 1   
    53   24   57 1   
    54   24   58 1   
    55   25   59 1   
    56   25   60 1   
    57   26   27 1   
    58   27   28 1   
    59   27   29 1   
    60   27   61 1   
    61   28   29 1   
    62   28   62 1   
    63   28   63 1   
    64   29   64 1   
    65   29   65 1   
    66   30   66 1   
    67   30   67 1   
    68   30   68 1   
@<TRIPOS>SUBSTRUCTURE
     1 Y08         1 TEMP              0 ****  ****    0 ROOT
