@<TRIPOS>MOLECULE
Y08
   68    69     1     0     0
SMALL
bcc


@<TRIPOS>ATOM
      1 N1         -1.1940   -2.1620   -0.8050 n         1 Y08     -0.552900
      2 O1          2.5980    1.6390   -0.5320 oh        1 Y08     -0.589800
      3 N2         -5.4350    0.1890    0.3890 n         1 Y08     -0.454800
      4 O2          1.0240   -0.4820   -1.5790 oh        1 Y08     -0.602800
      5 O3          3.5590   -0.9680   -1.6210 oh        1 Y08     -0.623800
      6 O4         -0.6270   -3.4310    1.0250 o         1 Y08     -0.602100
      7 O5         -6.3160    0.6190   -1.6870 o         1 Y08     -0.603100
      8 O6          2.0050   -3.0140    0.8150 os        1 Y08     -0.405600
      9 C01         6.8030    2.4450   -0.4310 c3        1 Y08     -0.029800
     10 C04         3.3660    0.6840    0.1780 c3        1 Y08      0.146300
     11 C05         3.0750   -0.7530   -0.3000 c3        1 Y08      0.079100
     12 C06         1.5560   -1.0010   -0.3740 c3        1 Y08      0.154100
     13 C07         1.2140   -2.5020   -0.2490 c3        1 Y08      0.045100
     14 C08         7.1880    2.6940   -1.8860 c3        1 Y08     -0.085100
     15 C09         7.0150    3.7280    0.3680 c3        1 Y08     -0.085100
     16 C10         7.6960    1.3530    0.1390 c3        1 Y08     -0.085100
     17 C11        -0.2760   -2.7160    0.0670 c         1 Y08      0.624100
     18 C12        -2.6050   -2.1830   -0.5340 c3        1 Y08      0.084000
     19 C13        -3.2080   -0.8270   -0.1390 c3        1 Y08     -0.116700
     20 C14        -2.6930   -0.3570    1.2110 c3        1 Y08     -0.076400
     21 C15        -3.4080    0.9000    1.6580 c3        1 Y08     -0.103400
     22 C16        -4.9270    0.7110    1.6370 c3        1 Y08      0.085000
     23 C17        -4.7380   -0.9830   -0.1000 c3        1 Y08      0.083000
     24 C19        -6.8160    2.2230    0.0170 cx        1 Y08     -0.212700
     25 C20        -7.2230    3.2820   -0.9740 cx        1 Y08     -0.111900
     26 C21        -6.0790    3.5370   -0.0410 cx        1 Y08     -0.111900
     27 HN1        -0.8750   -1.4530   -1.4290 hn        1 Y08      0.323500
     28 HO1         2.5570    1.3490   -1.4540 ho        1 Y08      0.414000
     29 HO2         1.5260   -0.8590   -2.3160 ho        1 Y08      0.425000
     30 HO3         4.4900   -0.7120   -1.6270 ho        1 Y08      0.423000
     31 H02         4.6810    2.8680   -0.7900 ha        1 Y08      0.138000
     32 H03         5.4600    0.1670    0.5530 ha        1 Y08      0.128000
     33 H04         3.0210    0.7900    1.2490 h1        1 Y08      0.087700
     34 H05         3.5620   -1.4810    0.4060 h1        1 Y08      0.082700
     35 H06         1.0420   -0.4180    0.4410 h1        1 Y08      0.101700
     36 H07         1.4620   -3.0290   -1.2140 h1        1 Y08      0.069700
     37 H08         7.0460    1.7660   -2.4890 hc        1 Y08      0.037478
     38 H08A        6.5560    3.5040   -2.3220 hc        1 Y08      0.037478
     39 H08B        8.2590    3.0010   -1.9500 hc        1 Y08      0.037478
     40 H09         8.0870    4.0360    0.3160 hc        1 Y08      0.037478
     41 H09A        6.3850    4.5520   -0.0450 hc        1 Y08      0.037478
     42 H09B        6.7390    3.5680    1.4380 hc        1 Y08      0.037478
     43 H10         8.7660    1.6650    0.0730 hc        1 Y08      0.037478
     44 H10A        7.4470    1.1640    1.2110 hc        1 Y08      0.037478
     45 H10B        7.5680    0.4040   -0.4340 hc        1 Y08      0.037478
     46 H12        -3.1220   -2.5350   -1.4740 h1        1 Y08      0.065700
     47 H12A       -2.8120   -2.9320    0.2840 h1        1 Y08      0.065700
     48 H13        -2.9430   -0.0590   -0.9170 hc        1 Y08      0.060700
     49 H14        -2.8450   -1.1690    1.9710 hc        1 Y08      0.049700
     50 H14A       -1.5910   -0.1590    1.1490 hc        1 Y08      0.049700
     51 H15        -3.0990    1.1630    2.7030 hc        1 Y08      0.049200
     52 H15A       -3.1220    1.7560    0.9930 hc        1 Y08      0.049200
     53 H16        -5.4180    1.6940    1.8780 h1        1 Y08      0.052700
     54 H16A       -5.2080   -0.0260    2.4450 h1        1 Y08      0.052700
     55 H17        -4.9950   -1.8370    0.5910 h1        1 Y08      0.067200
     56 H17A       -5.1110   -1.2350   -1.1330 h1        1 Y08      0.067200
     57 H19        -7.4830    2.0190    0.8790 hc        1 Y08      0.100700
     58 H20        -7.0160    3.1010   -2.0450 hc        1 Y08      0.080450
     59 H20A       -8.1800    3.8110   -0.8160 hc        1 Y08      0.080450
     60 H21        -6.2070    4.2470    0.7950 hc        1 Y08      0.080450
     61 H21A       -5.0510    3.5570   -0.4450 hc        1 Y08      0.080450
     62 H22         2.7760   -4.6410    1.7000 h1        1 Y08      0.046033
     63 H22A        1.1270   -4.9140    0.9330 h1        1 Y08      0.046033
     64 H22B        2.6220   -4.7760   -0.1280 h1        1 Y08      0.046033
     65 C18        -6.1560    0.9830   -0.5040 c         1 Y08      0.682100
     66 C22         2.1270   -4.4300    0.8130 c3        1 Y08      0.110700
     67 C03         4.8350    0.9620    0.1160 c2        1 Y08     -0.244200
     68 C02         5.3500    2.0900   -0.3770 c2        1 Y08     -0.118200
@<TRIPOS>BOND
     1    1   17 1   
     2    1   18 1   
     3    1   27 1   
     4    2   10 1   
     5    2   28 1   
     6    3   22 1   
     7    3   23 1   
     8    3   65 1   
     9    4   12 1   
    10    4   29 1   
    11    5   11 1   
    12    5   30 1   
    13    6   17 2   
    14    7   65 2   
    15    8   13 1   
    16    8   66 1   
    17    9   14 1   
    18    9   15 1   
    19    9   16 1   
    20    9   68 1   
    21   10   11 1   
    22   10   33 1   
    23   10   67 1   
    24   11   12 1   
    25   11   34 1   
    26   12   13 1   
    27   12   35 1   
    28   13   17 1   
    29   13   36 1   
    30   14   37 1   
    31   14   38 1   
    32   14   39 1   
    33   15   40 1   
    34   15   41 1   
    35   15   42 1   
    36   16   43 1   
    37   16   44 1   
    38   16   45 1   
    39   18   19 1   
    40   18   46 1   
    41   18   47 1   
    42   19   20 1   
    43   19   23 1   
    44   19   48 1   
    45   20   21 1   
    46   20   49 1   
    47   20   50 1   
    48   21   22 1   
    49   21   51 1   
    50   21   52 1   
    51   22   53 1   
    52   22   54 1   
    53   23   55 1   
    54   23   56 1   
    55   24   25 1   
    56   24   26 1   
    57   24   57 1   
    58   24   65 1   
    59   25   26 1   
    60   25   58 1   
    61   25   59 1   
    62   26   60 1   
    63   26   61 1   
    64   31   68 1   
    65   32   67 1   
    66   62   66 1   
    67   63   66 1   
    68   64   66 1   
    69   67   68 2   
@<TRIPOS>SUBSTRUCTURE
     1 Y08         1 TEMP              0 ****  ****    0 ROOT
