@<TRIPOS>MOLECULE
Y08
   69    64     1     0     0
SMALL
bcc


@<TRIPOS>ATOM
      1 N1         -0.1530    1.6080    0.6920 nz        1 Y08      0.089000
      2 O1         -1.6300    2.7090   -1.6440 oh        1 Y08     -0.418000
      3 N2         -4.4590   -0.0830    2.5380 nx        1 Y08     -0.079000
      4 O2          0.4450    1.0000   -1.9590 oh        1 Y08     -0.335000
      5 O3          2.8130   -0.9260   -5.0360 oh        1 Y08     -0.418000
      6 O4          2.4690    0.8770    0.4710 o         1 Y08     -0.373000
      7 O5         -4.6640   -1.5080    4.3690 o         1 Y08     -0.231000
      8 O6          3.6420   -0.5250   -2.5870 os        1 Y08     -0.095000
      9 C01         4.2970    2.6880   -7.3670 c3        1 Y08     -0.020000
     10 C04         3.5250    2.0520   -3.8170 c2        1 Y08     -0.117000
     11 C05         2.1680    1.9300   -3.3300 c2        1 Y08     -0.139000
     12 C06         1.7570    1.0240   -2.4210 c2        1 Y08     -0.011000
     13 C07         2.5390   -0.0530   -1.7380 c3        1 Y08     -0.125000
     14 C08         3.9650    1.2040   -7.3380 c3        1 Y08     -0.208000
     15 C09         3.3310    3.4030   -8.3060 c3        1 Y08     -0.208000
     16 C10         5.7240    2.8760   -7.8700 c3        1 Y08     -0.208000
     17 C11         3.1670    0.4620   -0.4610 c2        1 Y08      0.239000
     18 C12        -1.1910    1.2130    1.5160 c1        1 Y08     -0.288000
     19 C13        -2.1010    0.8900    2.2240 c1        1 Y08      0.093000
     20 C14        -4.9870    2.7680   -1.4450 c3        1 Y08     -0.227000
     21 C15        -4.8820    1.5990   -0.5110 c3        1 Y08     -0.227000
     22 C16        -4.4500    1.3120    2.9060 cu        1 Y08     -0.457000
     23 C17        -3.1990    0.5690    3.0770 cx        1 Y08      0.033000
     24 C19        -6.4150   -1.7020    2.7190 c3        1 Y08     -0.211000
     25 C20        -5.4140   -2.7510    0.6270 c1        1 Y08     -0.058000
     26 C21        -6.4040   -1.8830    1.2150 c3        1 Y08     -0.265000
     27 HN1         0.2800    0.7910    0.2130 hn        1 Y08      0.285000
     28 HO1        -1.7870    3.6210   -1.9100 ho        1 Y08      0.227500
     29 HO2        -0.1130    1.5040   -2.5720 ho        1 Y08      0.248000
     30 HO3         3.1990   -0.0380   -5.0350 ho        1 Y08      0.227500
     31 H02         4.4400    4.3860   -5.9700 ha        1 Y08      0.154000
     32 H03         4.3200    1.5690   -3.2160 ha        1 Y08      0.157000
     33 H04        -2.4890    2.2810   -1.7530 ho        1 Y08      0.227500
     34 H05         3.4030   -1.4380   -5.6010 ho        1 Y08      0.227500
     35 H06         1.4330    2.6330   -3.7630 ha        1 Y08      0.139000
     36 H07         1.8550   -0.9190   -1.5020 h1        1 Y08      0.134000
     37 H08         2.9170    1.0420   -6.9860 hc        1 Y08      0.081444
     38 H08A        4.0660    0.7720   -8.3630 hc        1 Y08      0.081444
     39 H08B        4.6610    0.6610   -6.6530 hc        1 Y08      0.081444
     40 H09         3.5660    4.4940   -8.3490 hc        1 Y08      0.081444
     41 H09A        2.2800    3.2760   -7.9550 hc        1 Y08      0.081444
     42 H09B        3.4190    2.9780   -9.3350 hc        1 Y08      0.081444
     43 H10         6.4460    2.3620   -7.1920 hc        1 Y08      0.081444
     44 H10A        5.8250    2.4430   -8.8940 hc        1 Y08      0.081444
     45 H10B        5.9820    3.9610   -7.9140 hc        1 Y08      0.081444
     46 H12        -0.5070    2.2530   -0.0410 hn        1 Y08      0.285000
     47 H12A        0.5870    2.0690    1.2460 hn        1 Y08      0.285000
     48 H13        -3.9200    1.0500   -0.6680 hc        1 Y08      0.075833
     49 H14        -4.8870    2.4410   -2.5090 hc        1 Y08      0.075833
     50 H14A       -4.1900    3.5220   -1.2300 hc        1 Y08      0.075833
     51 H15        -5.9760    3.2750   -1.3290 hc        1 Y08      0.075833
     52 H15A       -4.9230    1.9390    0.5580 hc        1 Y08      0.075833
     53 H16        -5.7200    0.8810   -0.6880 hc        1 Y08      0.075833
     54 H16A       -5.0920    1.8140    3.6190 hx        1 Y08      0.177000
     55 H17        -2.8610    0.0720    4.0260 hx        1 Y08      0.167000
     56 H17A       -4.5090   -0.2390    1.5350 hn        1 Y08      0.254000
     57 H19        -7.2450   -1.0020    3.0150 hc        1 Y08      0.144000
     58 H20        -6.6080   -2.6870    3.2270 hc        1 Y08      0.144000
     59 H20A       -4.9370   -3.4970    1.2800 ha        1 Y08      0.057000
     60 H21        -6.4020   -0.8820    0.6930 hc        1 Y08      0.163000
     61 H21A       -7.3860   -2.3670    0.8940 hc        1 Y08      0.163000
     62 H22         0.8320   -3.4890   -2.0540 ha        1 Y08      0.001000
     63 H22A        1.0200   -2.9500   -1.6900 ha        1 Y08      0.001000
     64 H22B        2.7980   -2.3760   -3.0830 ha        1 Y08      0.064000
     65 C03         3.8360    2.6820   -4.9210 c1        1 Y08     -0.143000
     66 C02         4.1870    3.3090   -6.0050 c2        1 Y08     -0.083000
     67 H121        4.2770    0.4340   -0.4110 h4        1 Y08      0.148000
     68 C18        -5.1370   -1.1460    3.2920 c2        1 Y08      0.224000
     69 C22         3.6350   -1.6570   -3.1770 c1        1 Y08     -0.002000
@<TRIPOS>BOND
     1    1   18 1   
     2    1   27 1   
     3    1   46 1   
     4    1   47 1   
     5    2   28 1   
     6    2   33 1   
     7    3   22 1   
     8    3   23 1   
     9    3   56 1   
    10    3   68 1   
    11    4   12 1   
    12    4   29 1   
    13    5   30 1   
    14    5   34 1   
    15    6   17 1   
    16    7   68 1   
    17    8   13 1   
    18    8   69 1   
    19    9   14 1   
    20    9   15 1   
    21    9   16 1   
    22    9   66 1   
    23   10   11 1   
    24   10   32 1   
    25   10   65 1   
    26   11   12 1   
    27   11   35 1   
    28   12   13 1   
    29   13   17 1   
    30   13   36 1   
    31   14   37 1   
    32   14   38 1   
    33   14   39 1   
    34   15   40 1   
    35   15   41 1   
    36   15   42 1   
    37   16   43 1   
    38   16   44 1   
    39   16   45 1   
    40   17   67 1   
    41   18   19 1   
    42   19   23 1   
    43   20   21 1   
    44   20   49 1   
    45   20   50 1   
    46   20   51 1   
    47   21   48 1   
    48   21   52 1   
    49   21   53 1   
    50   22   23 1   
    51   22   54 1   
    52   23   55 1   
    53   24   26 1   
    54   24   57 1   
    55   24   58 1   
    56   24   68 1   
    57   25   26 1   
    58   25   59 1   
    59   26   60 1   
    60   26   61 1   
    61   31   66 1   
    62   62   63 1   
    63   64   69 1   
    64   65   66 1   
@<TRIPOS>SUBSTRUCTURE
     1 Y08         1 TEMP              0 ****  ****    0 ROOT
