@<TRIPOS>MOLECULE
Y09
   37    38     1     0     0
SMALL
bcc


@<TRIPOS>ATOM
      1 OAS        -4.7970   -1.8290    1.4190 o         1 Y09     -0.879000
      2 PAR        -4.5050   -0.3840    1.5870 p5        1 Y09      1.392900
      3 OAU        -5.6120    0.5680    1.8670 o         1 Y09     -0.879000
      4 OAT        -3.4520   -0.2810    2.8440 oh        1 Y09     -0.794400
      5 CAM        -3.5720    0.1940    0.2800 ca        1 Y09     -0.335500
      6 CAN        -4.4030    0.8210   -0.6610 ca        1 Y09     -0.076000
      7 CAO        -3.9230    1.3760   -1.8390 ca        1 Y09     -0.214000
      8 CAP        -2.5520    1.3190   -2.1090 ca        1 Y09     -0.126000
      9 CAQ        -1.6990    0.7170   -1.2000 ca        1 Y09     -0.190000
     10 CAL        -2.2000    0.1490   -0.0050 ca        1 Y09      0.196100
     11 OAK        -1.2720   -0.5110    0.8150 os        1 Y09     -0.225200
     12 CAA        -0.1830    0.2580    1.1930 c2        1 Y09     -0.402900
     13 CAB         1.0300    0.1610    0.5100 c2        1 Y09      0.656300
     14 OAD         1.2860   -0.4580   -0.5640 o         1 Y09     -0.782300
     15 NAC         2.1190    0.8800    1.1540 n         1 Y09     -0.468100
     16 CAE         3.4420    0.9420    0.8160 ca        1 Y09      0.180600
     17 CAF         3.9930    0.2900   -0.3250 ca        1 Y09     -0.272000
     18 CAJ         4.3400    1.7010    1.6320 ca        1 Y09     -0.296000
     19 CAI         5.6860    1.7960    1.3180 ca        1 Y09     -0.068000
     20 CAH         6.2210    1.1610    0.2030 ca        1 Y09     -0.268000
     21 CAG         5.3480    0.4100   -0.6050 ca        1 Y09      0.147100
     22 OAV         5.9580   -0.1950   -1.6980 os        1 Y09     -0.358900
     23 CAW         5.1040   -0.9660   -2.5340 c3        1 Y09      0.117700
     24 H4         -5.4800    0.8900   -0.4190 ha        1 Y09      0.146000
     25 H5         -4.6070    1.8580   -2.5490 ha        1 Y09      0.089000
     26 H6         -2.1550    1.7500   -3.0380 ha        1 Y09      0.088000
     27 H7         -0.6140    0.6550   -1.3870 ha        1 Y09      0.159000
     28 H8         -0.3690    0.8600    2.0830 h4        1 Y09      0.111000
     29 H9         -2.6210   -0.7070    2.6650 ho        1 Y09      0.430000
     30 H10         3.3180   -0.3020   -0.9660 ha        1 Y09      0.196000
     31 H11         3.9590    2.2190    2.5230 ha        1 Y09      0.111000
     32 H12         6.3490    2.3880    1.9660 ha        1 Y09      0.095000
     33 H13         7.2840    1.2320   -0.0500 ha        1 Y09      0.115000
     34 H14         5.7880   -1.3530   -3.3290 h1        1 Y09      0.037700
     35 H15         4.6460   -1.8100   -1.9620 h1        1 Y09      0.037700
     36 H16         4.3030   -0.3260   -2.9790 h1        1 Y09      0.037700
     37 H3          1.8690    1.3610    1.9880 hn        1 Y09      0.289500
@<TRIPOS>BOND
     1    1    2 1   
     2    2    3 1   
     3    2    4 1   
     4    2    5 1   
     5    4   29 1   
     6    5    6 ar  
     7    5   10 ar  
     8    6    7 ar  
     9    6   24 1   
    10    7    8 ar  
    11    7   25 1   
    12    8    9 ar  
    13    8   26 1   
    14    9   10 ar  
    15    9   27 1   
    16   10   11 1   
    17   11   12 1   
    18   12   13 2   
    19   12   28 1   
    20   13   14 1   
    21   13   15 1   
    22   15   16 1   
    23   15   37 1   
    24   16   17 ar  
    25   16   18 ar  
    26   17   21 ar  
    27   17   30 1   
    28   18   19 ar  
    29   18   31 1   
    30   19   20 ar  
    31   19   32 1   
    32   20   21 ar  
    33   20   33 1   
    34   21   22 1   
    35   22   23 1   
    36   23   34 1   
    37   23   35 1   
    38   23   36 1   
@<TRIPOS>SUBSTRUCTURE
     1 Y09         1 TEMP              0 ****  ****    0 ROOT
