@<TRIPOS>MOLECULE
Y09
   38    39     1     0     0
SMALL
bcc


@<TRIPOS>ATOM
      1 OAS         1.9580   -0.7880   -3.0120 o         1 Y09     -0.835500
      2 PAR         3.0270   -0.1500   -2.2240 p5        1 Y09      1.430900
      3 OAU         3.7150   -0.7810   -1.0870 o         1 Y09     -0.835500
      4 OAT         4.2290    0.1130   -3.3980 os        1 Y09     -0.566500
      5 CAM         2.6320    1.4510   -1.8510 ca        1 Y09     -0.355500
      6 CAN         2.3790    1.5960   -0.4770 ca        1 Y09     -0.064000
      7 CAO         1.9520    2.7940    0.0790 ca        1 Y09     -0.174000
      8 CAP         1.7680    3.9060   -0.7460 ca        1 Y09     -0.102000
      9 CAQ         2.0360    3.8080   -2.1030 ca        1 Y09     -0.177000
     10 CAL         2.4710    2.5810   -2.6540 ca        1 Y09      0.183100
     11 OAK         2.6120    2.6620   -4.0410 os        1 Y09     -0.333900
     12 CAA         3.8620    2.2370   -4.5720 c3        1 Y09      0.040400
     13 CAB         4.0690    0.7300   -4.5590 c         1 Y09      0.776600
     14 OAD         4.2490    0.0880   -5.6030 o         1 Y09     -0.653500
     15 NAC         1.6960   -1.8080   -5.6730 nh        1 Y09     -0.817200
     16 CAE         1.6300   -3.0550   -6.2510 ca        1 Y09      0.223600
     17 CAF         0.5550   -3.9360   -5.9650 ca        1 Y09     -0.248000
     18 CAJ         2.5850   -3.4610   -7.2300 ca        1 Y09     -0.245000
     19 CAI         2.4440   -4.6660   -7.8950 ca        1 Y09     -0.064000
     20 CAH         1.3760   -5.5260   -7.6320 ca        1 Y09     -0.289000
     21 CAG         0.4440   -5.1430   -6.6610 ca        1 Y09      0.154100
     22 OAV        -0.6630   -5.9070   -6.3120 os        1 Y09     -0.337900
     23 CAW        -0.7310   -7.1990   -6.8920 c3        1 Y09      0.121700
     24 H4          2.5520    0.7130    0.1700 ha        1 Y09      0.172000
     25 H5          1.7610    2.8690    1.1580 ha        1 Y09      0.121000
     26 H6          1.4200    4.8590   -0.3210 ha        1 Y09      0.115000
     27 H7          1.9030    4.6720   -2.7690 ha        1 Y09      0.132000
     28 H8          4.7100    2.7230   -4.0240 h1        1 Y09      0.069700
     29 H9          3.8190    2.5950   -5.6380 h1        1 Y09      0.069700
     30 H10        -0.1910   -3.6810   -5.2000 ha        1 Y09      0.149000
     31 H11         3.4420   -2.8080   -7.4500 ha        1 Y09      0.137000
     32 H12         3.1920   -4.9580   -8.6480 ha        1 Y09      0.109000
     33 H13         1.2860   -6.4730   -8.1740 ha        1 Y09      0.117000
     34 H14        -1.6390   -7.6550   -6.4230 h1        1 Y09      0.031367
     35 H15        -0.8590   -7.1280   -8.0000 h1        1 Y09      0.031367
     36 H16         0.1790   -7.7980   -6.6460 h1        1 Y09      0.031367
     37 H3          2.5870   -1.3570   -5.6980 hn        1 Y09      0.442800
     38 HAC2        1.2130   -1.6810   -4.8020 hn        1 Y09      0.442800
@<TRIPOS>BOND
     1    1    2 1   
     2    2    3 1   
     3    2    4 1   
     4    2    5 1   
     5    4   13 1   
     6    5    6 ar  
     7    5   10 ar  
     8    6    7 ar  
     9    6   24 1   
    10    7    8 ar  
    11    7   25 1   
    12    8    9 ar  
    13    8   26 1   
    14    9   10 ar  
    15    9   27 1   
    16   10   11 1   
    17   11   12 1   
    18   12   13 1   
    19   12   28 1   
    20   12   29 1   
    21   13   14 2   
    22   15   16 1   
    23   15   37 1   
    24   15   38 1   
    25   16   17 ar  
    26   16   18 ar  
    27   17   21 ar  
    28   17   30 1   
    29   18   19 ar  
    30   18   31 1   
    31   19   20 ar  
    32   19   32 1   
    33   20   21 ar  
    34   20   33 1   
    35   21   22 1   
    36   22   23 1   
    37   23   34 1   
    38   23   35 1   
    39   23   36 1   
@<TRIPOS>SUBSTRUCTURE
     1 Y09         1 TEMP              0 ****  ****    0 ROOT
