@<TRIPOS>MOLECULE
Y09
   37    38     1     0     0
SMALL
bcc


@<TRIPOS>ATOM
      1 OAS         1.4530    0.1330    0.3210 o         1 Y09     -0.875500
      2 PAR         2.6440    0.9530   -0.0110 p5        1 Y09      1.388900
      3 OAU         3.1270    2.0400    0.8800 o         1 Y09     -0.875500
      4 OAT         3.8150   -0.2090   -0.0340 oh        1 Y09     -0.798400
      5 CAM         2.6580    1.4960   -1.6200 ca        1 Y09     -0.356500
      6 CAN         3.6990    2.4240   -1.8030 ca        1 Y09     -0.063000
      7 CAO         3.9580    3.0380   -3.0190 ca        1 Y09     -0.209000
      8 CAP         3.1640    2.7210   -4.1260 ca        1 Y09     -0.116000
      9 CAQ         2.1300    1.8130   -3.9880 ca        1 Y09     -0.168000
     10 CAL         1.8630    1.2030   -2.7330 ca        1 Y09      0.234100
     11 OAK         0.6980    0.4530   -2.7740 os        1 Y09     -0.342900
     12 CAA         0.7820   -0.9040   -2.3300 c3        1 Y09      0.092400
     13 CAB         0.7120   -1.8890   -3.5100 c2        1 Y09      0.556300
     14 OAD        -0.1620   -2.7970   -3.4060 o         1 Y09     -0.755300
     15 NAC         1.6220   -1.6960   -4.5090 ne        1 Y09     -0.558400
     16 CAE         1.6840   -2.4400   -5.6390 ca        1 Y09      0.313400
     17 CAF         0.8100   -3.5080   -6.0180 ca        1 Y09     -0.285000
     18 CAJ         2.7360   -2.1300   -6.5780 ca        1 Y09     -0.236000
     19 CAI         2.8770   -2.8170   -7.7630 ca        1 Y09     -0.087000
     20 CAH         2.0100   -3.8540   -8.1240 ca        1 Y09     -0.342000
     21 CAG         0.9840   -4.1740   -7.2270 ca        1 Y09      0.138100
     22 OAV         0.0360   -5.1690   -7.4910 os        1 Y09     -0.348900
     23 CAW         0.3830   -6.0810   -8.5140 c3        1 Y09      0.131700
     24 H4          4.3120    2.6760   -0.9160 ha        1 Y09      0.158000
     25 H5          4.7810    3.7570   -3.1170 ha        1 Y09      0.097000
     26 H6          3.3680    3.1830   -5.1020 ha        1 Y09      0.095000
     27 H7          1.5070    1.5230   -4.8460 ha        1 Y09      0.142000
     28 H8          1.7020   -1.0670   -1.7090 h1        1 Y09      0.073700
     29 H9         -0.1240   -1.0420   -1.6800 h1        1 Y09      0.073700
     30 H10        -0.0100   -3.8010   -5.3450 ha        1 Y09      0.167000
     31 H11         3.4380   -1.3220   -6.3280 ha        1 Y09      0.121000
     32 H12         3.6930   -2.5500   -8.4510 ha        1 Y09      0.080000
     33 H13         2.1390   -4.3810   -9.0730 ha        1 Y09      0.092000
     34 H14        -0.3890   -6.8880   -8.4400 h1        1 Y09      0.015367
     35 H15         1.4060   -6.5030   -8.3570 h1        1 Y09      0.015367
     36 H16         0.3270   -5.5890   -9.5170 h1        1 Y09      0.015367
     37 H3          3.4370   -1.0790    0.0240 ho        1 Y09      0.421000
@<TRIPOS>BOND
     1    1    2 1   
     2    2    3 1   
     3    2    4 1   
     4    2    5 1   
     5    4   37 1   
     6    5    6 ar  
     7    5   10 ar  
     8    6    7 ar  
     9    6   24 1   
    10    7    8 ar  
    11    7   25 1   
    12    8    9 ar  
    13    8   26 1   
    14    9   10 ar  
    15    9   27 1   
    16   10   11 1   
    17   11   12 1   
    18   12   13 1   
    19   12   28 1   
    20   12   29 1   
    21   13   14 1   
    22   13   15 2   
    23   15   16 1   
    24   16   17 ar  
    25   16   18 ar  
    26   17   21 ar  
    27   17   30 1   
    28   18   19 ar  
    29   18   31 1   
    30   19   20 ar  
    31   19   32 1   
    32   20   21 ar  
    33   20   33 1   
    34   21   22 1   
    35   22   23 1   
    36   23   34 1   
    37   23   35 1   
    38   23   36 1   
@<TRIPOS>SUBSTRUCTURE
     1 Y09         1 TEMP              0 ****  ****    0 ROOT
