@<TRIPOS>MOLECULE
Y09
   37    38     1     0     0
SMALL
bcc


@<TRIPOS>ATOM
      1 OAS         3.8410    1.0900    1.0240 o         1 Y09     -0.871000
      2 PAR         4.2560    1.7700   -0.2270 p5        1 Y09      1.383900
      3 OAU         5.0060    3.0500   -0.1930 o         1 Y09     -0.871000
      4 OAT         5.1760    0.6610   -1.0130 oh        1 Y09     -0.788400
      5 CAM         2.9170    1.9340   -1.2810 ca        1 Y09     -0.304500
      6 CAN         2.3740    3.2240   -1.1730 ca        1 Y09     -0.085000
      7 CAO         1.2620    3.6320   -1.8980 ca        1 Y09     -0.190000
      8 CAP         0.6520    2.7340   -2.7780 ca        1 Y09     -0.129000
      9 CAQ         1.1650    1.4540   -2.9190 ca        1 Y09     -0.183000
     10 CAL         2.2920    1.0510   -2.1680 ca        1 Y09      0.183100
     11 OAK         2.6680   -0.2880   -2.3170 os        1 Y09     -0.343900
     12 CAA         3.2730   -0.5940   -3.5790 c3        1 Y09      0.080400
     13 CAB         2.3540   -1.4790   -4.4410 c2        1 Y09      0.561300
     14 OAD         1.1140   -1.2500   -4.4280 o         1 Y09     -0.738300
     15 NAC         3.0410   -2.4080   -5.1730 ne        1 Y09     -0.580400
     16 CAE         2.4680   -3.2640   -6.0550 ca        1 Y09      0.315400
     17 CAF         1.0790   -3.3640   -6.3800 ca        1 Y09     -0.281000
     18 CAJ         3.3420   -4.1780   -6.7480 ca        1 Y09     -0.240000
     19 CAI         2.8610   -5.0850   -7.6660 ca        1 Y09     -0.085000
     20 CAH         1.5010   -5.1690   -7.9790 ca        1 Y09     -0.337000
     21 CAG         0.6340   -4.2910   -7.3170 ca        1 Y09      0.140100
     22 OAV        -0.7420   -4.2590   -7.5640 os        1 Y09     -0.345900
     23 CAW        -1.2610   -5.3700   -8.2680 c3        1 Y09      0.130700
     24 H4          2.8880    3.9360   -0.5010 ha        1 Y09      0.152000
     25 H5          0.8680    4.6500   -1.7870 ha        1 Y09      0.097000
     26 H6         -0.2290    3.0410   -3.3580 ha        1 Y09      0.099000
     27 H7          0.7100    0.7200   -3.6080 ha        1 Y09      0.178000
     28 H8          4.2240   -1.1220   -3.3000 h1        1 Y09      0.057700
     29 H9          3.5110    0.3320   -4.1610 h1        1 Y09      0.057700
     30 H10         0.3560   -2.6990   -5.8830 ha        1 Y09      0.169000
     31 H11         4.4180   -4.1440   -6.5280 ha        1 Y09      0.115000
     32 H12         3.5620   -5.7670   -8.1730 ha        1 Y09      0.081000
     33 H13         1.1440   -5.8940   -8.7160 ha        1 Y09      0.095000
     34 H14        -0.9230   -5.3560   -9.3340 h1        1 Y09      0.017033
     35 H15        -0.9600   -6.3340   -7.7890 h1        1 Y09      0.017033
     36 H16        -2.3710   -5.2370   -8.2140 h1        1 Y09      0.017033
     37 H3          4.7940   -0.2090   -0.9820 ho        1 Y09      0.425000
@<TRIPOS>BOND
     1    1    2 1   
     2    2    3 1   
     3    2    4 1   
     4    2    5 1   
     5    4   37 1   
     6    5    6 ar  
     7    5   10 ar  
     8    6    7 ar  
     9    6   24 1   
    10    7    8 ar  
    11    7   25 1   
    12    8    9 ar  
    13    8   26 1   
    14    9   10 ar  
    15    9   27 1   
    16   10   11 1   
    17   11   12 1   
    18   12   13 1   
    19   12   28 1   
    20   12   29 1   
    21   13   14 1   
    22   13   15 2   
    23   15   16 1   
    24   16   17 ar  
    25   16   18 ar  
    26   17   21 ar  
    27   17   30 1   
    28   18   19 ar  
    29   18   31 1   
    30   19   20 ar  
    31   19   32 1   
    32   20   21 ar  
    33   20   33 1   
    34   21   22 1   
    35   22   23 1   
    36   23   34 1   
    37   23   35 1   
    38   23   36 1   
@<TRIPOS>SUBSTRUCTURE
     1 Y09         1 TEMP              0 ****  ****    0 ROOT
