@<TRIPOS>MOLECULE
Y09
   37    31     1     0     0
SMALL
bcc


@<TRIPOS>ATOM
      1 OAS        -2.2300    1.5200    2.9590 o         1 Y09     -1.014000
      2 PAR        -1.3350    1.7180    4.1590 p3        1 Y09      2.657000
      3 OAU        -2.0920    2.4590    5.2350 os        1 Y09     -1.197000
      4 OAT        -0.8960    0.3730    4.6880 o         1 Y09     -1.014000
      5 CAM         0.1250    2.6820    3.6740 c1        1 Y09     -0.733000
      6 CAN         0.4380    3.8520    4.3480 c1        1 Y09     -0.075000
      7 CAO         1.5830    4.5590    4.0150 c1        1 Y09     -0.183250
      8 CAP         2.4150    4.0960    3.0080 c1        1 Y09     -0.183250
      9 CAQ         2.1020    2.9260    2.3340 c1        1 Y09     -0.197000
     10 CAL         0.9570    2.2190    2.6660 c1        1 Y09      0.161000
     11 OAK         0.6570    1.0160    2.0050 o         1 Y09     -0.129000
     12 CAA         0.3820    1.1720    0.6320 c3        1 Y09     -0.450000
     13 CAB         0.3100   -0.1890   -0.0270 c2        1 Y09      0.324000
     14 OAD         0.3080   -1.1940    0.6550 o         1 Y09     -0.506000
     15 NAC         0.2110   -0.2890   -1.4400 n         1 Y09     -0.320000
     16 CAE         0.1090   -1.5640   -2.0560 c2        1 Y09      0.185000
     17 CAF        -1.1220   -2.0270   -2.4910 c2        1 Y09     -0.299000
     18 CAJ         1.2500   -2.3210   -2.2710 c1        1 Y09     -0.216000
     19 CAI         1.1590   -3.5420   -2.9220 c1        1 Y09     -0.183250
     20 CAH        -0.0730   -4.0040   -3.3580 c1        1 Y09     -0.183250
     21 CAG        -1.2140   -3.2470   -3.1420 c1        1 Y09      0.107000
     22 OAV        -2.4690   -3.7420   -3.5350 os        1 Y09     -0.230000
     23 CAW        -2.7050   -3.6640   -4.9240 c3        1 Y09     -0.063000
     24 H4         -0.1600    4.1910    5.0420 ha        1 Y09      0.150000
     25 H5          1.8030    5.3830    4.4900 ha        1 Y09      0.096000
     26 H6          3.2290    4.5850    2.7840 ha        1 Y09      0.096000
     27 H7          2.6880    2.5990    1.6240 ha        1 Y09      0.151000
     28 H8         -0.4750    1.6340    0.5210 h1        1 Y09      0.169500
     29 H9          1.0930    1.7000    0.2150 h1        1 Y09      0.169500
     30 H10        -1.9250   -1.4900   -2.3460 ha        1 Y09      0.128000
     31 H11         2.1140   -2.0070   -1.9430 ha        1 Y09      0.190000
     32 H12         1.9630   -4.0710   -3.0820 ha        1 Y09      0.096000
     33 H13        -0.1360   -4.8590   -3.8250 ha        1 Y09      0.096000
     34 H14        -2.4440   -2.7760   -5.2510 h1        1 Y09      0.063667
     35 H15        -3.6590   -3.8110   -5.1030 h1        1 Y09      0.063667
     36 H16        -2.1770   -4.3510   -5.3840 h1        1 Y09      0.063667
     37 H3          0.2160    0.4650   -1.9520 hn        1 Y09      0.203000
@<TRIPOS>BOND
     1    1    2 1   
     2    2    4 1   
     3    2    5 1   
     4    5    6 1   
     5    6   24 1   
     6    7    8 1   
     7    7   25 1   
     8    8   26 1   
     9    9   10 1   
    10    9   27 1   
    11   11   12 1   
    12   12   13 1   
    13   12   28 1   
    14   12   29 1   
    15   13   14 1   
    16   13   15 1   
    17   15   16 1   
    18   15   37 1   
    19   16   17 1   
    20   16   18 1   
    21   17   21 1   
    22   17   30 1   
    23   18   31 1   
    24   19   20 1   
    25   19   32 1   
    26   20   33 1   
    27   21   22 1   
    28   22   23 1   
    29   23   34 1   
    30   23   35 1   
    31   23   36 1   
@<TRIPOS>SUBSTRUCTURE
     1 Y09         1 TEMP              0 ****  ****    0 ROOT
