@<TRIPOS>MOLECULE
Y0R
   34    36     1     0     0
SMALL
bcc


@<TRIPOS>ATOM
      1 S1         -0.4500   -0.1140    0.0970 sy        1 Y0R      1.564200
      2 N2          1.5230   -0.0850    0.1230 n4        1 Y0R     -0.777500
      3 O5         -0.6570   -0.1250    1.4580 o         1 Y0R     -0.582300
      4 O6         -0.6590    1.0270   -0.6460 o         1 Y0R     -0.582300
      5 C7         -0.6440   -1.4590   -0.6460 cc        1 Y0R     -0.739600
      6 S8         -0.9400   -1.8000   -2.2570 ss        1 Y0R      0.316200
      7 C9         -1.1100   -3.4190   -2.0710 cc        1 Y0R     -0.010600
      8 C10        -0.9430   -3.7950   -0.7070 cd        1 Y0R     -0.159000
      9 C11        -0.6880   -2.6960    0.0900 cd        1 Y0R     -0.001000
     10 C12        -1.3880   -4.3420   -3.1080 cc        1 Y0R      0.228800
     11 C13        -1.7250   -4.1220   -4.4740 cd        1 Y0R     -0.141600
     12 N14        -1.8960   -5.3970   -4.9940 na        1 Y0R      0.163300
     13 N15        -1.6770   -6.3290   -4.0120 nd        1 Y0R     -0.117800
     14 N16        -1.3890   -5.7600   -2.9260 nc        1 Y0R     -0.296000
     15 C23        -3.3100   -6.5870  -10.4020 c3        1 Y0R     -0.068800
     16 C24        -2.2460   -5.7030   -6.3450 ca        1 Y0R     -0.042200
     17 C25        -3.0030   -6.8530   -6.6400 ca        1 Y0R     -0.107000
     18 C26        -3.3370   -7.1310   -7.9620 ca        1 Y0R     -0.118500
     19 C27        -2.9330   -6.2870   -9.0020 ca        1 Y0R     -0.038300
     20 C28        -2.1750   -5.1480   -8.6990 ca        1 Y0R     -0.118500
     21 C29        -1.8250   -4.8520   -7.3870 ca        1 Y0R     -0.107000
     22 H1N2        1.8510   -0.0140    1.0810 hn        1 Y0R      0.444800
     23 H2N2        1.9210   -0.9200   -0.2870 hn        1 Y0R      0.444800
     24 H10        -1.0190   -4.8310   -0.3510 ha        1 Y0R      0.212000
     25 H11        -0.5590   -2.7370    1.1810 ha        1 Y0R      0.190000
     26 H13        -1.8610   -3.2100   -5.0580 h4        1 Y0R      0.208000
     27 H123       -4.3180   -6.1520  -10.6240 hc        1 Y0R      0.060367
     28 H223       -2.5740   -6.1500  -11.1200 hc        1 Y0R      0.060367
     29 H323       -3.3610   -7.6910  -10.5740 hc        1 Y0R      0.060367
     30 H25        -3.3320   -7.5400   -5.8420 ha        1 Y0R      0.150000
     31 H26        -3.9270   -8.0340   -8.1890 ha        1 Y0R      0.154500
     32 H28        -1.8450   -4.4810   -9.5110 ha        1 Y0R      0.154500
     33 H29        -1.2130   -3.9600   -7.1800 ha        1 Y0R      0.150000
     34 H23         1.8670    0.7200   -0.3900 hn        1 Y0R      0.444800
@<TRIPOS>BOND
     1    1    2 1   
     2    1    3 2   
     3    1    4 2   
     4    1    5 1   
     5    2   22 1   
     6    2   23 1   
     7    2   34 1   
     8    5    6 1   
     9    5    9 2   
    10    6    7 1   
    11    7    8 2   
    12    7   10 1   
    13    8    9 1   
    14    8   24 1   
    15    9   25 1   
    16   10   11 2   
    17   10   14 1   
    18   11   12 1   
    19   11   26 1   
    20   12   13 1   
    21   12   16 1   
    22   13   14 2   
    23   15   19 1   
    24   15   27 1   
    25   15   28 1   
    26   15   29 1   
    27   16   17 ar  
    28   16   21 ar  
    29   17   18 ar  
    30   17   30 1   
    31   18   19 ar  
    32   18   31 1   
    33   19   20 ar  
    34   20   21 ar  
    35   20   32 1   
    36   21   33 1   
@<TRIPOS>SUBSTRUCTURE
     1 Y0R         1 TEMP              0 ****  ****    0 ROOT
