@<TRIPOS>MOLECULE
Y0R
   34    36     1     0     0
SMALL
bcc


@<TRIPOS>ATOM
      1 S1         -0.4570   -0.1230    0.1070 sy        1 Y0R      1.564200
      2 N2          1.5160   -0.0680    0.1120 nz        1 Y0R     -0.777500
      3 O5         -0.6490   -0.1440    1.4700 o         1 Y0R     -0.582300
      4 O6         -0.6880    1.0190   -0.6270 o         1 Y0R     -0.582300
      5 C7         -0.6410   -1.4660   -0.6410 cc        1 Y0R     -0.739600
      6 S8         -0.9500   -1.8020   -2.2500 ss        1 Y0R      0.316200
      7 C9         -1.0960   -3.4240   -2.0720 cc        1 Y0R     -0.010600
      8 C10        -0.9090   -3.8060   -0.7120 cd        1 Y0R     -0.159000
      9 C11        -0.6610   -2.7080    0.0880 cd        1 Y0R     -0.001000
     10 C12        -1.3730   -4.3450   -3.1110 cc        1 Y0R      0.228800
     11 C13        -1.7280   -4.1220   -4.4720 cd        1 Y0R     -0.141600
     12 N14        -1.8880   -5.3970   -4.9970 na        1 Y0R      0.163300
     13 N15        -1.6480   -6.3310   -4.0230 nd        1 Y0R     -0.117800
     14 N16        -1.3550   -5.7640   -2.9370 nc        1 Y0R     -0.296000
     15 C23        -3.3220   -6.5900  -10.3990 c3        1 Y0R     -0.068800
     16 C24        -2.2490   -5.7000   -6.3460 ca        1 Y0R     -0.042200
     17 C25        -2.9990   -6.8550   -6.6380 ca        1 Y0R     -0.106500
     18 C26        -3.3450   -7.1300   -7.9580 ca        1 Y0R     -0.118500
     19 C27        -2.9580   -6.2770   -8.9980 ca        1 Y0R     -0.038300
     20 C28        -2.2080   -5.1330   -8.6980 ca        1 Y0R     -0.118500
     21 C29        -1.8460   -4.8400   -7.3880 ca        1 Y0R     -0.106500
     22 H1N2        1.8450    0.7450   -0.3990 hn        1 Y0R      0.444800
     23 H2N2        1.9200   -0.8950   -0.3070 hn        1 Y0R      0.444800
     24 H10        -0.9690   -4.8440   -0.3610 ha        1 Y0R      0.212000
     25 H11        -0.5200   -2.7530    1.1770 ha        1 Y0R      0.190000
     26 H13        -1.8800   -3.2100   -5.0500 h4        1 Y0R      0.208000
     27 H123       -2.5400   -7.2500  -10.8540 hc        1 Y0R      0.060700
     28 H223       -4.3020   -7.1250  -10.4480 hc        1 Y0R      0.060700
     29 H323       -3.3940   -5.6590  -11.0140 hc        1 Y0R      0.060700
     30 H25        -3.3150   -7.5470   -5.8400 ha        1 Y0R      0.150000
     31 H26        -3.9330   -8.0340   -8.1830 ha        1 Y0R      0.154500
     32 H28        -1.8940   -4.4580   -9.5090 ha        1 Y0R      0.154500
     33 H29        -1.2410   -3.9440   -7.1830 ha        1 Y0R      0.150000
     34 H23         1.8540    0.0030    1.0670 hn        1 Y0R      0.444800
@<TRIPOS>BOND
     1    1    2 1   
     2    1    3 2   
     3    1    4 2   
     4    1    5 1   
     5    2   22 1   
     6    2   23 1   
     7    2   34 1   
     8    5    6 1   
     9    5    9 2   
    10    6    7 1   
    11    7    8 2   
    12    7   10 1   
    13    8    9 1   
    14    8   24 1   
    15    9   25 1   
    16   10   11 2   
    17   10   14 1   
    18   11   12 1   
    19   11   26 1   
    20   12   13 1   
    21   12   16 1   
    22   13   14 2   
    23   15   19 1   
    24   15   27 1   
    25   15   28 1   
    26   15   29 1   
    27   16   17 ar  
    28   16   21 ar  
    29   17   18 ar  
    30   17   30 1   
    31   18   19 ar  
    32   18   31 1   
    33   19   20 ar  
    34   20   21 ar  
    35   20   32 1   
    36   21   33 1   
@<TRIPOS>SUBSTRUCTURE
     1 Y0R         1 TEMP              0 ****  ****    0 ROOT
