@<TRIPOS>MOLECULE
Y10
   59    54     1     0     0
SMALL
bcc


@<TRIPOS>ATOM
      1 N          -0.1250    1.2470   -0.0530 ns        1 Y10     -0.134000
      2 O1         -0.7930    4.0700    0.0200 oh        1 Y10     -0.431000
      3 O2         -2.5890    2.4480    0.6340 oh        1 Y10     -0.378000
      4 O3         -4.5350    0.9600    1.6020 oh        1 Y10     -0.352000
      5 O4         -1.0400   -0.8140   -0.6020 o         1 Y10     -0.206000
      6 O5         -1.8050    2.2480   -2.0880 oh        1 Y10     -0.386000
      7 C01        -8.2750    1.6300   -0.0460 c3        1 Y10     -0.108000
      8 C04        -5.1450   -0.0300   -0.5280 c2        1 Y10     -0.173000
      9 C05        -4.0560    0.5040    0.3500 c3        1 Y10      0.045000
     10 C06        -3.3000    1.6750   -0.3210 c3        1 Y10     -0.008000
     11 C07        -2.2920    1.1570   -1.3670 c3        1 Y10      0.054000
     12 C08        -8.8910    3.0270   -0.1870 c3        1 Y10     -0.208000
     13 C09        -9.3600    0.5780   -0.2480 c3        1 Y10     -0.208000
     14 C10        -7.6740    1.5680    1.3040 c1        1 Y10     -0.052000
     15 C11        -1.1350    0.4050   -0.6830 c2        1 Y10      0.268000
     16 C12         1.1380    0.9470    0.0770 c2        1 Y10      0.100000
     17 C13         2.1730    1.7880    0.7930 c3        1 Y10     -0.158000
     18 C14         3.2980    0.8130    1.0660 c2        1 Y10     -0.146000
     19 C15         3.0540   -0.4000    0.2690 c2        1 Y10     -0.218000
     20 C16         1.8340   -0.2700   -0.4830 c1        1 Y10      0.105000
     21 C17         4.2870    1.1380    1.9160 c2        1 Y10     -0.007000
     22 C18         5.4170    0.3350    2.2920 c2        1 Y10     -0.436000
     23 C19         5.7750   -0.8570    1.8550 c1        1 Y10      0.208000
     24 C20         3.8280   -1.5000    0.1100 c2        1 Y10      0.028000
     25 HN         -3.4730    4.5960   -0.3930 ha        1 Y10      0.006500
     26 HO1        -1.4140    4.3720    0.6920 ho        1 Y10      0.222500
     27 HO2        -3.1180    2.4800    1.4480 ho        1 Y10      0.252000
     28 HO3        -5.4570    1.2710    1.5010 ho        1 Y10      0.261000
     29 H02        -7.3380    2.0260   -2.0280 ha        1 Y10      0.153000
     30 H03        -1.3430    3.9650   -0.7670 ho        1 Y10      0.222500
     31 H04        -3.3230   -0.3160    0.6050 h1        1 Y10      0.117000
     32 H05        -5.0660   -1.0930   -0.8070 ha        1 Y10      0.159000
     33 H06        -4.0270    2.3570   -0.8500 h1        1 Y10      0.124000
     34 H07        -2.8110    0.4010   -2.0240 h1        1 Y10      0.135000
     35 H08        -9.3440    3.1310   -1.2020 hc        1 Y10      0.092667
     36 H08A       -8.1120    3.8150   -0.0570 hc        1 Y10      0.092667
     37 H08B       -9.6910    3.1730    0.5780 hc        1 Y10      0.092667
     38 H09       -10.1800    0.7240    0.4960 hc        1 Y10      0.092667
     39 H09A       -9.7900    0.6630   -1.2750 hc        1 Y10      0.092667
     40 H09B       -8.9340   -0.4470   -0.1220 hc        1 Y10      0.092667
     41 H10        -6.9240   -0.4890    1.4170 ha        1 Y10      0.006500
     42 H10A       -8.4020    1.5110    2.1300 ha        1 Y10      0.055000
     43 H10B       -7.5090   -0.6370    1.7380 ha        1 Y10      0.006500
     44 H12        -0.4830    2.1570    0.2740 hn        1 Y10      0.328000
     45 H13         1.7600    2.2330    1.7370 hc        1 Y10      0.157000
     46 H13A        2.5210    2.6350    0.1400 hc        1 Y10      0.157000
     47 H16        -1.1740    3.0980    2.5120 ha        1 Y10      0.006500
     48 H16A       -0.5480    2.9630    2.2910 ha        1 Y10      0.006500
     49 H17         4.2540    2.1360    2.3990 ha        1 Y10      0.149000
     50 H18         6.0870    0.7900    3.0610 ha        1 Y10      0.215000
     51 H19         3.5000   -2.3200   -0.5530 ha        1 Y10      0.173000
     52 H20         4.8060   -1.6790    0.6130 ha        1 Y10      0.173000
     53 H21        -2.3190    1.2920   -5.3830 ha        1 Y10      0.062000
     54 H21A       -0.5780    1.8740   -5.2690 ha        1 Y10      0.062000
     55 H21B       -1.6690    1.9700   -3.0510 ho        1 Y10      0.287000
     56 C03        -6.1670    0.7020   -0.8730 c1        1 Y10     -0.138000
     57 C02        -7.2040    1.4600   -1.0910 c2        1 Y10     -0.076000
     58 HN3        -3.5470    4.7480    0.2630 ha        1 Y10      0.006500
     59 C21        -1.5010    1.6250   -4.7310 c1        1 Y10     -0.048000
@<TRIPOS>BOND
     1    1   15 1   
     2    1   16 1   
     3    1   44 1   
     4    2   26 1   
     5    2   30 1   
     6    3   10 1   
     7    3   27 1   
     8    4    9 1   
     9    4   28 1   
    10    5   15 1   
    11    6   11 1   
    12    6   55 1   
    13    7   12 1   
    14    7   13 1   
    15    7   14 1   
    16    7   57 1   
    17    8    9 1   
    18    8   32 1   
    19    8   56 1   
    20    9   10 1   
    21    9   31 1   
    22   10   11 1   
    23   10   33 1   
    24   11   15 1   
    25   11   34 1   
    26   12   35 1   
    27   12   36 1   
    28   12   37 1   
    29   13   38 1   
    30   13   39 1   
    31   13   40 1   
    32   14   42 1   
    33   16   17 1   
    34   16   20 1   
    35   17   18 1   
    36   17   45 1   
    37   17   46 1   
    38   18   19 1   
    39   18   21 1   
    40   19   20 1   
    41   19   24 1   
    42   21   22 1   
    43   21   49 1   
    44   22   23 1   
    45   22   50 1   
    46   24   51 1   
    47   24   52 1   
    48   25   58 1   
    49   29   57 1   
    50   41   43 1   
    51   47   48 1   
    52   53   59 1   
    53   54   59 1   
    54   56   57 1   
@<TRIPOS>SUBSTRUCTURE
     1 Y10         1 TEMP              0 ****  ****    0 ROOT
