@<TRIPOS>MOLECULE
Y10
   58    53     1     0     0
SMALL
bcc


@<TRIPOS>ATOM
      1 N           0.3460   -1.8150   -0.0040 n4        1 Y10      0.074000
      2 O1         -3.4500    1.0240   -1.5160 oh        1 Y10     -0.301500
      3 O2         -2.1850   -1.4840   -1.4030 oh        1 Y10     -0.313000
      4 O3         -3.9780   -3.6080   -2.7410 oh        1 Y10     -0.351000
      5 O4          1.6340   -2.6150   -1.7840 o         1 Y10     -0.277000
      6 O5         -4.3310   -0.9750   -3.1060 oh        1 Y10     -0.301500
      7 C01        -4.7580    4.4600    2.3640 c3        1 Y10     -0.058000
      8 C04        -4.7260    1.0840   -2.0260 c2        1 Y10     -0.094500
      9 C05        -3.6530   -4.5800   -3.7120 c3        1 Y10     -0.075000
     10 C06        -1.4150   -0.8380   -2.3290 c2        1 Y10      0.103000
     11 C07        -0.0860   -1.0580   -2.3870 c2        1 Y10     -0.320000
     12 C08        -6.1010    4.8280    2.8370 c1        1 Y10     -0.019000
     13 C09        -4.3970    3.0700    2.8890 c3        1 Y10     -0.198500
     14 C10        -3.8000    5.4890    2.9840 c3        1 Y10     -0.198500
     15 C11         0.6850   -1.8910   -1.4730 c2        1 Y10      0.277000
     16 C12         0.9630   -0.6980    0.6340 c2        1 Y10     -0.563000
     17 C13         0.2910    0.4790    0.8200 c1        1 Y10      0.007000
     18 C14        -0.2840    1.5230    1.0110 c1        1 Y10     -0.335000
     19 C15         0.8000    6.2400    1.3280 c1        1 Y10     -0.159000
     20 C16         0.9950    7.2710    1.9020 c1        1 Y10     -0.222000
     21 C17        -0.9550    2.7430    1.2180 cx        1 Y10      0.071000
     22 C18        -0.7670    3.5670    2.4550 cu        1 Y10     -0.203000
     23 C19        -0.2190    4.0440    1.3540 cu        1 Y10     -0.156000
     24 C20         0.5780    5.0080    0.6230 c3        1 Y10      0.028000
     25 HN          0.6900   -2.6710    0.4410 hn        1 Y10      0.225500
     26 HO1        -3.3410    1.7840   -0.9140 ho        1 Y10      0.248500
     27 HO2        -3.0740   -1.0760   -1.4050 ho        1 Y10      0.283000
     28 HO3        -3.1580   -3.1610   -2.4900 ho        1 Y10      0.213000
     29 H02        -4.7690    5.5000    0.4210 ha        1 Y10      0.194000
     30 H03        -5.3210    1.9770   -1.7860 h4        1 Y10      0.145000
     31 H04        -3.2230   -4.1000   -4.6260 h1        1 Y10      0.070667
     32 H05        -4.6220   -5.0820   -3.9610 h1        1 Y10      0.070667
     33 H06        -2.9300   -5.3260   -3.3000 h1        1 Y10      0.070667
     34 H07        -1.9540   -0.1690   -3.0260 h4        1 Y10      0.175000
     35 H08        -7.3160    2.9560    2.4240 ha        1 Y10      0.008500
     36 H08A       -6.7790    5.2560    2.0800 ha        1 Y10      0.037000
     37 H08B       -7.1970    2.9420    3.0960 ha        1 Y10      0.008500
     38 H09        -4.6020    3.0150    3.9850 hc        1 Y10      0.095333
     39 H09A       -3.3100    2.8700    2.7080 hc        1 Y10      0.095333
     40 H09B       -5.0020    2.2890    2.3690 hc        1 Y10      0.095333
     41 H10        -3.9120    5.4880    4.0950 hc        1 Y10      0.095333
     42 H10A       -4.0160    6.5110    2.5930 hc        1 Y10      0.095333
     43 H10B       -2.7480    5.2120    2.7220 hc        1 Y10      0.095333
     44 H12        -0.6730   -1.7560    0.0950 hn        1 Y10      0.225500
     45 H13        -4.8680   -2.1770   -0.9840 ha        1 Y10      0.008500
     46 H13A       -4.4600   -2.5650   -0.6070 ha        1 Y10      0.008500
     47 H16         2.0280   -0.8090    0.8520 hx        1 Y10      0.168000
     48 H16A        1.1730    8.1840    2.4090 ha        1 Y10      0.220000
     49 H17        -1.9580    2.7590    0.7250 hc        1 Y10      0.091000
     50 H18        -0.9500    3.6170    3.5070 ha        1 Y10      0.181000
     51 H19         0.0740    5.2330   -0.3640 hc        1 Y10      0.116500
     52 H20         1.5770    4.5350    0.3790 hc        1 Y10      0.116500
     53 H21        -6.1730    0.0670   -3.2570 h4        1 Y10      0.145000
     54 H21A        0.5130   -0.5890   -3.1840 ha        1 Y10      0.178000
     55 H21B       -4.8910   -1.7590   -3.2280 ho        1 Y10      0.248500
     56 C21        -5.1740    0.0780   -2.8040 c2        1 Y10     -0.094500
     57 C03        -4.2790    3.4840    0.1110 c1        1 Y10      0.124000
     58 C02        -4.6030    4.5000    0.8680 c2        1 Y10     -0.471000
@<TRIPOS>BOND
     1    1   15 1   
     2    1   16 1   
     3    1   25 1   
     4    1   44 1   
     5    2    8 1   
     6    2   26 1   
     7    3   10 1   
     8    3   27 1   
     9    4    9 1   
    10    4   28 1   
    11    5   15 1   
    12    6   55 1   
    13    6   56 1   
    14    7   12 1   
    15    7   13 1   
    16    7   14 1   
    17    7   58 1   
    18    8   30 1   
    19    8   56 1   
    20    9   31 1   
    21    9   32 1   
    22    9   33 1   
    23   10   11 1   
    24   10   34 1   
    25   11   15 1   
    26   11   54 1   
    27   12   36 1   
    28   13   38 1   
    29   13   39 1   
    30   13   40 1   
    31   14   41 1   
    32   14   42 1   
    33   14   43 1   
    34   16   17 1   
    35   16   47 1   
    36   17   18 1   
    37   18   21 1   
    38   19   20 1   
    39   19   24 1   
    40   20   48 1   
    41   21   22 1   
    42   21   23 1   
    43   21   49 1   
    44   22   23 1   
    45   22   50 1   
    46   23   24 1   
    47   24   51 1   
    48   24   52 1   
    49   29   58 1   
    50   35   37 1   
    51   45   46 1   
    52   53   56 1   
    53   57   58 1   
@<TRIPOS>SUBSTRUCTURE
     1 Y10         1 TEMP              0 ****  ****    0 ROOT
