@<TRIPOS>MOLECULE
Y10
   59    53     1     0     0
SMALL
bcc


@<TRIPOS>ATOM
      1 N           0.1650    0.0890    0.8210 n2        1 Y10     -0.213000
      2 O1         -5.0380    3.5820   -1.5010 oh        1 Y10     -0.136000
      3 O2         -3.4170    1.9310   -0.3630 o         1 Y10     -0.439000
      4 O3         -5.6130    1.0810   -2.0100 oh        1 Y10     -0.396000
      5 O4         -0.3570   -1.6900   -0.6210 oh        1 Y10     -0.275000
      6 O5         -2.5330   -2.3620   -2.8450 oh        1 Y10     -0.234000
      7 C01        -7.8910    2.9520   -0.4530 c2        1 Y10     -0.156000
      8 C04        -4.8900    3.8060   -0.2250 c2        1 Y10      0.336000
      9 C05        -5.8450    0.5110   -3.2860 c3        1 Y10     -0.086000
     10 C06        -2.3400    1.4160    0.0010 c2        1 Y10      0.284000
     11 C07        -1.8960    0.1370   -0.4970 c2        1 Y10     -0.398000
     12 C08        -8.5550    1.6420   -0.6880 c3        1 Y10     -0.197000
     13 C09        -8.9110    1.5980    3.5530 c3        1 Y10     -0.276000
     14 C10        -8.0970    4.0170   -1.2430 c2        1 Y10     -0.164000
     15 C11        -0.7230   -0.4630   -0.1180 c2        1 Y10      0.236000
     16 C12         1.3830   -0.3300    0.9480 c2        1 Y10      0.050000
     17 C13         2.3140    0.2480    1.9760 c3        1 Y10     -0.113000
     18 C14         3.5720    0.7220    1.3230 c2        1 Y10     -0.124000
     19 C15         3.6080    2.0660    0.8840 c2        1 Y10     -0.145000
     20 C16         3.0070    3.2840    0.8260 c2        1 Y10     -0.217000
     21 C17         4.6370   -0.1090    1.1870 c2        1 Y10      0.053000
     22 C18         5.8850    0.2640    0.5880 c2        1 Y10     -0.507000
     23 C19         6.9730   -0.4580    0.3980 c1        1 Y10      0.290000
     24 C20         4.2870    3.1470    0.2000 c1        1 Y10      0.062000
     25 HN         -2.5550   -0.3720   -1.2200 ha        1 Y10      0.144000
     26 HO1        -5.8200    3.0080   -1.7210 ho        1 Y10      0.315000
     27 HO2        -3.9420    4.3550   -0.0070 h4        1 Y10      0.212000
     28 HO3        -4.7100    0.8520   -1.7470 ho        1 Y10      0.232000
     29 H02        -7.5670    2.6690    1.6680 ha        1 Y10      0.181000
     30 H03        -5.3100    3.4940    1.8360 ha        1 Y10      0.187000
     31 H04        -5.3560    1.1390   -4.0730 h1        1 Y10      0.086333
     32 H05        -6.9560    0.5220   -3.4180 h1        1 Y10      0.086333
     33 H06        -5.4530   -0.5370   -3.3310 h1        1 Y10      0.086333
     34 H07        -1.6880    1.9490    0.7340 h4        1 Y10      0.120000
     35 H08        -9.4030    1.7480   -1.4090 hc        1 Y10      0.110000
     36 H08A       -7.8100    0.9210   -1.1170 hc        1 Y10      0.110000
     37 H08B       -8.9540    1.2200    0.2680 hc        1 Y10      0.110000
     38 H09        -9.2200    1.1850    2.5670 hc        1 Y10      0.069750
     39 H09A       -7.8340    1.3870    3.7280 hc        1 Y10      0.069750
     40 H09B       -9.5130    1.1170    4.3550 hc        1 Y10      0.069750
     41 H10        -7.6220    4.9920   -1.0700 ha        1 Y10      0.140500
     42 H10A       -8.7930    3.9780   -2.0960 ha        1 Y10      0.140500
     43 H10B       -9.0880    2.6960    3.5720 hc        1 Y10      0.069750
     44 H12        -0.2470    3.3190    1.9250 ha        1 Y10      0.001000
     45 H13         1.8410    1.0950    2.5440 hc        1 Y10      0.125500
     46 H13A        2.5350   -0.5720    2.7160 hc        1 Y10      0.125500
     47 H16         1.8380   -1.1290    0.3190 h4        1 Y10      0.138000
     48 H16A        2.1520    3.8740    1.0960 ha        1 Y10      0.188000
     49 H17         4.5650   -1.1470    1.5610 ha        1 Y10      0.134000
     50 H18         5.9640    1.3280    0.2220 ha        1 Y10      0.243000
     51 H19         6.7150    3.4190   -0.1930 ha        1 Y10      0.001000
     52 H20         7.3530    3.1860   -0.1850 ha        1 Y10      0.001000
     53 H21        -4.1020   -2.6670   -1.6840 ha        1 Y10      0.049000
     54 H21A       -1.0560   -2.0300   -1.2040 ho        1 Y10      0.255000
     55 H21B       -2.2370   -1.8250   -3.6060 ho        1 Y10      0.259000
     56 C03        -5.7730    3.4360    0.8280 c2        1 Y10     -0.330000
     57 C02        -7.0560    3.0090    0.7360 c2        1 Y10      0.104000
     58 HN3         0.2300    2.8510    2.0360 ha        1 Y10      0.001000
     59 C21        -3.7570   -2.0130   -2.5250 c1        1 Y10     -0.066000
@<TRIPOS>BOND
     1    1   15 1   
     2    1   16 1   
     3    2    8 1   
     4    2   26 1   
     5    3   10 1   
     6    4    9 1   
     7    4   28 1   
     8    5   15 1   
     9    5   54 1   
    10    6   55 1   
    11    6   59 1   
    12    7   12 1   
    13    7   14 1   
    14    7   57 1   
    15    8   27 1   
    16    8   56 1   
    17    9   31 1   
    18    9   32 1   
    19    9   33 1   
    20   10   11 1   
    21   10   34 1   
    22   11   15 1   
    23   11   25 1   
    24   12   35 1   
    25   12   36 1   
    26   12   37 1   
    27   13   38 1   
    28   13   39 1   
    29   13   40 1   
    30   13   43 1   
    31   14   41 1   
    32   14   42 1   
    33   16   17 1   
    34   16   47 1   
    35   17   18 1   
    36   17   45 1   
    37   17   46 1   
    38   18   19 1   
    39   18   21 1   
    40   19   20 1   
    41   19   24 1   
    42   20   24 1   
    43   20   48 1   
    44   21   22 1   
    45   21   49 1   
    46   22   23 1   
    47   22   50 1   
    48   29   57 1   
    49   30   56 1   
    50   44   58 1   
    51   51   52 1   
    52   53   59 1   
    53   56   57 1   
@<TRIPOS>SUBSTRUCTURE
     1 Y10         1 TEMP              0 ****  ****    0 ROOT
