@<TRIPOS>MOLECULE
Y10
   58    56     1     0     0
SMALL
bcc


@<TRIPOS>ATOM
      1 N           2.1460    1.4770   -0.8910 n         1 Y10     -0.371000
      2 O1         -2.0240   -2.9100   -0.2680 oh        1 Y10     -0.324000
      3 O2         -0.0890   -1.3130   -0.9330 oh        1 Y10     -0.338000
      4 O3         -2.4920   -0.3010   -1.3810 oh        1 Y10     -0.346000
      5 O4          1.9290    0.2870    1.0930 o         1 Y10     -0.370000
      6 O5         -0.6940    1.5900    1.1430 os        1 Y10     -0.274000
      7 C01        -4.5240   -3.2290    2.3190 c3        1 Y10     -0.030000
      8 C02        -5.0660   -2.6020    1.0360 c2        1 Y10     -0.127000
      9 C03        -4.1710   -1.9510    0.1210 c1        1 Y10     -0.202000
     10 C04        -2.6920   -1.8860    0.4260 c2        1 Y10      0.066000
     11 C05        -2.1420   -0.5410   -0.0090 c3        1 Y10     -0.023000
     12 C06        -0.6660   -0.5450    0.1300 c3        1 Y10      0.010000
     13 C07        -0.1630    0.8460    0.0630 c3        1 Y10     -0.018000
     14 C08        -3.8870   -2.1600    3.1720 c3        1 Y10     -0.204333
     15 C09        -3.4670   -4.2960    1.9620 c3        1 Y10     -0.204333
     16 C10        -5.6930   -3.8990    3.1080 c3        1 Y10     -0.204333
     17 C11         1.3650    0.8430    0.1470 c2        1 Y10      0.281000
     18 C12         3.5950    1.4590   -0.8210 c3        1 Y10      0.022000
     19 C13         4.1080    2.8400   -0.5370 c3        1 Y10     -0.137500
     20 C14         5.0730    3.2280   -1.6720 c2        1 Y10     -0.080000
     21 C15         5.1580    2.1280   -2.5760 c2        1 Y10     -0.080000
     22 C16         4.1450    1.0310   -2.0990 c3        1 Y10     -0.137500
     23 C17         5.9220    4.3350   -1.8310 c1        1 Y10     -0.117000
     24 C18         6.8530    4.3570   -2.8780 c1        1 Y10     -0.130000
     25 C19         6.9360    3.2630   -3.7750 c1        1 Y10     -0.130000
     26 C20         6.0810    2.1510   -3.6140 c1        1 Y10     -0.117000
     27 C21        -0.8670    2.9620    0.8610 c3        1 Y10     -0.084000
     28 HN          1.7350    1.9090   -1.5620 hn        1 Y10      0.246000
     29 HO1        -2.5370   -3.2060   -0.9180 ho        1 Y10      0.215000
     30 HO2         0.4890   -1.8500   -0.6120 ho        1 Y10      0.236000
     31 HO3        -3.2580    0.1410   -1.4170 ho        1 Y10      0.224000
     32 H02        -6.0030   -2.6430    0.8420 ha        1 Y10      0.121000
     33 H03        -4.5080   -1.5620   -0.6780 ha        1 Y10      0.126000
     34 H04        -2.5570   -1.9950    1.3490 h4        1 Y10      0.134000
     35 H05        -2.5250    0.1730    0.5590 h1        1 Y10      0.116000
     36 H06        -0.4160   -0.9470    1.0060 h1        1 Y10      0.124000
     37 H07        -0.4400    1.2510   -0.7770 h1        1 Y10      0.109000
     38 H08        -4.2220   -2.2320    4.0940 hc        1 Y10      0.076889
     39 H08A       -2.9200   -2.2760    3.1700 hc        1 Y10      0.076889
     40 H08B       -4.1130   -1.2740    2.8090 hc        1 Y10      0.076889
     41 H09        -3.4700   -5.0210    2.6690 hc        1 Y10      0.076889
     42 H09A       -3.6870   -4.7030    1.0560 hc        1 Y10      0.076889
     43 H09B       -2.5690   -3.8730    1.9250 hc        1 Y10      0.076889
     44 H10        -6.1020   -4.5840    2.5590 hc        1 Y10      0.076889
     45 H10A       -5.3420   -4.3040    3.9300 hc        1 Y10      0.076889
     46 H10B       -6.3800   -3.2060    3.3430 hc        1 Y10      0.076889
     47 H12         3.8740    0.8720   -0.1420 h1        1 Y10      0.130000
     48 H13         3.3420    3.4780   -0.5250 hc        1 Y10      0.101500
     49 H13A        4.6090    2.8330    0.3340 hc        1 Y10      0.101500
     50 H16         3.4040    0.9540   -2.7660 hc        1 Y10      0.101500
     51 H16A        4.6240    0.1780   -1.9750 hc        1 Y10      0.101500
     52 H17         5.8640    5.0860   -1.2150 ha        1 Y10      0.133000
     53 H18         7.4490    5.1330   -2.9900 ha        1 Y10      0.130000
     54 H19         7.5870    3.2790   -4.5070 ha        1 Y10      0.130000
     55 H20         6.1380    1.3900   -4.2370 ha        1 Y10      0.133000
     56 H21        -1.7430    3.2640    1.2120 h1        1 Y10      0.087333
     57 H21A       -0.8370    3.1020   -0.1130 h1        1 Y10      0.087333
     58 H21B       -0.1560    3.4720    1.2830 h1        1 Y10      0.087333
@<TRIPOS>BOND
     1    1   17 1   
     2    1   18 1   
     3    1   28 1   
     4    2   10 1   
     5    2   29 1   
     6    3   12 1   
     7    3   30 1   
     8    4   11 1   
     9    4   31 1   
    10    5   17 1   
    11    6   13 1   
    12    6   27 1   
    13    7    8 1   
    14    7   14 1   
    15    7   15 1   
    16    7   16 1   
    17    8    9 1   
    18    8   32 1   
    19    9   33 1   
    20   10   11 1   
    21   10   34 1   
    22   11   12 1   
    23   11   35 1   
    24   12   13 1   
    25   12   36 1   
    26   13   17 1   
    27   13   37 1   
    28   14   38 1   
    29   14   39 1   
    30   14   40 1   
    31   15   41 1   
    32   15   42 1   
    33   15   43 1   
    34   16   44 1   
    35   16   45 1   
    36   16   46 1   
    37   18   19 1   
    38   18   22 1   
    39   18   47 1   
    40   19   20 1   
    41   19   48 1   
    42   19   49 1   
    43   20   21 1   
    44   20   23 1   
    45   21   22 1   
    46   21   26 1   
    47   22   50 1   
    48   22   51 1   
    49   23   52 1   
    50   24   25 1   
    51   24   53 1   
    52   25   54 1   
    53   26   55 1   
    54   27   56 1   
    55   27   57 1   
    56   27   58 1   
@<TRIPOS>SUBSTRUCTURE
     1 Y10         1 TEMP              0 ****  ****    0 ROOT
