@<TRIPOS>MOLECULE
Y10
   58    59     1     0     0
SMALL
bcc


@<TRIPOS>ATOM
      1 N          -2.1390   -1.0010   -0.0820 n         1 Y10     -0.540900
      2 O1          2.3510    1.7510    0.1750 oh        1 Y10     -0.587800
      3 O2          0.2350    0.3320   -1.0650 oh        1 Y10     -0.596800
      4 O3          2.5910   -0.6390   -1.6100 oh        1 Y10     -0.620800
      5 O4         -1.8720   -3.0820   -1.0170 o         1 Y10     -0.623100
      6 O5          0.5090   -2.7400    0.8180 os        1 Y10     -0.413600
      7 C01         6.6180    1.6630   -0.1610 c3        1 Y10     -0.029800
      8 C04         2.9450    0.5140    0.5250 c3        1 Y10      0.148300
      9 C05         2.2920   -0.6660   -0.2200 c3        1 Y10      0.077100
     10 C06         0.7550   -0.5900   -0.1300 c3        1 Y10      0.148100
     11 C07         0.1580   -1.9930   -0.3440 c3        1 Y10      0.041100
     12 C08         7.2910    0.3090    0.0060 c3        1 Y10     -0.085433
     13 C09         6.9100    2.1950   -1.5610 c3        1 Y10     -0.085433
     14 C10         7.1890    2.6320    0.8710 c3        1 Y10     -0.085433
     15 C11        -1.3700   -2.0500   -0.5210 c         1 Y10      0.641100
     16 C12        -3.5690   -0.9660   -0.2550 c3        1 Y10      0.094700
     17 C13        -4.0500    0.0830   -1.3070 c3        1 Y10     -0.051600
     18 C14        -5.1250    0.8570   -0.6290 ca        1 Y10     -0.087300
     19 C15        -5.2830    0.4500    0.7150 ca        1 Y10     -0.087300
     20 C16        -4.3290   -0.6360    1.0670 c3        1 Y10     -0.051600
     21 C17        -5.9200    1.8630   -1.1580 ca        1 Y10     -0.117000
     22 C18        -6.8790    2.4670   -0.3360 ca        1 Y10     -0.130000
     23 C19        -7.0350    2.0660    0.9880 ca        1 Y10     -0.130000
     24 C20        -6.2340    1.0500    1.5260 ca        1 Y10     -0.117000
     25 HN         -1.6950   -0.1420    0.1510 hn        1 Y10      0.325500
     26 HO1         2.1430    1.7160   -0.7690 ho        1 Y10      0.415000
     27 HO2         0.5350    0.0630   -1.9450 ho        1 Y10      0.424000
     28 HO3         3.5470   -0.5390   -1.6960 ho        1 Y10      0.423000
     29 H02         4.6220    2.5710   -0.0980 ha        1 Y10      0.139000
     30 H03         4.8940   -0.4820    0.4600 ha        1 Y10      0.127000
     31 H04         2.7360    0.4070    1.6320 h1        1 Y10      0.087700
     32 H05         2.6530   -1.6330    0.2280 h1        1 Y10      0.069700
     33 H06         0.4650   -0.1810    0.8790 h1        1 Y10      0.102700
     34 H07         0.6090   -2.4540   -1.2680 h1        1 Y10      0.080700
     35 H08         6.8980   -0.4180   -0.7450 hc        1 Y10      0.037478
     36 H08A        8.3930    0.4110   -0.1430 hc        1 Y10      0.037478
     37 H08B        7.1080   -0.0950    1.0300 hc        1 Y10      0.037478
     38 H09         6.5060    1.4980   -2.3330 hc        1 Y10      0.037478
     39 H09A        6.4400    3.1970   -1.7020 hc        1 Y10      0.037478
     40 H09B        8.0120    2.2930   -1.7090 hc        1 Y10      0.037478
     41 H10         8.2920    2.7280    0.7340 hc        1 Y10      0.037478
     42 H10A        6.7250    3.6410    0.7550 hc        1 Y10      0.037478
     43 H10B        6.9860    2.2620    1.9040 hc        1 Y10      0.037478
     44 H12        -3.8990   -1.9890   -0.6050 h1        1 Y10      0.091700
     45 H13        -3.2240    0.7640   -1.6350 hc        1 Y10      0.063450
     46 H13A       -4.4380   -0.4440   -2.2140 hc        1 Y10      0.063450
     47 H16        -4.8650   -1.5490    1.4290 hc        1 Y10      0.063450
     48 H16A       -3.6380   -0.3030    1.8830 hc        1 Y10      0.063450
     49 H17        -5.8010    2.1830   -2.2030 ha        1 Y10      0.133000
     50 H18        -7.5160    3.2660   -0.7450 ha        1 Y10      0.130000
     51 H19        -7.7930    2.5490    1.6210 ha        1 Y10      0.130000
     52 H20        -6.3610    0.7370    2.5710 ha        1 Y10      0.133000
     53 H21         1.3300   -4.4320   -0.0880 h1        1 Y10      0.048367
     54 H21A        0.6950   -4.5660    1.6340 h1        1 Y10      0.048367
     55 H21B       -0.4790   -4.4910    0.2150 h1        1 Y10      0.048367
     56 C21         0.5080   -4.1470    0.6140 c3        1 Y10      0.104700
     57 C03         4.4270    0.5050    0.3130 c2        1 Y10     -0.246200
     58 C02         5.1340    1.5980    0.0230 c2        1 Y10     -0.116200
@<TRIPOS>BOND
     1    1   15 1   
     2    1   16 1   
     3    1   25 1   
     4    2    8 1   
     5    2   26 1   
     6    3   10 1   
     7    3   27 1   
     8    4    9 1   
     9    4   28 1   
    10    5   15 2   
    11    6   11 1   
    12    6   56 1   
    13    7   12 1   
    14    7   13 1   
    15    7   14 1   
    16    7   58 1   
    17    8    9 1   
    18    8   31 1   
    19    8   57 1   
    20    9   10 1   
    21    9   32 1   
    22   10   11 1   
    23   10   33 1   
    24   11   15 1   
    25   11   34 1   
    26   12   35 1   
    27   12   36 1   
    28   12   37 1   
    29   13   38 1   
    30   13   39 1   
    31   13   40 1   
    32   14   41 1   
    33   14   42 1   
    34   14   43 1   
    35   16   17 1   
    36   16   20 1   
    37   16   44 1   
    38   17   18 1   
    39   17   45 1   
    40   17   46 1   
    41   18   19 ar  
    42   18   21 ar  
    43   19   20 1   
    44   19   24 ar  
    45   20   47 1   
    46   20   48 1   
    47   21   22 ar  
    48   21   49 1   
    49   22   23 ar  
    50   22   50 1   
    51   23   24 ar  
    52   23   51 1   
    53   24   52 1   
    54   29   58 1   
    55   30   57 1   
    56   53   56 1   
    57   54   56 1   
    58   55   56 1   
    59   57   58 2   
@<TRIPOS>SUBSTRUCTURE
     1 Y10         1 TEMP              0 ****  ****    0 ROOT
