@<TRIPOS>MOLECULE
Y11
   66    68     1     0     0
SMALL
bcc


@<TRIPOS>ATOM
      1 C01        -0.2320    0.3570   -0.5680 c         1 Y11      0.643100
      2 C02        -0.4140    2.4300    0.6510 c3        1 Y11      0.030000
      3 C03        -0.0460    2.9640    2.0440 c3        1 Y11      0.113900
      4 C04        -0.7030    0.9780    3.1050 c3        1 Y11      0.113900
      5 C05        -1.0870    0.3040    1.7690 c3        1 Y11      0.030000
      6 O06         0.2040    0.8750   -1.6170 o         1 Y11     -0.609100
      7 O07        -0.8750    2.3800    3.0370 os        1 Y11     -0.361600
      8 N08        -0.4820    0.9590    0.6160 n         1 Y11     -0.367800
      9 N09        -0.4480   -1.1650   -0.7190 n4        1 Y11     -0.669800
     10 C10         0.1960   -1.6960   -1.9710 c3        1 Y11      0.083500
     11 C11         0.0080   -3.2140   -2.1110 c3        1 Y11     -0.118400
     12 C12         0.4740   -4.0190   -0.9060 c3        1 Y11     -0.081700
     13 C13         0.3280   -5.5050   -1.2360 c3        1 Y11     -0.076900
     14 C14         0.7660   -6.3610   -0.0650 c3        1 Y11     -0.079900
     15 C15         2.1870   -6.0440    0.3500 c3        1 Y11     -0.085400
     16 C16         2.3560   -4.5700    0.6520 c3        1 Y11     -0.079900
     17 C17         1.9130   -3.7110   -0.5170 c3        1 Y11     -0.076900
     18 C18        -0.4390   -1.0160   -3.1990 c         1 Y11      0.537100
     19 O19        -1.6480   -0.9800   -3.3800 o         1 Y11     -0.389100
     20 N20         0.4710   -0.3460   -4.1670 n4        1 Y11     -0.664800
     21 C21        -0.9340   -0.1860   -6.2760 c3        1 Y11     -0.110400
     22 C22        -0.8110    1.3250   -6.4660 c3        1 Y11      0.164800
     23 C23         1.6020    1.1950   -6.5820 c3        1 Y11      0.164800
     24 C24         1.5780   -0.3240   -6.4170 c3        1 Y11     -0.110400
     25 N25         0.3880    1.7020   -7.1860 n3        1 Y11     -0.745600
     26 C26         0.4450    3.0990   -7.5490 c3        1 Y11      0.158100
     27 C27         0.2570   -2.2560   -5.6760 c1        1 Y11      0.112700
     28 N28         0.1940   -3.4120   -5.7790 n1        1 Y11     -0.208800
     29 C29         0.3300   -0.7970   -5.6400 c3        1 Y11      0.255300
     30 H031       -0.2750    4.0650    2.0900 h1        1 Y11      0.097700
     31 H032        1.0360    2.7810    2.2740 h1        1 Y11      0.097700
     32 H041        0.3540    0.7220    3.3830 h1        1 Y11      0.097700
     33 H042       -1.4140    0.6370    3.9070 h1        1 Y11      0.097700
     34 H051       -0.7650   -0.7710    1.8400 h1        1 Y11      0.086200
     35 H052       -2.2090    0.3520    1.6520 h1        1 Y11      0.086200
     36 HN09       -1.4580   -1.3590   -0.7430 hn        1 Y11      0.482800
     37 H10         1.3010   -1.4550   -1.8870 hx        1 Y11      0.139700
     38 H111       -1.0720   -3.4470   -2.3190 hc        1 Y11      0.103200
     39 H112        0.6060   -3.5340   -3.0100 hc        1 Y11      0.103200
     40 H12        -0.1970   -3.8070   -0.0260 hc        1 Y11      0.037700
     41 H131       -0.7410   -5.7290   -1.4890 hc        1 Y11      0.043700
     42 H132        0.9530   -5.7510   -2.1340 hc        1 Y11      0.043700
     43 H141        0.6910   -7.4430   -0.3560 hc        1 Y11      0.060950
     44 H142        0.0720   -6.2000    0.8020 hc        1 Y11      0.060950
     45 H151        2.4540   -6.6430    1.2600 hc        1 Y11      0.068700
     46 H152        2.8940   -6.3450   -0.4670 hc        1 Y11      0.068700
     47 H161        1.7590   -4.3030    1.5630 hc        1 Y11      0.060950
     48 H162        3.4340   -4.3550    0.8790 hc        1 Y11      0.060950
     49 H171        2.5870   -3.9020   -1.3940 hc        1 Y11      0.043700
     50 H172        2.0170   -2.6300   -0.2360 hc        1 Y11      0.043700
     51 HN20        0.2610    0.6700   -4.1460 hn        1 Y11      0.481300
     52 H211       -1.8480   -0.4170   -5.6690 hc        1 Y11      0.109950
     53 H212       -1.0600   -0.6820   -7.2810 hc        1 Y11      0.109950
     54 H221       -0.8840    1.8350   -5.4580 h1        1 Y11      0.052950
     55 H222       -1.7000    1.6680   -7.0730 h1        1 Y11      0.052950
     56 H231        1.8150    1.6720   -5.5780 h1        1 Y11      0.052950
     57 H232        2.4640    1.4570   -7.2640 h1        1 Y11      0.052950
     58 H241        1.5290   -0.8120   -7.4320 hc        1 Y11      0.109950
     59 H242        2.5250   -0.6680   -5.9270 hc        1 Y11      0.109950
     60 H261       -0.4820    3.3600   -8.1250 h1        1 Y11      0.058700
     61 H262        0.5240    3.7790   -6.6570 h1        1 Y11      0.058700
     62 H263        1.3360    3.2630   -8.2120 h1        1 Y11      0.058700
     63 H021        0.3490    2.7860   -0.0970 h1        1 Y11      0.086200
     64 H092       -0.0320   -1.6770    0.0760 hn        1 Y11      0.482800
     65 H202        1.4480   -0.4750   -3.8800 hn        1 Y11      0.481300
     66 H022       -1.4320    2.8210    0.3590 h1        1 Y11      0.086200
@<TRIPOS>BOND
     1    1    6 2   
     2    1    8 1   
     3    1    9 1   
     4    2    3 1   
     5    2    8 1   
     6    2   63 1   
     7    2   66 1   
     8    3    7 1   
     9    3   30 1   
    10    3   31 1   
    11    4    5 1   
    12    4    7 1   
    13    4   32 1   
    14    4   33 1   
    15    5    8 1   
    16    5   34 1   
    17    5   35 1   
    18    9   10 1   
    19    9   36 1   
    20    9   64 1   
    21   10   11 1   
    22   10   18 1   
    23   10   37 1   
    24   11   12 1   
    25   11   38 1   
    26   11   39 1   
    27   12   13 1   
    28   12   17 1   
    29   12   40 1   
    30   13   14 1   
    31   13   41 1   
    32   13   42 1   
    33   14   15 1   
    34   14   43 1   
    35   14   44 1   
    36   15   16 1   
    37   15   45 1   
    38   15   46 1   
    39   16   17 1   
    40   16   47 1   
    41   16   48 1   
    42   17   49 1   
    43   17   50 1   
    44   18   19 2   
    45   18   20 1   
    46   20   29 1   
    47   20   51 1   
    48   20   65 1   
    49   21   22 1   
    50   21   29 1   
    51   21   52 1   
    52   21   53 1   
    53   22   25 1   
    54   22   54 1   
    55   22   55 1   
    56   23   24 1   
    57   23   25 1   
    58   23   56 1   
    59   23   57 1   
    60   24   29 1   
    61   24   58 1   
    62   24   59 1   
    63   25   26 1   
    64   26   60 1   
    65   26   61 1   
    66   26   62 1   
    67   27   28 3   
    68   27   29 1   
@<TRIPOS>SUBSTRUCTURE
     1 Y11         1 TEMP              0 ****  ****    0 ROOT
