@<TRIPOS>MOLECULE
Y11
   64    66     1     0     0
SMALL
bcc


@<TRIPOS>ATOM
      1 C01         1.3070    0.9560   -0.9230 c         1 Y11      0.731100
      2 C02         2.3120    2.4750   -2.5500 c3        1 Y11      0.034000
      3 C03         3.7510    2.1080   -2.9310 c3        1 Y11      0.095400
      4 C04         4.4280    2.2850   -0.6680 c3        1 Y11      0.095400
      5 C05         3.0000    2.6710   -0.2520 c3        1 Y11      0.034000
      6 O06         0.8660    0.2800   -1.8850 o         1 Y11     -0.643100
      7 O07         4.6950    2.6560   -2.0150 os        1 Y11     -0.411600
      8 N08         1.9760    2.1880   -1.1620 n         1 Y11     -0.420800
      9 N09         1.1090    0.5050    0.4010 n         1 Y11     -0.517900
     10 C10         0.1400   -0.5470    0.6210 c3        1 Y11      0.025700
     11 C11         0.4860   -1.4250    1.8360 c3        1 Y11     -0.076400
     12 C12         1.7180   -2.2880    1.6190 c3        1 Y11     -0.063700
     13 C13         2.2230   -2.8000    2.9630 c3        1 Y11     -0.074900
     14 C14         3.4380   -3.6880    2.7940 c3        1 Y11     -0.075900
     15 C15         3.1510   -4.8430    1.8570 c3        1 Y11     -0.077400
     16 C16         2.6360   -4.3470    0.5210 c3        1 Y11     -0.075900
     17 C17         1.4200   -3.4600    0.6930 c3        1 Y11     -0.074900
     18 C18        -1.2710    0.0430    0.9130 c         1 Y11      0.634100
     19 O19        -1.3960    1.0050    1.6940 o         1 Y11     -0.606100
     20 N20        -2.3360   -0.5610    0.2830 n         1 Y11     -0.562900
     21 C21        -4.0190    1.3050    0.2680 c3        1 Y11     -0.088400
     22 C22        -3.8260    1.7160   -1.1860 c3        1 Y11      0.167800
     23 C23        -4.4310   -0.5080   -1.9540 c3        1 Y11      0.167800
     24 C24        -4.6410   -0.9780   -0.5190 c3        1 Y11     -0.088400
     25 N25        -4.6140    0.9260   -2.1230 n3        1 Y11     -0.734600
     26 C26        -4.4230    1.3450   -3.4930 c3        1 Y11      0.157100
     27 C27        -4.1800   -0.5600    1.8350 c1        1 Y11      0.196700
     28 N28        -4.5410   -0.8380    2.9040 n1        1 Y11     -0.359800
     29 C29        -3.7320   -0.2030    0.4730 c3        1 Y11      0.202500
     30 H022        1.6020    1.9370   -3.2380 h1        1 Y11      0.074200
     31 H031        3.8800    0.9940   -2.9790 h1        1 Y11      0.059700
     32 H032        4.0220    2.5700   -3.9160 h1        1 Y11      0.059700
     33 H041        5.1750    2.8640   -0.0650 h1        1 Y11      0.059700
     34 H042        4.5990    1.1840   -0.5390 h1        1 Y11      0.059700
     35 H051        2.8310    2.3260    0.8020 h1        1 Y11      0.074200
     36 H052        2.9190    3.7970   -0.2620 h1        1 Y11      0.074200
     37 HN09        1.1170    1.1940    1.1260 hn        1 Y11      0.312500
     38 H10         0.1170   -1.1950   -0.3060 h1        1 Y11      0.102700
     39 H111        0.6350   -0.7720    2.7370 hc        1 Y11      0.059200
     40 H112       -0.3990   -2.0830    2.0420 hc        1 Y11      0.059200
     41 H12         2.5320   -1.6660    1.1520 hc        1 Y11      0.062700
     42 H131        2.4850   -1.9300    3.6200 hc        1 Y11      0.040200
     43 H132        1.4050   -3.3730    3.4730 hc        1 Y11      0.040200
     44 H141        4.2900   -3.0810    2.3890 hc        1 Y11      0.040450
     45 H142        3.7520   -4.0850    3.7940 hc        1 Y11      0.040450
     46 H151        4.0860   -5.4410    1.7000 hc        1 Y11      0.039700
     47 H152        2.3900   -5.5220    2.3220 hc        1 Y11      0.039700
     48 H161        3.4460   -3.7730   -0.0020 hc        1 Y11      0.040450
     49 H162        2.3710   -5.2220   -0.1280 hc        1 Y11      0.040450
     50 H171        0.5740   -4.0640    1.1160 hc        1 Y11      0.040200
     51 H172        1.0970   -3.0780   -0.3100 hc        1 Y11      0.040200
     52 HN20       -2.1580   -1.3060   -0.3500 hn        1 Y11      0.323500
     53 H211       -3.3400    1.9210    0.9140 hc        1 Y11      0.073200
     54 H212       -5.0770    1.4980    0.5860 hc        1 Y11      0.073200
     55 H221       -4.1580    2.7880   -1.2940 h1        1 Y11      0.038700
     56 H222       -2.7240    1.6760   -1.4340 h1        1 Y11      0.038700
     57 H231       -3.4100   -0.8430   -2.3070 h1        1 Y11      0.038700
     58 H232       -5.1940   -1.0220   -2.6070 h1        1 Y11      0.038700
     59 H241       -5.7050   -0.8030   -0.2110 hc        1 Y11      0.073200
     60 H242       -4.4430   -2.0790   -0.4640 hc        1 Y11      0.073200
     61 H261       -5.1250    0.7670   -4.1490 h1        1 Y11      0.034700
     62 H262       -4.6710    2.4360   -3.5720 h1        1 Y11      0.034700
     63 H263       -3.3730    1.1890   -3.8650 h1        1 Y11      0.034700
     64 H021        2.1710    3.5860   -2.6800 h1        1 Y11      0.074200
@<TRIPOS>BOND
     1    1    6 2   
     2    1    8 1   
     3    1    9 1   
     4    2    3 1   
     5    2    8 1   
     6    2   30 1   
     7    2   64 1   
     8    3    7 1   
     9    3   31 1   
    10    3   32 1   
    11    4    5 1   
    12    4    7 1   
    13    4   33 1   
    14    4   34 1   
    15    5    8 1   
    16    5   35 1   
    17    5   36 1   
    18    9   10 1   
    19    9   37 1   
    20   10   11 1   
    21   10   18 1   
    22   10   38 1   
    23   11   12 1   
    24   11   39 1   
    25   11   40 1   
    26   12   13 1   
    27   12   17 1   
    28   12   41 1   
    29   13   14 1   
    30   13   42 1   
    31   13   43 1   
    32   14   15 1   
    33   14   44 1   
    34   14   45 1   
    35   15   16 1   
    36   15   46 1   
    37   15   47 1   
    38   16   17 1   
    39   16   48 1   
    40   16   49 1   
    41   17   50 1   
    42   17   51 1   
    43   18   19 2   
    44   18   20 1   
    45   20   29 1   
    46   20   52 1   
    47   21   22 1   
    48   21   29 1   
    49   21   53 1   
    50   21   54 1   
    51   22   25 1   
    52   22   55 1   
    53   22   56 1   
    54   23   24 1   
    55   23   25 1   
    56   23   57 1   
    57   23   58 1   
    58   24   29 1   
    59   24   59 1   
    60   24   60 1   
    61   25   26 1   
    62   26   61 1   
    63   26   62 1   
    64   26   63 1   
    65   27   28 3   
    66   27   29 1   
@<TRIPOS>SUBSTRUCTURE
     1 Y11         1 TEMP              0 ****  ****    0 ROOT
