@<TRIPOS>MOLECULE
Y11
   66    68     1     0     0
SMALL
bcc


@<TRIPOS>ATOM
      1 C01        -0.2450    0.3340   -0.5540 c         1 Y11      0.643100
      2 C02        -0.4470    2.3920    0.6880 c3        1 Y11      0.030000
      3 C03        -0.0820    2.9130    2.0860 c3        1 Y11      0.113900
      4 C04        -0.7190    0.9090    3.1260 c3        1 Y11      0.113900
      5 C05        -1.0990    0.2480    1.7830 c3        1 Y11      0.030000
      6 O06         0.1850    0.8680   -1.5980 o         1 Y11     -0.609100
      7 O07        -0.9050    2.3110    3.0740 os        1 Y11     -0.361600
      8 N08        -0.5010    0.9200    0.6370 n         1 Y11     -0.367800
      9 N09        -0.4470   -1.1880   -0.7210 ny        1 Y11     -0.670800
     10 C10         0.2030   -1.6990   -1.9790 c3        1 Y11      0.083500
     11 C11         0.0310   -3.2180   -2.1350 c3        1 Y11     -0.118400
     12 C12         0.5030   -4.0300   -0.9380 c3        1 Y11     -0.081700
     13 C13         0.3730   -5.5140   -1.2830 c3        1 Y11     -0.076900
     14 C14         0.8180   -6.3780   -0.1210 c3        1 Y11     -0.079900
     15 C15         2.2350   -6.0510    0.2990 c3        1 Y11     -0.085400
     16 C16         2.3890   -4.5790    0.6170 c3        1 Y11     -0.079900
     17 C17         1.9380   -3.7120   -0.5440 c3        1 Y11     -0.076900
     18 C18        -0.4390   -1.0130   -3.2000 c         1 Y11      0.537100
     19 O19        -1.6480   -0.9880   -3.3820 o         1 Y11     -0.389100
     20 N20         0.4640   -0.3230   -4.1600 ny        1 Y11     -0.664800
     21 C21        -0.9400   -0.1610   -6.2690 c3        1 Y11     -0.110400
     22 C22        -0.8370    1.3540   -6.4440 c3        1 Y11      0.164800
     23 C23         1.5770    1.2580   -6.5580 c3        1 Y11      0.164800
     24 C24         1.5740   -0.2620   -6.4080 c3        1 Y11     -0.110400
     25 N25         0.3570    1.7540   -7.1590 n3        1 Y11     -0.745600
     26 C26         0.3960    3.1560   -7.5070 c3        1 Y11      0.158100
     27 C27         0.2780   -2.2190   -5.6880 c1        1 Y11      0.112700
     28 N28         0.2310   -3.3750   -5.8040 n1        1 Y11     -0.208800
     29 C29         0.3320   -0.7600   -5.6380 c3        1 Y11      0.255300
     30 H031        1.0020    2.7370    2.3140 h1        1 Y11      0.097700
     31 H032       -0.3210    4.0110    2.1450 h1        1 Y11      0.097700
     32 H041       -1.4270    0.5540    3.9250 h1        1 Y11      0.097700
     33 H042        0.3400    0.6600    3.4000 h1        1 Y11      0.097700
     34 H051       -0.7680   -0.8250    1.8410 h1        1 Y11      0.086200
     35 H052       -2.2220    0.2870    1.6670 h1        1 Y11      0.086200
     36 HN09       -0.0270   -1.7050    0.0680 hn        1 Y11      0.482800
     37 H10         1.3060   -1.4480   -1.8920 hx        1 Y11      0.139700
     38 H111        0.6330   -3.5220   -3.0360 hc        1 Y11      0.103200
     39 H112       -1.0470   -3.4590   -2.3470 hc        1 Y11      0.103200
     40 H12        -0.1710   -3.8340   -0.0560 hc        1 Y11      0.037700
     41 H131        1.0010   -5.7440   -2.1830 hc        1 Y11      0.043700
     42 H132       -0.6940   -5.7460   -1.5400 hc        1 Y11      0.043700
     43 H141        0.7550   -7.4570   -0.4230 hc        1 Y11      0.060950
     44 H142        0.1220   -6.2330    0.7470 hc        1 Y11      0.060950
     45 H151        2.5070   -6.6570    1.2040 hc        1 Y11      0.068700
     46 H152        2.9470   -6.3360   -0.5200 hc        1 Y11      0.068700
     47 H161        1.7880   -4.3270    1.5300 hc        1 Y11      0.060950
     48 H162        3.4640   -4.3540    0.8470 hc        1 Y11      0.060950
     49 H171        2.6150   -3.8870   -1.4210 hc        1 Y11      0.043700
     50 H172        2.0320   -2.6320   -0.2510 hc        1 Y11      0.043700
     51 HN20        0.2420    0.6900   -4.1300 hn        1 Y11      0.481300
     52 H211       -1.8510   -0.4090   -5.6650 hc        1 Y11      0.109950
     53 H212       -1.0580   -0.6470   -7.2790 hc        1 Y11      0.109950
     54 H221       -1.7310    1.6910   -7.0480 h1        1 Y11      0.052950
     55 H222       -0.9190    1.8530   -5.4300 h1        1 Y11      0.052950
     56 H231        2.4360    1.5380   -7.2360 h1        1 Y11      0.052950
     57 H232        1.7830    1.7280   -5.5480 h1        1 Y11      0.052950
     58 H241        2.5250   -0.5980   -5.9200 hc        1 Y11      0.109950
     59 H242        1.5330   -0.7410   -7.4280 hc        1 Y11      0.109950
     60 H261        0.4650    3.8280   -6.6080 h1        1 Y11      0.058700
     61 H262       -0.5340    3.4100   -8.0820 h1        1 Y11      0.058700
     62 H263        1.2850    3.3380   -8.1670 h1        1 Y11      0.058700
     63 H021       -1.4690    2.7760    0.4020 h1        1 Y11      0.086200
     64 H092       -1.4550   -1.3920   -0.7490 hn        1 Y11      0.482800
     65 H202        1.4420   -0.4420   -3.8730 hn        1 Y11      0.481300
     66 H022        0.3110    2.7630   -0.0570 h1        1 Y11      0.086200
@<TRIPOS>BOND
     1    1    6 2   
     2    1    8 1   
     3    1    9 1   
     4    2    3 1   
     5    2    8 1   
     6    2   63 1   
     7    2   66 1   
     8    3    7 1   
     9    3   30 1   
    10    3   31 1   
    11    4    5 1   
    12    4    7 1   
    13    4   32 1   
    14    4   33 1   
    15    5    8 1   
    16    5   34 1   
    17    5   35 1   
    18    9   10 1   
    19    9   36 1   
    20    9   64 1   
    21   10   11 1   
    22   10   18 1   
    23   10   37 1   
    24   11   12 1   
    25   11   38 1   
    26   11   39 1   
    27   12   13 1   
    28   12   17 1   
    29   12   40 1   
    30   13   14 1   
    31   13   41 1   
    32   13   42 1   
    33   14   15 1   
    34   14   43 1   
    35   14   44 1   
    36   15   16 1   
    37   15   45 1   
    38   15   46 1   
    39   16   17 1   
    40   16   47 1   
    41   16   48 1   
    42   17   49 1   
    43   17   50 1   
    44   18   19 2   
    45   18   20 1   
    46   20   29 1   
    47   20   51 1   
    48   20   65 1   
    49   21   22 1   
    50   21   29 1   
    51   21   52 1   
    52   21   53 1   
    53   22   25 1   
    54   22   54 1   
    55   22   55 1   
    56   23   24 1   
    57   23   25 1   
    58   23   56 1   
    59   23   57 1   
    60   24   29 1   
    61   24   58 1   
    62   24   59 1   
    63   25   26 1   
    64   26   60 1   
    65   26   61 1   
    66   26   62 1   
    67   27   28 3   
    68   27   29 1   
@<TRIPOS>SUBSTRUCTURE
     1 Y11         1 TEMP              0 ****  ****    0 ROOT
