@<TRIPOS>MOLECULE
Y11
   66    68     1     0     0
SMALL
bcc


@<TRIPOS>ATOM
      1 C01        -0.2270    0.3560   -0.5670 c         1 Y11      0.643100
      2 C02        -0.4090    2.4290    0.6530 c3        1 Y11      0.030000
      3 C03        -0.0330    2.9640    2.0430 c3        1 Y11      0.113900
      4 C04        -0.6780    0.9770    3.1090 c3        1 Y11      0.113900
      5 C05        -1.0690    0.3020    1.7760 c3        1 Y11      0.030000
      6 O06         0.2010    0.8750   -1.6180 o         1 Y11     -0.609100
      7 O07        -0.8550    2.3790    3.0420 os        1 Y11     -0.361600
      8 N08        -0.4720    0.9580    0.6190 n         1 Y11     -0.367800
      9 N09        -0.4390   -1.1670   -0.7150 n4        1 Y11     -0.669800
     10 C10         0.2000   -1.6960   -1.9700 c3        1 Y11      0.083500
     11 C11         0.0170   -3.2150   -2.1080 c3        1 Y11     -0.118400
     12 C12         0.4910   -4.0170   -0.9040 c3        1 Y11     -0.081700
     13 C13         0.3480   -5.5050   -1.2320 c3        1 Y11     -0.076900
     14 C14         0.7940   -6.3580   -0.0630 c3        1 Y11     -0.079900
     15 C15         2.2160   -6.0360    0.3450 c3        1 Y11     -0.085400
     16 C16         2.3820   -4.5610    0.6450 c3        1 Y11     -0.079900
     17 C17         1.9300   -3.7040   -0.5220 c3        1 Y11     -0.076900
     18 C18        -0.4440   -1.0200   -3.1960 c         1 Y11      0.537100
     19 O19        -1.6540   -0.9890   -3.3700 o         1 Y11     -0.389100
     20 N20         0.4580   -0.3470   -4.1680 n4        1 Y11     -0.664800
     21 C21        -0.9580   -0.1990   -6.2710 c3        1 Y11     -0.110400
     22 C22        -0.8460    1.3130   -6.4630 c3        1 Y11      0.164800
     23 C23         1.5670    1.2000   -6.5900 c3        1 Y11      0.164800
     24 C24         1.5550   -0.3190   -6.4230 c3        1 Y11     -0.110400
     25 N25         0.3470    1.6980   -7.1890 n3        1 Y11     -0.745600
     26 C26         0.3940    3.0950   -7.5530 c3        1 Y11      0.158100
     27 C27         0.2500   -2.2590   -5.6740 c1        1 Y11      0.112700
     28 N28         0.1940   -3.4160   -5.7760 n1        1 Y11     -0.208800
     29 C29         0.3140   -0.7990   -5.6410 c3        1 Y11      0.255300
     30 H031        1.0510    2.7840    2.2670 h1        1 Y11      0.097700
     31 H032       -0.2650    4.0650    2.0900 h1        1 Y11      0.097700
     32 H041       -1.3840    0.6350    3.9160 h1        1 Y11      0.097700
     33 H042        0.3810    0.7240    3.3810 h1        1 Y11      0.097700
     34 H051       -0.7440   -0.7720    1.8450 h1        1 Y11      0.086200
     35 H052       -2.1920    0.3480    1.6650 h1        1 Y11      0.086200
     36 HN09       -1.4490   -1.3640   -0.7340 hn        1 Y11      0.482800
     37 H10         1.3050   -1.4510   -1.8930 hx        1 Y11      0.139700
     38 H111        0.6120   -3.5340   -3.0090 hc        1 Y11      0.103200
     39 H112       -1.0630   -3.4520   -2.3110 hc        1 Y11      0.103200
     40 H12        -0.1770   -3.8070   -0.0210 hc        1 Y11      0.037700
     41 H131       -0.7210   -5.7320   -1.4800 hc        1 Y11      0.043700
     42 H132        0.9700   -5.7490   -2.1330 hc        1 Y11      0.043700
     43 H141        0.1040   -6.1980    0.8070 hc        1 Y11      0.060950
     44 H142        0.7220   -7.4400   -0.3520 hc        1 Y11      0.060950
     45 H151        2.4890   -6.6330    1.2550 hc        1 Y11      0.068700
     46 H152        2.9210   -6.3350   -0.4750 hc        1 Y11      0.068700
     47 H161        3.4600   -4.3410    0.8670 hc        1 Y11      0.060950
     48 H162        1.7880   -4.2940    1.5580 hc        1 Y11      0.060950
     49 H171        2.6010   -3.8940   -1.4020 hc        1 Y11      0.043700
     50 H172        2.0330   -2.6220   -0.2430 hc        1 Y11      0.043700
     51 HN20        0.2430    0.6680   -4.1480 hn        1 Y11      0.481300
     52 H211       -1.0850   -0.6960   -7.2750 hc        1 Y11      0.109950
     53 H212       -1.8670   -0.4340   -5.6600 hc        1 Y11      0.109950
     54 H221       -1.7400    1.6500   -7.0670 h1        1 Y11      0.052950
     55 H222       -0.9180    1.8240   -5.4550 h1        1 Y11      0.052950
     56 H231        1.7820    1.6800   -5.5880 h1        1 Y11      0.052950
     57 H232        2.4240    1.4660   -7.2770 h1        1 Y11      0.052950
     58 H241        1.5040   -0.8090   -7.4380 hc        1 Y11      0.109950
     59 H242        2.5060   -0.6560   -5.9370 hc        1 Y11      0.109950
     60 H261        1.2800    3.2640   -8.2210 h1        1 Y11      0.058700
     61 H262        0.4720    3.7760   -6.6630 h1        1 Y11      0.058700
     62 H263       -0.5380    3.3490   -8.1260 h1        1 Y11      0.058700
     63 H021        0.3490    2.7870   -0.1000 h1        1 Y11      0.086200
     64 H092       -0.0180   -1.6770    0.0780 hn        1 Y11      0.482800
     65 H202        1.4370   -0.4690   -3.8860 hn        1 Y11      0.481300
     66 H022       -1.4290    2.8170    0.3670 h1        1 Y11      0.086200
@<TRIPOS>BOND
     1    1    6 2   
     2    1    8 1   
     3    1    9 1   
     4    2    3 1   
     5    2    8 1   
     6    2   63 1   
     7    2   66 1   
     8    3    7 1   
     9    3   30 1   
    10    3   31 1   
    11    4    5 1   
    12    4    7 1   
    13    4   32 1   
    14    4   33 1   
    15    5    8 1   
    16    5   34 1   
    17    5   35 1   
    18    9   10 1   
    19    9   36 1   
    20    9   64 1   
    21   10   11 1   
    22   10   18 1   
    23   10   37 1   
    24   11   12 1   
    25   11   38 1   
    26   11   39 1   
    27   12   13 1   
    28   12   17 1   
    29   12   40 1   
    30   13   14 1   
    31   13   41 1   
    32   13   42 1   
    33   14   15 1   
    34   14   43 1   
    35   14   44 1   
    36   15   16 1   
    37   15   45 1   
    38   15   46 1   
    39   16   17 1   
    40   16   47 1   
    41   16   48 1   
    42   17   49 1   
    43   17   50 1   
    44   18   19 2   
    45   18   20 1   
    46   20   29 1   
    47   20   51 1   
    48   20   65 1   
    49   21   22 1   
    50   21   29 1   
    51   21   52 1   
    52   21   53 1   
    53   22   25 1   
    54   22   54 1   
    55   22   55 1   
    56   23   24 1   
    57   23   25 1   
    58   23   56 1   
    59   23   57 1   
    60   24   29 1   
    61   24   58 1   
    62   24   59 1   
    63   25   26 1   
    64   26   60 1   
    65   26   61 1   
    66   26   62 1   
    67   27   28 3   
    68   27   29 1   
@<TRIPOS>SUBSTRUCTURE
     1 Y11         1 TEMP              0 ****  ****    0 ROOT
