@<TRIPOS>MOLECULE
Y12
   48    49     1     0     0
SMALL
bcc


@<TRIPOS>ATOM
      1 C2         -9.4730   -0.4390    0.2040 ca        1 Y12     -0.131000
      2 C3         -8.4580   -1.3330    0.5450 ca        1 Y12     -0.128500
      3 C4         -7.1300   -0.9100    0.5630 ca        1 Y12     -0.126000
      4 C5         -6.8060    0.4140    0.2400 ca        1 Y12     -0.081300
      5 C7         -5.3890    0.8630    0.2730 c3        1 Y12     -0.065100
      6 C8         -4.6120    0.2650   -0.9100 c3        1 Y12      0.088000
      7 N9         -3.2290    0.6420   -0.9660 n         1 Y12     -0.562900
      8 C10        -2.2160   -0.1920   -0.5190 c         1 Y12      0.655300
      9 O27        -2.4580   -1.3690   -0.1750 o         1 Y12     -0.612100
     10 C11        -0.8370    0.3620   -0.5150 ce        1 Y12     -0.239200
     11 C12         0.1860   -0.3770   -0.0580 cf        1 Y12     -0.026200
     12 C13         1.5710    0.0630   -0.0130 ca        1 Y12     -0.071800
     13 C18         2.5810   -0.9100    0.0570 ca        1 Y12     -0.102000
     14 C17         3.9210   -0.5200    0.0920 ca        1 Y12      0.100100
     15 O23         4.9650   -1.4340    0.0310 os        1 Y12     -0.357200
     16 C24         5.0040   -2.4880    0.9230 c         1 Y12      0.640100
     17 O26         4.0870   -2.6300    1.7270 o         1 Y12     -0.517000
     18 C25         6.2240   -3.3190    0.7320 c3        1 Y12     -0.150100
     19 C16         4.2620    0.8500    0.0970 ca        1 Y12      0.117100
     20 O19         5.6030    1.1640    0.2690 os        1 Y12     -0.356200
     21 C20         6.1990    2.1140   -0.5350 c         1 Y12      0.642100
     22 O22         5.5220    2.7140   -1.3660 o         1 Y12     -0.519000
     23 C21         7.6490    2.2530   -0.2280 c3        1 Y12     -0.150100
     24 C15         3.2550    1.8170    0.0260 ca        1 Y12     -0.131000
     25 C14         1.9210    1.4200   -0.0300 ca        1 Y12     -0.102000
     26 C6         -7.8290    1.3060   -0.1000 ca        1 Y12     -0.126000
     27 C1         -9.1570    0.8800   -0.1170 ca        1 Y12     -0.128500
     28 H2        -10.5210   -0.7740    0.1910 ha        1 Y12      0.131000
     29 H3         -8.7040   -2.3740    0.8000 ha        1 Y12      0.131000
     30 H4         -6.3290   -1.6160    0.8330 ha        1 Y12      0.134500
     31 H71        -4.9170    0.5340    1.2380 hc        1 Y12      0.052200
     32 H72        -5.3370    1.9830    0.2370 hc        1 Y12      0.052200
     33 H81        -5.1010    0.6040   -1.8680 h1        1 Y12      0.067200
     34 H82        -4.6810   -0.8600   -0.8560 h1        1 Y12      0.067200
     35 HN9        -3.0300    1.6070   -1.0830 hn        1 Y12      0.302500
     36 H11        -0.6960    1.3790   -0.9100 ha        1 Y12      0.132000
     37 H12        -0.0030   -1.4050    0.3090 ha        1 Y12      0.160000
     38 H18         2.3260   -1.9810    0.0960 ha        1 Y12      0.163000
     39 H251        6.8780   -3.2050    1.6320 hc        1 Y12      0.079700
     40 H252        5.9200   -4.3900    0.6310 hc        1 Y12      0.079700
     41 H253        6.7890   -3.0020   -0.1780 hc        1 Y12      0.079700
     42 H211        8.2360    1.8480   -1.0890 hc        1 Y12      0.080033
     43 H212        7.8890    3.3370   -0.0960 hc        1 Y12      0.080033
     44 H213        7.9200    1.6920    0.7000 hc        1 Y12      0.080033
     45 H15         3.5260    2.8840   -0.0030 ha        1 Y12      0.161000
     46 H14         1.1360    2.1900   -0.0780 ha        1 Y12      0.140000
     47 H6         -7.5850    2.3490   -0.3540 ha        1 Y12      0.134500
     48 H1         -9.9550    1.5880   -0.3850 ha        1 Y12      0.131000
@<TRIPOS>BOND
     1    1    2 ar  
     2    1   27 ar  
     3    1   28 1   
     4    2    3 ar  
     5    2   29 1   
     6    3    4 ar  
     7    3   30 1   
     8    4    5 1   
     9    4   26 ar  
    10    5    6 1   
    11    5   31 1   
    12    5   32 1   
    13    6    7 1   
    14    6   33 1   
    15    6   34 1   
    16    7    8 1   
    17    7   35 1   
    18    8    9 2   
    19    8   10 1   
    20   10   11 2   
    21   10   36 1   
    22   11   12 1   
    23   11   37 1   
    24   12   13 ar  
    25   12   25 ar  
    26   13   14 ar  
    27   13   38 1   
    28   14   15 1   
    29   14   19 ar  
    30   15   16 1   
    31   16   17 2   
    32   16   18 1   
    33   18   39 1   
    34   18   40 1   
    35   18   41 1   
    36   19   20 1   
    37   19   24 ar  
    38   20   21 1   
    39   21   22 2   
    40   21   23 1   
    41   23   42 1   
    42   23   43 1   
    43   23   44 1   
    44   24   25 ar  
    45   24   45 1   
    46   25   46 1   
    47   26   27 ar  
    48   26   47 1   
    49   27   48 1   
@<TRIPOS>SUBSTRUCTURE
     1 Y12         1 TEMP              0 ****  ****    0 ROOT
