@<TRIPOS>MOLECULE
Y12
   49    50     1     0     0
SMALL
bcc


@<TRIPOS>ATOM
      1 C2          1.9450    2.2410    0.5460 ca        1 Y12     -0.101000
      2 C3          3.1200    1.6210    0.9760 ca        1 Y12     -0.117500
      3 C4          3.1160    0.8440    2.1330 ca        1 Y12     -0.116500
      4 C5          1.9350    0.6840    2.8680 ca        1 Y12     -0.127300
      5 C7          1.9280   -0.1630    4.0910 c3        1 Y12     -0.047100
      6 C8          2.4910    0.6460    5.2590 c3        1 Y12      0.104800
      7 N9          2.5320   -0.1300    6.5320 ny        1 Y12     -0.684800
      8 C10         3.1040    0.7140    7.6780 c         1 Y12      0.579300
      9 O27         4.2360    0.3710    7.9920 o         1 Y12     -0.449100
     10 C11         2.2160    1.7390    8.1650 ce        1 Y12     -0.350200
     11 C12         2.5370    2.7560    9.0020 cf        1 Y12      0.135800
     12 C13         3.7700    3.0930    9.6650 ca        1 Y12     -0.165800
     13 C18         4.0530    4.4650    9.8360 ca        1 Y12     -0.077000
     14 C17         5.2260    4.8610   10.4700 ca        1 Y12      0.095100
     15 O23         5.5320    6.1880   10.7280 os        1 Y12     -0.352200
     16 C24         5.4210    7.1300    9.7180 c         1 Y12      0.650100
     17 O26         4.9630    6.7770    8.6340 o         1 Y12     -0.528000
     18 C25         5.8930    8.4670   10.1660 c3        1 Y12     -0.150100
     19 C16         6.1300    3.8880   10.9700 ca        1 Y12      0.180100
     20 O19         7.3110    4.3660   11.4950 os        1 Y12     -0.360200
     21 C20         7.8800    3.7880   12.6250 c         1 Y12      0.652100
     22 O22         7.3170    2.8290   13.1390 o         1 Y12     -0.507000
     23 C21         9.1300    4.4920   13.0140 c3        1 Y12     -0.150100
     24 C15         5.8230    2.5290   10.8400 ca        1 Y12     -0.152000
     25 C14         4.6570    2.1400   10.1870 ca        1 Y12     -0.053000
     26 C6          0.7580    1.3040    2.4320 ca        1 Y12     -0.116500
     27 C1          0.7660    2.0800    1.2740 ca        1 Y12     -0.117500
     28 H2          1.9490    2.8520   -0.3700 ha        1 Y12      0.152000
     29 H3          4.0500    1.7420    0.3990 ha        1 Y12      0.149500
     30 H4          4.0410    0.3470    2.4620 ha        1 Y12      0.131500
     31 H71         2.5530   -1.0810    3.9170 hc        1 Y12      0.068200
     32 H72         0.8810   -0.5000    4.3200 hc        1 Y12      0.068200
     33 H81         3.5450    0.9740    5.0210 hx        1 Y12      0.110700
     34 H82         1.8600    1.5640    5.4330 hx        1 Y12      0.110700
     35 HN9         1.5890   -0.4420    6.7730 hn        1 Y12      0.451800
     36 H11         1.1750    1.7030    7.7920 ha        1 Y12      0.156000
     37 H12         1.7180    3.4900    9.1910 ha        1 Y12      0.159000
     38 H18         3.3630    5.2320    9.4470 ha        1 Y12      0.167000
     39 H251        5.1150    9.2290    9.9110 hc        1 Y12      0.089367
     40 H252        6.8390    8.7120    9.6210 hc        1 Y12      0.089367
     41 H253        6.0860    8.4790   11.2660 hc        1 Y12      0.089367
     42 H211        9.4030    5.2780   12.2670 hc        1 Y12      0.090033
     43 H212        9.9570    3.7430   13.0900 hc        1 Y12      0.090033
     44 H213        8.9740    4.9690   14.0140 hc        1 Y12      0.090033
     45 H15         6.5000    1.7700   11.2650 ha        1 Y12      0.181000
     46 H14         4.4310    1.0650   10.1050 ha        1 Y12      0.150000
     47 H6         -0.1780    1.1720    2.9940 ha        1 Y12      0.131500
     48 H1         -0.1630    2.5620    0.9310 ha        1 Y12      0.149500
     49 H92         3.1270   -0.9590    6.4030 hn        1 Y12      0.451800
@<TRIPOS>BOND
     1    1    2 ar  
     2    1   27 ar  
     3    1   28 1   
     4    2    3 ar  
     5    2   29 1   
     6    3    4 ar  
     7    3   30 1   
     8    4    5 1   
     9    4   26 ar  
    10    5    6 1   
    11    5   31 1   
    12    5   32 1   
    13    6    7 1   
    14    6   33 1   
    15    6   34 1   
    16    7    8 1   
    17    7   35 1   
    18    7   49 1   
    19    8    9 2   
    20    8   10 1   
    21   10   11 2   
    22   10   36 1   
    23   11   12 1   
    24   11   37 1   
    25   12   13 ar  
    26   12   25 ar  
    27   13   14 ar  
    28   13   38 1   
    29   14   15 1   
    30   14   19 ar  
    31   15   16 1   
    32   16   17 2   
    33   16   18 1   
    34   18   39 1   
    35   18   40 1   
    36   18   41 1   
    37   19   20 1   
    38   19   24 ar  
    39   20   21 1   
    40   21   22 2   
    41   21   23 1   
    42   23   42 1   
    43   23   43 1   
    44   23   44 1   
    45   24   25 ar  
    46   24   45 1   
    47   25   46 1   
    48   26   27 ar  
    49   26   47 1   
    50   27   48 1   
@<TRIPOS>SUBSTRUCTURE
     1 Y12         1 TEMP              0 ****  ****    0 ROOT
