@<TRIPOS>MOLECULE
Y12
   49    50     1     0     0
SMALL
bcc


@<TRIPOS>ATOM
      1 C2          1.8720    2.2630    0.5760 ca        1 Y12     -0.101000
      2 C3          3.0470    1.6360    0.9940 ca        1 Y12     -0.117500
      3 C4          3.0490    0.8560    2.1490 ca        1 Y12     -0.116500
      4 C5          1.8740    0.7020    2.8940 ca        1 Y12     -0.127300
      5 C7          1.8730   -0.1480    4.1160 c3        1 Y12     -0.047100
      6 C8          2.4530    0.6550    5.2800 c3        1 Y12      0.104800
      7 N9          2.5010   -0.1230    6.5510 n4        1 Y12     -0.684800
      8 C10         3.0880    0.7150    7.6940 c         1 Y12      0.579300
      9 O27         4.2210    0.3640    7.9970 o         1 Y12     -0.449100
     10 C11         2.2130    1.7460    8.1900 ce        1 Y12     -0.350200
     11 C12         2.5490    2.7620    9.0220 cf        1 Y12      0.135800
     12 C13         3.7920    3.0910    9.6700 ca        1 Y12     -0.165800
     13 C18         4.0860    4.4620    9.8350 ca        1 Y12     -0.077000
     14 C17         5.2700    4.8510   10.4540 ca        1 Y12      0.095100
     15 O23         5.5870    6.1770   10.7050 os        1 Y12     -0.352200
     16 C24         5.4710    7.1180    9.6940 c         1 Y12      0.650100
     17 O26         4.9980    6.7650    8.6170 o         1 Y12     -0.528000
     18 C25         5.9560    8.4520   10.1340 c3        1 Y12     -0.150100
     19 C16         6.1720    3.8740   10.9460 ca        1 Y12      0.180100
     20 O19         7.3630    4.3450   11.4560 os        1 Y12     -0.360200
     21 C20         7.9410    3.7660   12.5800 c         1 Y12      0.652100
     22 O22         7.3780    2.8110   13.1030 o         1 Y12     -0.507000
     23 C21         9.2000    4.4620   12.9530 c3        1 Y12     -0.150100
     24 C15         5.8550    2.5170   10.8220 ca        1 Y12     -0.152000
     25 C14         4.6790    2.1340   10.1840 ca        1 Y12     -0.053000
     26 C6          0.6970    1.3300    2.4710 ca        1 Y12     -0.116500
     27 C1          0.6990    2.1080    1.3140 ca        1 Y12     -0.117500
     28 H2          1.8710    2.8760   -0.3390 ha        1 Y12      0.152000
     29 H3          3.9720    1.7520    0.4090 ha        1 Y12      0.149500
     30 H4          3.9740    0.3530    2.4690 ha        1 Y12      0.131500
     31 H71         2.4910   -1.0690    3.9350 hc        1 Y12      0.068200
     32 H72         0.8270   -0.4780    4.3550 hc        1 Y12      0.068200
     33 H81         3.5060    0.9770    5.0330 hx        1 Y12      0.110700
     34 H82         1.8290    1.5770    5.4620 hx        1 Y12      0.110700
     35 HN9         1.5570   -0.4300    6.8010 hn        1 Y12      0.451800
     36 H11         1.1670    1.7160    7.8290 ha        1 Y12      0.156000
     37 H12         1.7370    3.5010    9.2200 ha        1 Y12      0.159000
     38 H18         3.3970    5.2330    9.4520 ha        1 Y12      0.167000
     39 H251        5.1810    9.2190    9.8870 hc        1 Y12      0.089367
     40 H252        6.8980    8.6900    9.5780 hc        1 Y12      0.089367
     41 H253        6.1620    8.4660   11.2320 hc        1 Y12      0.089367
     42 H211        9.4690    5.2450   12.2020 hc        1 Y12      0.090033
     43 H212       10.0230    3.7080   13.0200 hc        1 Y12      0.090033
     44 H213        9.0590    4.9410   13.9540 hc        1 Y12      0.090033
     45 H15         6.5320    1.7540   11.2410 ha        1 Y12      0.181000
     46 H14         4.4450    1.0600   10.1070 ha        1 Y12      0.150000
     47 H6         -0.2350    1.2020    3.0420 ha        1 Y12      0.131500
     48 H1         -0.2300    2.5960    0.9810 ha        1 Y12      0.149500
     49 H92         3.0890   -0.9550    6.4150 hn        1 Y12      0.451800
@<TRIPOS>BOND
     1    1    2 ar  
     2    1   27 ar  
     3    1   28 1   
     4    2    3 ar  
     5    2   29 1   
     6    3    4 ar  
     7    3   30 1   
     8    4    5 1   
     9    4   26 ar  
    10    5    6 1   
    11    5   31 1   
    12    5   32 1   
    13    6    7 1   
    14    6   33 1   
    15    6   34 1   
    16    7    8 1   
    17    7   35 1   
    18    7   49 1   
    19    8    9 2   
    20    8   10 1   
    21   10   11 2   
    22   10   36 1   
    23   11   12 1   
    24   11   37 1   
    25   12   13 ar  
    26   12   25 ar  
    27   13   14 ar  
    28   13   38 1   
    29   14   15 1   
    30   14   19 ar  
    31   15   16 1   
    32   16   17 2   
    33   16   18 1   
    34   18   39 1   
    35   18   40 1   
    36   18   41 1   
    37   19   20 1   
    38   19   24 ar  
    39   20   21 1   
    40   21   22 2   
    41   21   23 1   
    42   23   42 1   
    43   23   43 1   
    44   23   44 1   
    45   24   25 ar  
    46   24   45 1   
    47   25   46 1   
    48   26   27 ar  
    49   26   47 1   
    50   27   48 1   
@<TRIPOS>SUBSTRUCTURE
     1 Y12         1 TEMP              0 ****  ****    0 ROOT
