@<TRIPOS>MOLECULE
Y12
   49    50     1     0     0
SMALL
bcc


@<TRIPOS>ATOM
      1 C2          2.0400    2.2580    0.5120 ca        1 Y12     -0.101000
      2 C3          3.1980    1.6220    0.9620 ca        1 Y12     -0.117500
      3 C4          3.1650    0.8480    2.1200 ca        1 Y12     -0.116500
      4 C5          1.9700    0.7080    2.8370 ca        1 Y12     -0.127300
      5 C7          1.9310   -0.1360    4.0620 c3        1 Y12     -0.047100
      6 C8          2.4910    0.6670    5.2370 c3        1 Y12      0.104800
      7 N9          2.5000   -0.1060    6.5120 n4        1 Y12     -0.684800
      8 C10         3.0670    0.7320    7.6650 c         1 Y12      0.579300
      9 O27         4.1890    0.3720    7.9960 o         1 Y12     -0.449100
     10 C11         2.1890    1.7730    8.1350 ce        1 Y12     -0.350200
     11 C12         2.5140    2.7870    8.9750 cf        1 Y12      0.135800
     12 C13         3.7410    3.1040    9.6580 ca        1 Y12     -0.165800
     13 C18         4.0430    4.4720    9.8320 ca        1 Y12     -0.077000
     14 C17         5.2130    4.8490   10.4840 ca        1 Y12      0.095100
     15 O23         5.5350    6.1710   10.7450 os        1 Y12     -0.352200
     16 C24         5.4570    7.1140    9.7330 c         1 Y12      0.650100
     17 O26         5.0110    6.7660    8.6420 o         1 Y12     -0.528000
     18 C25         5.9430    8.4430   10.1870 c3        1 Y12     -0.150100
     19 C16         6.0920    3.8630   11.0010 ca        1 Y12      0.180100
     20 O19         7.2720    4.3220   11.5450 os        1 Y12     -0.360200
     21 C20         7.8130    3.7360   12.6840 c         1 Y12      0.652100
     22 O22         7.2260    2.7870   13.1900 o         1 Y12     -0.507000
     23 C21         9.0680    4.4210   13.0920 c3        1 Y12     -0.150100
     24 C15         5.7650    2.5090   10.8670 ca        1 Y12     -0.152000
     25 C14         4.6040    2.1380   10.1960 ca        1 Y12     -0.053000
     26 C6          0.8100    1.3450    2.3820 ca        1 Y12     -0.116500
     27 C1          0.8470    2.1180    1.2220 ca        1 Y12     -0.117500
     28 H2          2.0670    2.8670   -0.4050 ha        1 Y12      0.152000
     29 H3          4.1380    1.7260    0.3990 ha        1 Y12      0.149500
     30 H4          4.0770    0.3380    2.4640 ha        1 Y12      0.131500
     31 H71         0.8760   -0.4560    4.2770 hc        1 Y12      0.068200
     32 H72         2.5450   -1.0640    3.9000 hc        1 Y12      0.068200
     33 H81         1.8720    1.5960    5.3980 hx        1 Y12      0.110700
     34 H82         3.5530    0.9770    5.0140 hx        1 Y12      0.110700
     35 HN9         1.5470   -0.4020    6.7400 hn        1 Y12      0.451800
     36 H11         1.1540    1.7540    7.7460 ha        1 Y12      0.156000
     37 H12         1.7040    3.5350    9.1490 ha        1 Y12      0.159000
     38 H18         3.3730    5.2490    9.4300 ha        1 Y12      0.167000
     39 H251        5.1820    9.2180    9.9190 hc        1 Y12      0.089367
     40 H252        6.9020    8.6720    9.6580 hc        1 Y12      0.089367
     41 H253        6.1180    8.4540   11.2900 hc        1 Y12      0.089367
     42 H211        8.9040    4.9000   14.0900 hc        1 Y12      0.090033
     43 H212        9.8810    3.6580   13.1810 hc        1 Y12      0.090033
     44 H213        9.3650    5.2020   12.3500 hc        1 Y12      0.090033
     45 H15         6.4230    1.7390   11.3040 ha        1 Y12      0.181000
     46 H14         4.3620    1.0660   10.1120 ha        1 Y12      0.150000
     47 H6         -0.1370    1.2280    2.9310 ha        1 Y12      0.131500
     48 H1         -0.0690    2.6130    0.8650 ha        1 Y12      0.149500
     49 H92         3.0830   -0.9440    6.3940 hn        1 Y12      0.451800
@<TRIPOS>BOND
     1    1    2 ar  
     2    1   27 ar  
     3    1   28 1   
     4    2    3 ar  
     5    2   29 1   
     6    3    4 ar  
     7    3   30 1   
     8    4    5 1   
     9    4   26 ar  
    10    5    6 1   
    11    5   31 1   
    12    5   32 1   
    13    6    7 1   
    14    6   33 1   
    15    6   34 1   
    16    7    8 1   
    17    7   35 1   
    18    7   49 1   
    19    8    9 2   
    20    8   10 1   
    21   10   11 2   
    22   10   36 1   
    23   11   12 1   
    24   11   37 1   
    25   12   13 ar  
    26   12   25 ar  
    27   13   14 ar  
    28   13   38 1   
    29   14   15 1   
    30   14   19 ar  
    31   15   16 1   
    32   16   17 2   
    33   16   18 1   
    34   18   39 1   
    35   18   40 1   
    36   18   41 1   
    37   19   20 1   
    38   19   24 ar  
    39   20   21 1   
    40   21   22 2   
    41   21   23 1   
    42   23   42 1   
    43   23   43 1   
    44   23   44 1   
    45   24   25 ar  
    46   24   45 1   
    47   25   46 1   
    48   26   27 ar  
    49   26   47 1   
    50   27   48 1   
@<TRIPOS>SUBSTRUCTURE
     1 Y12         1 TEMP              0 ****  ****    0 ROOT
