@<TRIPOS>MOLECULE
Y13
   39    40     1     0     0
SMALL
bcc


@<TRIPOS>ATOM
      1 C2          7.2740   -0.0310    0.3320 ca        1 Y13      0.123100
      2 O16         8.6160   -0.3180    0.4380 oh        1 Y13     -0.498100
      3 C1          6.9190    0.9780   -0.5770 ca        1 Y13     -0.183500
      4 C6          5.5770    1.3100   -0.7270 ca        1 Y13     -0.089500
      5 C5          4.5870    0.6520    0.0150 ca        1 Y13     -0.117300
      6 C7          3.1550    1.0200   -0.1410 c3        1 Y13     -0.059100
      7 C8          2.3980   -0.0850   -0.8910 c3        1 Y13      0.088000
      8 N9          0.9980    0.1710   -1.0790 n         1 Y13     -0.562900
      9 C10         0.0290   -0.3880   -0.2610 c         1 Y13      0.656300
     10 C11        -1.3750    0.0490   -0.4790 ce        1 Y13     -0.242200
     11 C12        -2.3650   -0.4640    0.2670 cf        1 Y13     -0.022200
     12 C13        -3.7700   -0.1140    0.1450 ca        1 Y13     -0.075800
     13 C14        -4.1910    1.0600   -0.4960 ca        1 Y13     -0.108000
     14 C15        -5.5440    1.3730   -0.5960 ca        1 Y13     -0.176000
     15 C16        -6.4950    0.5060   -0.0520 ca        1 Y13      0.054100
     16 O19        -7.8540    0.7330   -0.1050 oh        1 Y13     -0.513100
     17 C17        -6.0850   -0.6780    0.6000 ca        1 Y13      0.108100
     18 O23        -6.9730   -1.5680    1.1570 oh        1 Y13     -0.492100
     19 C18        -4.7240   -0.9820    0.7000 ca        1 Y13     -0.111000
     20 O27         0.3290   -1.2520    0.5910 o         1 Y13     -0.614100
     21 C4          4.9580   -0.3510    0.9180 ca        1 Y13     -0.089500
     22 C3          6.2960   -0.6990    1.0820 ca        1 Y13     -0.183500
     23 H16         8.7190   -1.0250    1.0910 ho        1 Y13      0.419000
     24 H1          7.7010    1.4900   -1.1550 ha        1 Y13      0.142500
     25 H6          5.2920    2.1020   -1.4370 ha        1 Y13      0.137000
     26 H71         2.6960    1.1690    0.8740 hc        1 Y13      0.050700
     27 H72         3.0630    1.9910   -0.6960 hc        1 Y13      0.050700
     28 H81         2.8640   -0.2110   -1.9110 h1        1 Y13      0.066700
     29 H82         2.5170   -1.0530   -0.3250 h1        1 Y13      0.066700
     30 HN9         0.7550    0.9570   -1.6320 hn        1 Y13      0.302500
     31 H11        -1.5600    0.7900   -1.2720 ha        1 Y13      0.131000
     32 H12        -2.1260   -1.2240    1.0380 ha        1 Y13      0.157000
     33 H14        -3.4480    1.7510   -0.9210 ha        1 Y13      0.137000
     34 H15        -5.8650    2.2960   -1.0980 ha        1 Y13      0.138000
     35 H19        -7.9970    1.5690   -0.5710 ho        1 Y13      0.432000
     36 H23        -7.8690   -1.2280    1.0120 ho        1 Y13      0.438000
     37 H18        -4.4170   -1.9060    1.2120 ha        1 Y13      0.160000
     38 H4          4.1830   -0.8690    1.5040 ha        1 Y13      0.137000
     39 H3          6.5820   -1.4870    1.7920 ha        1 Y13      0.142500
@<TRIPOS>BOND
     1    1    2 1   
     2    1    3 ar  
     3    1   22 ar  
     4    2   23 1   
     5    3    4 ar  
     6    3   24 1   
     7    4    5 ar  
     8    4   25 1   
     9    5    6 1   
    10    5   21 ar  
    11    6    7 1   
    12    6   26 1   
    13    6   27 1   
    14    7    8 1   
    15    7   28 1   
    16    7   29 1   
    17    8    9 1   
    18    8   30 1   
    19    9   10 1   
    20    9   20 2   
    21   10   11 2   
    22   10   31 1   
    23   11   12 1   
    24   11   32 1   
    25   12   13 ar  
    26   12   19 ar  
    27   13   14 ar  
    28   13   33 1   
    29   14   15 ar  
    30   14   34 1   
    31   15   16 1   
    32   15   17 ar  
    33   16   35 1   
    34   17   18 1   
    35   17   19 ar  
    36   18   36 1   
    37   19   37 1   
    38   21   22 ar  
    39   21   38 1   
    40   22   39 1   
@<TRIPOS>SUBSTRUCTURE
     1 Y13         1 TEMP              0 ****  ****    0 ROOT
