@<TRIPOS>MOLECULE
Y13
   40    41     1     0     0
SMALL
bcc


@<TRIPOS>ATOM
      1 C2          0.2070    0.1460   -0.1970 ca        1 Y13      0.159100
      2 O16        -0.2720    0.2620   -1.4740 oh        1 Y13     -0.479100
      3 C1          1.6090    0.1290   -0.0560 ca        1 Y13     -0.179500
      4 C6          2.1570    0.0150    1.2140 ca        1 Y13     -0.075000
      5 C5          1.3340   -0.0780    2.3450 ca        1 Y13     -0.169300
      6 C7          1.9400   -0.2180    3.6950 c3        1 Y13     -0.038100
      7 C8          2.3550    1.1640    4.1990 c3        1 Y13      0.101800
      8 N9          3.0070    1.1120    5.5400 ny        1 Y13     -0.675800
      9 C10         3.4300    2.4820    6.0640 c         1 Y13      0.562300
     10 C11         4.1100    2.4470    7.3380 ce        1 Y13     -0.369200
     11 C12         4.5340    3.6110    7.9010 cf        1 Y13      0.130800
     12 C13         5.2210    3.7350    9.1580 ca        1 Y13     -0.152800
     13 C14         5.5380    2.6290    9.9640 ca        1 Y13     -0.061000
     14 C15         6.2040    2.7960   11.1730 ca        1 Y13     -0.192000
     15 C16         6.5640    4.0810   11.5960 ca        1 Y13      0.119100
     16 O19         7.2200    4.3440   12.7680 oh        1 Y13     -0.490100
     17 C17         6.2520    5.2080   10.7940 ca        1 Y13      0.107100
     18 O23         6.5750    6.4920   11.1480 oh        1 Y13     -0.477100
     19 C18         5.5840    5.0310    9.5820 ca        1 Y13     -0.079000
     20 O27         3.1460    3.4370    5.3500 o         1 Y13     -0.448100
     21 C4         -0.0560   -0.0640    2.1920 ca        1 Y13     -0.075000
     22 C3         -0.6270    0.0480    0.9280 ca        1 Y13     -0.179500
     23 H16        -1.2410    0.2420   -1.4430 ho        1 Y13      0.433000
     24 H1          2.2440    0.2000   -0.9510 ha        1 Y13      0.159000
     25 H6          3.2520   -0.0100    1.3290 ha        1 Y13      0.133000
     26 H71         1.2020   -0.6830    4.4030 hc        1 Y13      0.062700
     27 H72         2.8350   -0.8960    3.6390 hc        1 Y13      0.062700
     28 H81         3.0820    1.6390    3.4780 hx        1 Y13      0.116700
     29 H82         1.4550    1.8390    4.2770 hx        1 Y13      0.116700
     30 HN9         3.8380    0.5150    5.4910 hn        1 Y13      0.450800
     31 H11         4.2700    1.4750    7.8270 ha        1 Y13      0.158000
     32 H12         4.3450    4.5650    7.3610 ha        1 Y13      0.161000
     33 H14         5.2630    1.6110    9.6480 ha        1 Y13      0.135000
     34 H15         6.4480    1.9230   11.7990 ha        1 Y13      0.157000
     35 H19         7.3820    3.5070   13.2310 ho        1 Y13      0.450000
     36 H23         7.0330    6.4700   12.0050 ho        1 Y13      0.452000
     37 H18         5.3480    5.9160    8.9710 ha        1 Y13      0.169000
     38 H4         -0.7110   -0.1500    3.0730 ha        1 Y13      0.133000
     39 H3         -1.7200    0.0550    0.8100 ha        1 Y13      0.159000
     40 H92         2.3590    0.6960    6.2160 hn        1 Y13      0.450800
@<TRIPOS>BOND
     1    1    2 1   
     2    1    3 ar  
     3    1   22 ar  
     4    2   23 1   
     5    3    4 ar  
     6    3   24 1   
     7    4    5 ar  
     8    4   25 1   
     9    5    6 1   
    10    5   21 ar  
    11    6    7 1   
    12    6   26 1   
    13    6   27 1   
    14    7    8 1   
    15    7   28 1   
    16    7   29 1   
    17    8    9 1   
    18    8   30 1   
    19    8   40 1   
    20    9   10 1   
    21    9   20 2   
    22   10   11 2   
    23   10   31 1   
    24   11   12 1   
    25   11   32 1   
    26   12   13 ar  
    27   12   19 ar  
    28   13   14 ar  
    29   13   33 1   
    30   14   15 ar  
    31   14   34 1   
    32   15   16 1   
    33   15   17 ar  
    34   16   35 1   
    35   17   18 1   
    36   17   19 ar  
    37   18   36 1   
    38   19   37 1   
    39   21   22 ar  
    40   21   38 1   
    41   22   39 1   
@<TRIPOS>SUBSTRUCTURE
     1 Y13         1 TEMP              0 ****  ****    0 ROOT
