@<TRIPOS>MOLECULE
Y13
   40    41     1     0     0
SMALL
bcc


@<TRIPOS>ATOM
      1 C2         -0.1140    0.1760   -0.0220 ca        1 Y13      0.159100
      2 O16        -0.8880    0.3200   -1.1420 oh        1 Y13     -0.479100
      3 C1          1.2580   -0.1130   -0.0720 ca        1 Y13     -0.179500
      4 C6          1.9720   -0.2390    1.1160 ca        1 Y13     -0.075000
      5 C5          1.3320   -0.0780    2.3490 ca        1 Y13     -0.169300
      6 C7          2.0930   -0.2340    3.6170 c3        1 Y13     -0.038100
      7 C8          2.4790    1.1510    4.1360 c3        1 Y13      0.101800
      8 N9          3.2180    1.0910    5.4310 n4        1 Y13     -0.675800
      9 C10         3.6210    2.4630    5.9650 c         1 Y13      0.562300
     10 C11         4.2260    2.4360    7.2770 ce        1 Y13     -0.369200
     11 C12         4.6240    3.6030    7.8540 cf        1 Y13      0.130800
     12 C13         5.2380    3.7350    9.1460 ca        1 Y13     -0.152800
     13 C14         5.5000    2.6350    9.9800 ca        1 Y13     -0.061000
     14 C15         6.0960    2.8100   11.2240 ca        1 Y13     -0.192000
     15 C16         6.4410    4.0970   11.6540 ca        1 Y13      0.119100
     16 O19         7.0300    4.3680   12.8590 oh        1 Y13     -0.490100
     17 C17         6.1830    5.2180   10.8240 ca        1 Y13      0.107100
     18 O23         6.4950    6.5030   11.1840 oh        1 Y13     -0.477100
     19 C18         5.5850    5.0330    9.5780 ca        1 Y13     -0.079000
     20 O27         3.3890    3.4120    5.2260 o         1 Y13     -0.448100
     21 C4         -0.0410    0.2060    2.3870 ca        1 Y13     -0.075000
     22 C3         -0.7710    0.3360    1.2140 ca        1 Y13     -0.179500
     23 H16        -0.3330    0.1690   -1.9230 ho        1 Y13      0.433000
     24 H1          1.7630   -0.2430   -1.0400 ha        1 Y13      0.159000
     25 H6          3.0460   -0.4750    1.0770 ha        1 Y13      0.133000
     26 H71         1.4600   -0.7700    4.3750 hc        1 Y13      0.062700
     27 H72         3.0140   -0.8520    3.4400 hc        1 Y13      0.062700
     28 H81         1.5560    1.7800    4.2930 hx        1 Y13      0.116700
     29 H82         3.1350    1.6820    3.3870 hx        1 Y13      0.116700
     30 HN9         2.6330    0.6290    6.1350 hn        1 Y13      0.450800
     31 H11         4.3530    1.4680    7.7830 ha        1 Y13      0.158000
     32 H12         4.4710    4.5530    7.2950 ha        1 Y13      0.161000
     33 H14         5.2360    1.6170    9.6590 ha        1 Y13      0.135000
     34 H15         6.2970    1.9430   11.8710 ha        1 Y13      0.157000
     35 H19         7.1570    3.5350   13.3400 ho        1 Y13      0.450000
     36 H23         6.9020    6.4870   12.0670 ho        1 Y13      0.452000
     37 H18         5.3910    5.9140    8.9450 ha        1 Y13      0.169000
     38 H4         -0.5510    0.3190    3.3560 ha        1 Y13      0.133000
     39 H3         -1.8490    0.5560    1.2300 ha        1 Y13      0.159000
     40 H92         4.0680    0.5320    5.3110 hn        1 Y13      0.450800
@<TRIPOS>BOND
     1    1    2 1   
     2    1    3 ar  
     3    1   22 ar  
     4    2   23 1   
     5    3    4 ar  
     6    3   24 1   
     7    4    5 ar  
     8    4   25 1   
     9    5    6 1   
    10    5   21 ar  
    11    6    7 1   
    12    6   26 1   
    13    6   27 1   
    14    7    8 1   
    15    7   28 1   
    16    7   29 1   
    17    8    9 1   
    18    8   30 1   
    19    8   40 1   
    20    9   10 1   
    21    9   20 2   
    22   10   11 2   
    23   10   31 1   
    24   11   12 1   
    25   11   32 1   
    26   12   13 ar  
    27   12   19 ar  
    28   13   14 ar  
    29   13   33 1   
    30   14   15 ar  
    31   14   34 1   
    32   15   16 1   
    33   15   17 ar  
    34   16   35 1   
    35   17   18 1   
    36   17   19 ar  
    37   18   36 1   
    38   19   37 1   
    39   21   22 ar  
    40   21   38 1   
    41   22   39 1   
@<TRIPOS>SUBSTRUCTURE
     1 Y13         1 TEMP              0 ****  ****    0 ROOT
