@<TRIPOS>MOLECULE
Y13
   40    41     1     0     0
SMALL
bcc


@<TRIPOS>ATOM
      1 C2         -0.0820    0.1680   -0.0430 ca        1 Y13      0.159100
      2 O16        -0.8490    0.3070   -1.1690 oh        1 Y13     -0.479100
      3 C1          1.2930   -0.1060   -0.0830 ca        1 Y13     -0.179500
      4 C6          1.9990   -0.2290    1.1110 ca        1 Y13     -0.075000
      5 C5          1.3470   -0.0800    2.3390 ca        1 Y13     -0.169300
      6 C7          2.0990   -0.2320    3.6120 c3        1 Y13     -0.038100
      7 C8          2.4560    1.1550    4.1470 c3        1 Y13      0.101800
      8 N9          3.1850    1.0980    5.4470 n4        1 Y13     -0.675800
      9 C10         3.5540    2.4720    5.9990 c         1 Y13      0.562300
     10 C11         4.1970    2.4400    7.2930 ce        1 Y13     -0.369200
     11 C12         4.5690    3.6090    7.8830 cf        1 Y13      0.130800
     12 C13         5.2150    3.7360    9.1600 ca        1 Y13     -0.152800
     13 C14         5.5420    2.6290    9.9620 ca        1 Y13     -0.061000
     14 C15         6.1670    2.8000   11.1920 ca        1 Y13     -0.192000
     15 C16         6.4760    4.0890   11.6410 ca        1 Y13      0.119100
     16 O19         7.0900    4.3560   12.8340 oh        1 Y13     -0.490100
     17 C17         6.1530    5.2170   10.8440 ca        1 Y13      0.107100
     18 O23         6.4280    6.5050   11.2230 oh        1 Y13     -0.477100
     19 C18         5.5260    5.0360    9.6110 ca        1 Y13     -0.079000
     20 O27         3.2640    3.4280    5.2880 o         1 Y13     -0.448100
     21 C4         -0.0290    0.1890    2.3660 ca        1 Y13     -0.075000
     22 C3         -0.7510    0.3160    1.1880 ca        1 Y13     -0.179500
     23 H16        -0.2850    0.1650   -1.9460 ho        1 Y13      0.433000
     24 H1          1.8080   -0.2280   -1.0470 ha        1 Y13      0.159000
     25 H6          3.0760   -0.4530    1.0790 ha        1 Y13      0.133000
     26 H71         1.4680   -0.7850    4.3600 hc        1 Y13      0.062700
     27 H72         3.0320   -0.8320    3.4400 hc        1 Y13      0.062700
     28 H81         3.1070    1.7040    3.4070 hx        1 Y13      0.116700
     29 H82         1.5190    1.7660    4.3010 hx        1 Y13      0.116700
     30 HN9         4.0480    0.5580    5.3280 hn        1 Y13      0.450800
     31 H11         4.3730    1.4670    7.7730 ha        1 Y13      0.158000
     32 H12         4.3660    4.5640    7.3500 ha        1 Y13      0.161000
     33 H14         5.3060    1.6080    9.6250 ha        1 Y13      0.135000
     34 H15         6.4190    1.9270   11.8130 ha        1 Y13      0.157000
     35 H19         7.2620    3.5180   13.2930 ho        1 Y13      0.450000
     36 H23         6.8610    6.4850   12.0940 ho        1 Y13      0.452000
     37 H18         5.2820    5.9230    9.0040 ha        1 Y13      0.169000
     38 H4         -0.5490    0.2930    3.3310 ha        1 Y13      0.133000
     39 H3         -1.8310    0.5250    1.1960 ha        1 Y13      0.159000
     40 H92         2.6050    0.6160    6.1410 hn        1 Y13      0.450800
@<TRIPOS>BOND
     1    1    2 1   
     2    1    3 ar  
     3    1   22 ar  
     4    2   23 1   
     5    3    4 ar  
     6    3   24 1   
     7    4    5 ar  
     8    4   25 1   
     9    5    6 1   
    10    5   21 ar  
    11    6    7 1   
    12    6   26 1   
    13    6   27 1   
    14    7    8 1   
    15    7   28 1   
    16    7   29 1   
    17    8    9 1   
    18    8   30 1   
    19    8   40 1   
    20    9   10 1   
    21    9   20 2   
    22   10   11 2   
    23   10   31 1   
    24   11   12 1   
    25   11   32 1   
    26   12   13 ar  
    27   12   19 ar  
    28   13   14 ar  
    29   13   33 1   
    30   14   15 ar  
    31   14   34 1   
    32   15   16 1   
    33   15   17 ar  
    34   16   35 1   
    35   17   18 1   
    36   17   19 ar  
    37   18   36 1   
    38   19   37 1   
    39   21   22 ar  
    40   21   38 1   
    41   22   39 1   
@<TRIPOS>SUBSTRUCTURE
     1 Y13         1 TEMP              0 ****  ****    0 ROOT
