@<TRIPOS>MOLECULE
Y14
   73    73     1     0     0
SMALL
bcc


@<TRIPOS>ATOM
      1 C01        -0.2210    2.2950    0.5370 c         1 Y14      0.654100
      2 C02         0.6730   -1.6650    1.0470 c2        1 Y14     -0.280000
      3 C03        -0.6480   -1.8580    1.0230 c2        1 Y14      0.006100
      4 C04        -0.2450    2.4330    4.1740 c2        1 Y14     -0.153000
      5 C05        -0.1120    2.7880    2.8900 c2        1 Y14     -0.101400
      6 O06         0.0360    3.4310    0.0940 o         1 Y14     -0.592100
      7 O07        -1.4850   -0.7470    1.0330 oh        1 Y14     -0.636100
      8 N08        -0.3010    1.8700    1.8180 n         1 Y14     -0.389100
      9 N09        -0.4660    1.2560   -0.5810 n4        1 Y14     -0.670800
     10 C10         0.0380    1.7540   -1.9070 c3        1 Y14      0.076500
     11 C11        -0.1630    0.6980   -3.0060 c3        1 Y14     -0.115400
     12 C12         0.4190    1.1270   -4.3460 c3        1 Y14     -0.069700
     13 C13         1.9330    1.2770   -4.3010 c3        1 Y14     -0.080400
     14 C14         2.4840    1.6560   -5.6620 c3        1 Y14     -0.079400
     15 C15         2.0790    0.6510   -6.7200 c3        1 Y14     -0.086400
     16 C16         0.5770    0.4680   -6.7590 c3        1 Y14     -0.079400
     17 C17         0.0290    0.0900   -5.3990 c3        1 Y14     -0.080400
     18 C18        -0.7170    3.0410   -2.2860 c         1 Y14      0.544100
     19 O19        -1.9250    3.1690   -2.1470 o         1 Y14     -0.393100
     20 C20         0.3420    6.0440   -4.5030 c3        1 Y14      0.098800
     21 C21        -1.4520    6.1720   -2.8510 c3        1 Y14     -0.112400
     22 C22        -0.5210    7.3880   -2.7160 c3        1 Y14      0.189800
     23 N23         0.1040    4.1640   -2.8170 n4        1 Y14     -0.664800
     24 N24         0.5710    7.2360   -3.6820 n3        1 Y14     -0.484400
     25 C25         1.5570    8.0800   -3.7460 c1        1 Y14     -0.046500
     26 C26         3.9360    6.1490   -3.1120 ca        1 Y14     -0.146333
     27 C27         3.7290    4.7730   -2.9980 ca        1 Y14     -0.146333
     28 C28         3.0030    4.2650   -1.9200 ca        1 Y14     -0.146333
     29 C29         2.4930    5.1320   -0.9480 ca        1 Y14     -0.146333
     30 C30         2.7000    6.5060   -1.0620 ca        1 Y14     -0.146333
     31 C31         3.4180    7.0180   -2.1480 ca        1 Y14     -0.146333
     32 C32        -1.5290    4.4140   -4.6220 c1        1 Y14      0.123700
     33 N33        -2.2460    3.8860   -5.3700 n1        1 Y14     -0.199800
     34 C34        -0.6660    5.1430   -3.7080 c3        1 Y14      0.229300
     35 H021        1.1440   -0.6810    1.1550 ha        1 Y14      0.138500
     36 H022        1.3670   -2.5180    1.0040 ha        1 Y14      0.138500
     37 H031       -1.1500   -2.8390    0.9710 h4        1 Y14      0.181000
     38 H032       -2.3570   -1.0380    1.3430 ho        1 Y14      0.469000
     39 H041       -0.5150    1.4280    4.5290 ha        1 Y14      0.166000
     40 H042       -0.0770    3.1820    4.9670 ha        1 Y14      0.166000
     41 H051        0.1600    3.8100    2.5600 h4        1 Y14      0.187000
     42 H052       -0.5540    0.9210    2.0400 hn        1 Y14      0.374500
     43 HN09       -1.4790    1.0690   -0.6330 hn        1 Y14      0.487800
     44 H10         1.1460    1.9640   -1.7710 hx        1 Y14      0.142700
     45 H111        0.3390   -0.2590   -2.6910 hc        1 Y14      0.096700
     46 H112       -1.2610    0.4910   -3.1350 hc        1 Y14      0.096700
     47 H12        -0.0410    2.1100   -4.6490 hc        1 Y14      0.029700
     48 H131        2.3950    0.3080   -3.9730 hc        1 Y14      0.047200
     49 H132        2.2280    2.0620   -3.5540 hc        1 Y14      0.047200
     50 H141        3.6030    1.7120   -5.6040 hc        1 Y14      0.057450
     51 H142        2.1090    2.6740   -5.9480 hc        1 Y14      0.057450
     52 H151        2.5750   -0.3340   -6.5120 hc        1 Y14      0.069700
     53 H152        2.4410    1.0000   -7.7240 hc        1 Y14      0.069700
     54 H161        0.0880    1.4120   -7.1150 hc        1 Y14      0.057450
     55 H162        0.3170   -0.3400   -7.4940 hc        1 Y14      0.057450
     56 H171       -1.0890    0.0130   -5.4530 hc        1 Y14      0.047200
     57 H172        0.4290   -0.9130   -5.0970 hc        1 Y14      0.047200
     58 H201        1.3130    5.5290   -4.7330 h1        1 Y14      0.103700
     59 H202       -0.1470    6.3280   -5.4790 h1        1 Y14      0.103700
     60 H211       -1.7560    5.7720   -1.8530 hc        1 Y14      0.108200
     61 H212       -2.3890    6.4540   -3.4010 hc        1 Y14      0.108200
     62 H221       -1.0810    8.3420   -2.9270 h1        1 Y14      0.102200
     63 H222       -0.0870    7.4600   -1.6810 h1        1 Y14      0.102200
     64 HN23        0.9070    3.7860   -3.3480 hn        1 Y14      0.495300
     65 H251        2.3280    7.9260   -4.5270 ha        1 Y14      0.024500
     66 H252        4.5350    6.5490   -3.9470 ha        1 Y14      0.151333
     67 H27         4.1730    4.0870   -3.7380 ha        1 Y14      0.151333
     68 H28         2.9230    3.1770   -1.7820 ha        1 Y14      0.151333
     69 H29         1.9790    4.7290   -0.0610 ha        1 Y14      0.151333
     70 H30         2.3210    7.1920   -0.2870 ha        1 Y14      0.151333
     71 H31         3.5870    8.1070   -2.2320 ha        1 Y14      0.151333
     72 H092       -0.0020    0.3570   -0.3590 hn        1 Y14      0.487800
     73 H232        0.4920    4.6970   -2.0050 hn        1 Y14      0.495300
@<TRIPOS>BOND
     1    1    6 2   
     2    1    8 1   
     3    1    9 1   
     4    2    3 2   
     5    2   35 1   
     6    2   36 1   
     7    3    7 1   
     8    3   37 1   
     9    4    5 2   
    10    4   39 1   
    11    4   40 1   
    12    5    8 1   
    13    5   41 1   
    14    7   38 1   
    15    8   42 1   
    16    9   10 1   
    17    9   43 1   
    18    9   72 1   
    19   10   11 1   
    20   10   18 1   
    21   10   44 1   
    22   11   12 1   
    23   11   45 1   
    24   11   46 1   
    25   12   13 1   
    26   12   17 1   
    27   12   47 1   
    28   13   14 1   
    29   13   48 1   
    30   13   49 1   
    31   14   15 1   
    32   14   50 1   
    33   14   51 1   
    34   15   16 1   
    35   15   52 1   
    36   15   53 1   
    37   16   17 1   
    38   16   54 1   
    39   16   55 1   
    40   17   56 1   
    41   17   57 1   
    42   18   19 2   
    43   18   23 1   
    44   20   24 1   
    45   20   34 1   
    46   20   58 1   
    47   20   59 1   
    48   21   22 1   
    49   21   34 1   
    50   21   60 1   
    51   21   61 1   
    52   22   24 1   
    53   22   62 1   
    54   22   63 1   
    55   23   34 1   
    56   23   64 1   
    57   23   73 1   
    58   24   25 3   
    59   25   65 1   
    60   26   27 ar  
    61   26   31 ar  
    62   26   66 1   
    63   27   28 ar  
    64   27   67 1   
    65   28   29 ar  
    66   28   68 1   
    67   29   30 ar  
    68   29   69 1   
    69   30   31 ar  
    70   30   70 1   
    71   31   71 1   
    72   32   33 3   
    73   32   34 1   
@<TRIPOS>SUBSTRUCTURE
     1 Y14         1 TEMP              0 ****  ****    0 ROOT
