@<TRIPOS>MOLECULE
Y14
   73    76     1     0     0
SMALL
bcc


@<TRIPOS>ATOM
      1 C01        -0.2160    1.1100   -0.0480 c         1 Y14      0.644100
      2 C02        -0.9290   -0.6940    1.5040 c3        1 Y14      0.029500
      3 C03        -1.6670   -0.7750    2.8590 c3        1 Y14      0.114400
      4 C04        -0.7540    1.2520    3.6070 c3        1 Y14      0.114400
      5 C05         0.0660    1.4470    2.3240 c3        1 Y14      0.029500
      6 O06         0.2140    2.2280   -0.3940 o         1 Y14     -0.594100
      7 O07        -0.9310   -0.1300    3.8800 os        1 Y14     -0.362600
      8 N08        -0.4520    0.6480    1.2000 n         1 Y14     -0.368800
      9 N09        -0.5550    0.2180   -1.2700 ny        1 Y14     -0.674800
     10 C10         0.1010    0.7510   -2.5160 c3        1 Y14      0.073500
     11 C11        -0.0890   -0.2010   -3.7060 c3        1 Y14     -0.116400
     12 C12         0.6480    0.2860   -4.9480 c3        1 Y14     -0.071700
     13 C13         2.1570    0.3110   -4.7540 c3        1 Y14     -0.077900
     14 C14         2.8630    0.7520   -6.0220 c3        1 Y14     -0.080400
     15 C15         2.4900   -0.1300   -7.1950 c3        1 Y14     -0.086400
     16 C16         0.9900   -0.1900   -7.3850 c3        1 Y14     -0.080400
     17 C17         0.2870   -0.6300   -6.1180 c3        1 Y14     -0.077900
     18 C18        -0.5100    2.1240   -2.8600 c         1 Y14      0.540100
     19 O19        -1.7150    2.3290   -2.8700 o         1 Y14     -0.386100
     20 C20         1.1220    5.3400   -4.3110 c3        1 Y14      0.144800
     21 C21        -0.9750    5.3130   -3.0840 c3        1 Y14     -0.105400
     22 C22         0.0130    6.3200   -2.4680 c3        1 Y14      0.131800
     23 N23         0.4550    3.2150   -3.1540 ny        1 Y14     -0.655800
     24 N24         1.3250    6.1370   -3.1040 n3        1 Y14     -0.742600
     25 C25         2.0650    7.3720   -3.3580 c3        1 Y14      0.214100
     26 C26         2.2120    8.2360   -2.1440 ca        1 Y14     -0.125300
     27 C27         3.1680    7.9240   -1.1720 ca        1 Y14     -0.116500
     28 C28         3.3420    8.7610   -0.0710 ca        1 Y14     -0.122500
     29 C29         2.5640    9.9120    0.0640 ca        1 Y14     -0.102000
     30 C30         1.6090   10.2250   -0.9050 ca        1 Y14     -0.122500
     31 C31         1.4310    9.3890   -2.0070 ca        1 Y14     -0.116500
     32 C32        -0.7600    3.9230   -5.1630 c1        1 Y14      0.124700
     33 N33        -1.3160    3.6030   -6.1320 n1        1 Y14     -0.197800
     34 C34        -0.0890    4.3950   -3.9680 c3        1 Y14      0.226300
     35 H021       -0.0390   -1.3880    1.5380 h1        1 Y14      0.085200
     36 H022       -1.6530   -1.0470    0.7180 h1        1 Y14      0.085200
     37 H031       -2.6940   -0.3310    2.7700 h1        1 Y14      0.097700
     38 H032       -1.7290   -1.8510    3.1810 h1        1 Y14      0.097700
     39 H041       -0.1680    1.6450    4.4840 h1        1 Y14      0.097700
     40 H042       -1.7460    1.7710    3.5370 h1        1 Y14      0.097700
     41 H051        0.0590    2.5380    2.0390 h1        1 Y14      0.085200
     42 H052        1.1310    1.1190    2.5080 h1        1 Y14      0.085200
     43 HN09       -1.5770    0.2020   -1.4000 hn        1 Y14      0.477800
     44 H10         1.2070    0.8440   -2.2770 hx        1 Y14      0.142700
     45 H111        0.3040   -1.2190   -3.4340 hc        1 Y14      0.097700
     46 H112       -1.1840   -0.2980   -3.9460 hc        1 Y14      0.097700
     47 H12         0.2900    1.3230   -5.2040 hc        1 Y14      0.031700
     48 H131        2.4320    1.0080   -3.9180 hc        1 Y14      0.045200
     49 H132        2.5160   -0.7140   -4.4700 hc        1 Y14      0.045200
     50 H141        2.5920    1.8170   -6.2520 hc        1 Y14      0.059700
     51 H142        3.9720    0.7130   -5.8590 hc        1 Y14      0.059700
     52 H151        2.9710    0.2680   -8.1270 hc        1 Y14      0.069700
     53 H152        2.8920   -1.1650   -7.0280 hc        1 Y14      0.069700
     54 H161        0.6060    0.8160   -7.7000 hc        1 Y14      0.059700
     55 H162        0.7450   -0.9130   -8.2080 hc        1 Y14      0.059700
     56 H171        0.5840   -1.6830   -5.8690 hc        1 Y14      0.045200
     57 H172       -0.8230   -0.6140   -6.2790 hc        1 Y14      0.045200
     58 H201        0.8300    5.9410   -5.2210 h1        1 Y14      0.091200
     59 H202        2.0660    4.7840   -4.5530 h1        1 Y14      0.091200
     60 H211       -1.5490    4.7550   -2.3060 hc        1 Y14      0.102200
     61 H212       -1.7170    5.8340   -3.7440 hc        1 Y14      0.102200
     62 H221       -0.3820    7.3690   -2.5850 h1        1 Y14      0.086200
     63 H222        0.1470    6.1300   -1.3680 h1        1 Y14      0.086200
     64 HN23        1.2650    2.8240   -3.6590 hn        1 Y14      0.492800
     65 H251        3.0900    7.0580   -3.7140 h1        1 Y14      0.060700
     66 H252        1.5820    7.9740   -4.1850 h1        1 Y14      0.060700
     67 H27         3.7940    7.0270   -1.2860 ha        1 Y14      0.130500
     68 H28         4.1050    8.5220    0.6860 ha        1 Y14      0.149000
     69 H29         2.7100   10.5780    0.9280 ha        1 Y14      0.153000
     70 H30         1.0030   11.1390   -0.8050 ha        1 Y14      0.149000
     71 H31         0.6890    9.6510   -2.7760 ha        1 Y14      0.130500
     72 H092       -0.2280   -0.7450   -1.1200 hn        1 Y14      0.477800
     73 H232        0.7810    3.6040   -2.2470 hn        1 Y14      0.492800
@<TRIPOS>BOND
     1    1    6 2   
     2    1    8 1   
     3    1    9 1   
     4    2    3 1   
     5    2    8 1   
     6    2   35 1   
     7    2   36 1   
     8    3    7 1   
     9    3   37 1   
    10    3   38 1   
    11    4    5 1   
    12    4    7 1   
    13    4   39 1   
    14    4   40 1   
    15    5    8 1   
    16    5   41 1   
    17    5   42 1   
    18    9   10 1   
    19    9   43 1   
    20    9   72 1   
    21   10   11 1   
    22   10   18 1   
    23   10   44 1   
    24   11   12 1   
    25   11   45 1   
    26   11   46 1   
    27   12   13 1   
    28   12   17 1   
    29   12   47 1   
    30   13   14 1   
    31   13   48 1   
    32   13   49 1   
    33   14   15 1   
    34   14   50 1   
    35   14   51 1   
    36   15   16 1   
    37   15   52 1   
    38   15   53 1   
    39   16   17 1   
    40   16   54 1   
    41   16   55 1   
    42   17   56 1   
    43   17   57 1   
    44   18   19 2   
    45   18   23 1   
    46   20   24 1   
    47   20   34 1   
    48   20   58 1   
    49   20   59 1   
    50   21   22 1   
    51   21   34 1   
    52   21   60 1   
    53   21   61 1   
    54   22   24 1   
    55   22   62 1   
    56   22   63 1   
    57   23   34 1   
    58   23   64 1   
    59   23   73 1   
    60   24   25 1   
    61   25   26 1   
    62   25   65 1   
    63   25   66 1   
    64   26   27 ar  
    65   26   31 ar  
    66   27   28 ar  
    67   27   67 1   
    68   28   29 ar  
    69   28   68 1   
    70   29   30 ar  
    71   29   69 1   
    72   30   31 ar  
    73   30   70 1   
    74   31   71 1   
    75   32   33 3   
    76   32   34 1   
@<TRIPOS>SUBSTRUCTURE
     1 Y14         1 TEMP              0 ****  ****    0 ROOT
