@<TRIPOS>MOLECULE
Y14
   71    74     1     0     0
SMALL
bcc


@<TRIPOS>ATOM
      1 C01         2.2260   -0.3570    1.2270 c         1 Y14      0.745100
      2 C02         3.2310   -2.3610    0.1430 c3        1 Y14      0.030000
      3 C03         2.2400   -3.5340    0.0880 c3        1 Y14      0.094400
      4 C04         1.9770   -3.4650    2.4390 c3        1 Y14      0.094400
      5 C05         2.9520   -2.2850    2.5350 c3        1 Y14      0.030000
      6 O06         1.4950   -0.0230    2.1960 o         1 Y14     -0.659100
      7 O07         2.2490   -4.2770    1.3010 os        1 Y14     -0.410600
      8 N08         3.0690   -1.5070    1.3080 n         1 Y14     -0.416800
      9 N09         2.2590    0.4480    0.0860 n         1 Y14     -0.556900
     10 C10         1.6500    1.7590    0.1170 c3        1 Y14      0.039700
     11 C11         2.4290    2.7940   -0.7080 c3        1 Y14     -0.084400
     12 C12         2.0140    4.2160   -0.3590 c3        1 Y14     -0.062700
     13 C13         2.6330    4.6740    0.9550 c3        1 Y14     -0.073900
     14 C14         2.2440    6.1030    1.2730 c3        1 Y14     -0.076900
     15 C15         2.6310    7.0420    0.1500 c3        1 Y14     -0.077400
     16 C16         2.0380    6.5890   -1.1680 c3        1 Y14     -0.076900
     17 C17         2.4200    5.1580   -1.4850 c3        1 Y14     -0.073900
     18 C18         0.1870    1.6720   -0.4100 c         1 Y14      0.656100
     19 O19        -0.1360    2.1570   -1.5100 o         1 Y14     -0.603100
     20 C20        -2.7560   -0.1990    1.1360 c3        1 Y14      0.153800
     21 C21        -2.4320    0.2730   -1.2510 c3        1 Y14     -0.104400
     22 C22        -2.6890   -1.2180   -1.0120 c3        1 Y14      0.152800
     23 N23        -0.7000    1.0240    0.4220 n         1 Y14     -0.562900
     24 N24        -2.9240   -1.4580    0.4130 n3        1 Y14     -0.719600
     25 C25        -4.1930   -2.1070    0.7150 c3        1 Y14      0.208100
     26 C26        -4.3370   -3.4610    0.0860 ca        1 Y14     -0.089300
     27 C27        -3.4700   -4.5000    0.4450 ca        1 Y14     -0.116000
     28 C28        -3.6300   -5.7680   -0.1110 ca        1 Y14     -0.133000
     29 C29        -4.6550   -6.0060   -1.0270 ca        1 Y14     -0.126000
     30 C30        -5.5190   -4.9730   -1.3890 ca        1 Y14     -0.133000
     31 C31        -5.3600   -3.7020   -0.8370 ca        1 Y14     -0.116000
     32 C32        -2.8400    2.1300    0.3230 c1        1 Y14      0.200700
     33 N33        -3.4210    3.1280    0.4500 n1        1 Y14     -0.361800
     34 C34        -2.1130    0.8610    0.1550 c3        1 Y14      0.191500
     35 H021        4.2770   -2.7800    0.2100 h1        1 Y14      0.072950
     36 H022        3.1510   -1.7850   -0.8160 h1        1 Y14      0.072950
     37 H031        1.2000   -3.1710   -0.1250 h1        1 Y14      0.061950
     38 H032        2.5590   -4.2720   -0.6940 h1        1 Y14      0.061950
     39 H041        2.1160   -4.1550    3.3120 h1        1 Y14      0.061950
     40 H042        0.9160   -3.1030    2.3980 h1        1 Y14      0.061950
     41 H051        2.6360   -1.6170    3.3840 h1        1 Y14      0.072950
     42 H052        3.9860   -2.6800    2.7470 h1        1 Y14      0.072950
     43 HN09        2.9460    0.2940   -0.6140 hn        1 Y14      0.318500
     44 H10         1.6030    2.1190    1.1930 h1        1 Y14      0.093700
     45 H111        3.5300    2.6770   -0.5250 hc        1 Y14      0.060200
     46 H112        2.2350    2.6100   -1.7990 hc        1 Y14      0.060200
     47 H12         0.8910    4.2470   -0.2640 hc        1 Y14      0.066700
     48 H131        2.2980    4.0050    1.7900 hc        1 Y14      0.040200
     49 H132        3.7500    4.5960    0.8870 hc        1 Y14      0.040200
     50 H141        1.1370    6.1600    1.4430 hc        1 Y14      0.042200
     51 H142        2.7480    6.4230    2.2220 hc        1 Y14      0.042200
     52 H151        2.2750    8.0780    0.3860 hc        1 Y14      0.038700
     53 H152        3.7490    7.0820    0.0640 hc        1 Y14      0.038700
     54 H161        0.9200    6.6750   -1.1240 hc        1 Y14      0.042200
     55 H162        2.3960    7.2610   -1.9920 hc        1 Y14      0.042200
     56 H171        3.5280    5.0900   -1.6450 hc        1 Y14      0.040200
     57 H172        1.9180    4.8400   -2.4360 hc        1 Y14      0.040200
     58 H201       -3.7300    0.2140    1.5220 h1        1 Y14      0.060200
     59 H202       -2.0970   -0.4050    2.0220 h1        1 Y14      0.060200
     60 H211       -1.5970    0.4320   -1.9760 hc        1 Y14      0.078700
     61 H212       -3.3440    0.7690   -1.6670 hc        1 Y14      0.078700
     62 H221       -3.5460   -1.5750   -1.6470 h1        1 Y14      0.054700
     63 H222       -1.7790   -1.8170   -1.2960 h1        1 Y14      0.054700
     64 HN23       -0.3620    0.6550    1.2860 hn        1 Y14      0.348500
     65 H251       -4.2360   -2.2340    1.8370 h1        1 Y14      0.041700
     66 H252       -5.0750   -1.4660    0.4150 h1        1 Y14      0.041700
     67 H27        -2.6600   -4.3080    1.1650 ha        1 Y14      0.136500
     68 H28        -2.9470   -6.5810    0.1730 ha        1 Y14      0.132500
     69 H29        -4.7820   -7.0080   -1.4640 ha        1 Y14      0.131000
     70 H30        -6.3270   -5.1580   -2.1110 ha        1 Y14      0.132500
     71 H31        -6.0420   -2.8890   -1.1270 ha        1 Y14      0.136500
@<TRIPOS>BOND
     1    1    6 2   
     2    1    8 1   
     3    1    9 1   
     4    2    3 1   
     5    2    8 1   
     6    2   35 1   
     7    2   36 1   
     8    3    7 1   
     9    3   37 1   
    10    3   38 1   
    11    4    5 1   
    12    4    7 1   
    13    4   39 1   
    14    4   40 1   
    15    5    8 1   
    16    5   41 1   
    17    5   42 1   
    18    9   10 1   
    19    9   43 1   
    20   10   11 1   
    21   10   18 1   
    22   10   44 1   
    23   11   12 1   
    24   11   45 1   
    25   11   46 1   
    26   12   13 1   
    27   12   17 1   
    28   12   47 1   
    29   13   14 1   
    30   13   48 1   
    31   13   49 1   
    32   14   15 1   
    33   14   50 1   
    34   14   51 1   
    35   15   16 1   
    36   15   52 1   
    37   15   53 1   
    38   16   17 1   
    39   16   54 1   
    40   16   55 1   
    41   17   56 1   
    42   17   57 1   
    43   18   19 2   
    44   18   23 1   
    45   20   24 1   
    46   20   34 1   
    47   20   58 1   
    48   20   59 1   
    49   21   22 1   
    50   21   34 1   
    51   21   60 1   
    52   21   61 1   
    53   22   24 1   
    54   22   62 1   
    55   22   63 1   
    56   23   34 1   
    57   23   64 1   
    58   24   25 1   
    59   25   26 1   
    60   25   65 1   
    61   25   66 1   
    62   26   27 ar  
    63   26   31 ar  
    64   27   28 ar  
    65   27   67 1   
    66   28   29 ar  
    67   28   68 1   
    68   29   30 ar  
    69   29   69 1   
    70   30   31 ar  
    71   30   70 1   
    72   31   71 1   
    73   32   33 3   
    74   32   34 1   
@<TRIPOS>SUBSTRUCTURE
     1 Y14         1 TEMP              0 ****  ****    0 ROOT
