@<TRIPOS>MOLECULE
Y14
   73    76     1     0     0
SMALL
bcc


@<TRIPOS>ATOM
      1 C01        -0.2410    1.1030   -0.0850 c         1 Y14      0.644100
      2 C02        -0.9950   -0.7000    1.4500 c3        1 Y14      0.029500
      3 C03        -1.7460   -0.7770    2.7980 c3        1 Y14      0.114400
      4 C04        -0.8120    1.2330    3.5660 c3        1 Y14      0.114400
      5 C05         0.0230    1.4240    2.2910 c3        1 Y14      0.029500
      6 O06         0.2080    2.2160   -0.4220 o         1 Y14     -0.594100
      7 O07        -1.0100   -0.1480    3.8290 os        1 Y14     -0.362600
      8 N08        -0.4960    0.6380    1.1580 n         1 Y14     -0.368800
      9 N09        -0.5810    0.2210   -1.3150 n4        1 Y14     -0.674800
     10 C10         0.0950    0.7510   -2.5520 c3        1 Y14      0.073500
     11 C11        -0.0980   -0.1920   -3.7490 c3        1 Y14     -0.116400
     12 C12         0.6590    0.2900   -4.9810 c3        1 Y14     -0.071700
     13 C13         2.1660    0.2930   -4.7720 c3        1 Y14     -0.077900
     14 C14         2.8910    0.7310   -6.0300 c3        1 Y14     -0.080400
     15 C15         2.5180   -0.1410   -7.2110 c3        1 Y14     -0.086400
     16 C16         1.0190   -0.1780   -7.4170 c3        1 Y14     -0.080400
     17 C17         0.2960   -0.6150   -6.1590 c3        1 Y14     -0.077900
     18 C18        -0.4940    2.1340   -2.8950 c         1 Y14      0.540100
     19 O19        -1.6950    2.3570   -2.9160 o         1 Y14     -0.386100
     20 C20         1.1980    5.3350   -4.3140 c3        1 Y14      0.144800
     21 C21        -0.9120    5.3300   -3.1080 c3        1 Y14     -0.105400
     22 C22         0.0840    6.3210   -2.4780 c3        1 Y14      0.131800
     23 N23         0.4890    3.2130   -3.1740 n4        1 Y14     -0.655800
     24 N24         1.3990    6.1230   -3.1010 n3        1 Y14     -0.742600
     25 C25         2.1590    7.3490   -3.3420 c3        1 Y14      0.214100
     26 C26         2.3050    8.2060   -2.1230 ca        1 Y14     -0.125300
     27 C27         3.2460    7.8760   -1.1420 ca        1 Y14     -0.116500
     28 C28         3.4200    8.7070   -0.0360 ca        1 Y14     -0.122500
     29 C29         2.6560    9.8670    0.0960 ca        1 Y14     -0.102000
     30 C30         1.7160   10.1970   -0.8820 ca        1 Y14     -0.122500
     31 C31         1.5380    9.3690   -1.9890 ca        1 Y14     -0.116500
     32 C32        -0.6960    3.9480   -5.1910 c1        1 Y14      0.124700
     33 N33        -1.2470    3.6400   -6.1680 n1        1 Y14     -0.197800
     34 C34        -0.0300    4.4050   -3.9880 c3        1 Y14      0.226300
     35 H021       -0.1140   -1.4060    1.4880 h1        1 Y14      0.085200
     36 H022       -1.7160   -1.0380    0.6560 h1        1 Y14      0.085200
     37 H031       -2.7660   -0.3180    2.7020 h1        1 Y14      0.097700
     38 H032       -1.8260   -1.8530    3.1140 h1        1 Y14      0.097700
     39 H041       -1.7960    1.7660    3.4890 h1        1 Y14      0.097700
     40 H042       -0.2290    1.6130    4.4500 h1        1 Y14      0.097700
     41 H051        0.0330    2.5150    2.0120 h1        1 Y14      0.085200
     42 H052        1.0810    1.0800    2.4830 h1        1 Y14      0.085200
     43 HN09       -0.2690   -0.7470   -1.1670 hn        1 Y14      0.477800
     44 H10         1.1990    0.8280   -2.3020 hx        1 Y14      0.142700
     45 H111        0.2780   -1.2160   -3.4780 hc        1 Y14      0.097700
     46 H112       -1.1910   -0.2720   -4.0000 hc        1 Y14      0.097700
     47 H12         0.3180    1.3340   -5.2350 hc        1 Y14      0.031700
     48 H131        2.5080   -0.7380   -4.4890 hc        1 Y14      0.045200
     49 H132        2.4420    0.9830   -3.9290 hc        1 Y14      0.045200
     50 H141        3.9980    0.6750   -5.8570 hc        1 Y14      0.059700
     51 H142        2.6370    1.8000   -6.2580 hc        1 Y14      0.059700
     52 H151        2.9030   -1.1810   -7.0460 hc        1 Y14      0.069700
     53 H152        3.0130    0.2560   -8.1370 hc        1 Y14      0.069700
     54 H161        0.7710   -0.8930   -8.2450 hc        1 Y14      0.059700
     55 H162        0.6520    0.8350   -7.7310 hc        1 Y14      0.059700
     56 H171       -0.8110   -0.5810   -6.3310 hc        1 Y14      0.045200
     57 H172        0.5760   -1.6730   -5.9130 hc        1 Y14      0.045200
     58 H201        0.9220    5.9430   -5.2240 h1        1 Y14      0.091200
     59 H202        2.1360    4.7660   -4.5490 h1        1 Y14      0.091200
     60 H211       -1.6400    5.8650   -3.7730 hc        1 Y14      0.102200
     61 H212       -1.5010    4.7770   -2.3390 hc        1 Y14      0.102200
     62 H221       -0.2950    7.3760   -2.5940 h1        1 Y14      0.086200
     63 H222        0.2030    6.1240   -1.3770 h1        1 Y14      0.086200
     64 HN23        1.2990    2.8140   -3.6730 hn        1 Y14      0.492800
     65 H251        3.1830    7.0220   -3.6890 h1        1 Y14      0.060700
     66 H252        1.6930    7.9600   -4.1710 h1        1 Y14      0.060700
     67 H27         3.8600    6.9710   -1.2530 ha        1 Y14      0.130500
     68 H28         4.1710    8.4530    0.7290 ha        1 Y14      0.149000
     69 H29         2.8020   10.5280    0.9650 ha        1 Y14      0.153000
     70 H30         1.1220   11.1190   -0.7850 ha        1 Y14      0.149000
     71 H31         0.8090    9.6450   -2.7650 ha        1 Y14      0.130500
     72 H092       -1.6020    0.2200   -1.4550 hn        1 Y14      0.477800
     73 H232        0.8110    3.5930   -2.2620 hn        1 Y14      0.492800
@<TRIPOS>BOND
     1    1    6 2   
     2    1    8 1   
     3    1    9 1   
     4    2    3 1   
     5    2    8 1   
     6    2   35 1   
     7    2   36 1   
     8    3    7 1   
     9    3   37 1   
    10    3   38 1   
    11    4    5 1   
    12    4    7 1   
    13    4   39 1   
    14    4   40 1   
    15    5    8 1   
    16    5   41 1   
    17    5   42 1   
    18    9   10 1   
    19    9   43 1   
    20    9   72 1   
    21   10   11 1   
    22   10   18 1   
    23   10   44 1   
    24   11   12 1   
    25   11   45 1   
    26   11   46 1   
    27   12   13 1   
    28   12   17 1   
    29   12   47 1   
    30   13   14 1   
    31   13   48 1   
    32   13   49 1   
    33   14   15 1   
    34   14   50 1   
    35   14   51 1   
    36   15   16 1   
    37   15   52 1   
    38   15   53 1   
    39   16   17 1   
    40   16   54 1   
    41   16   55 1   
    42   17   56 1   
    43   17   57 1   
    44   18   19 2   
    45   18   23 1   
    46   20   24 1   
    47   20   34 1   
    48   20   58 1   
    49   20   59 1   
    50   21   22 1   
    51   21   34 1   
    52   21   60 1   
    53   21   61 1   
    54   22   24 1   
    55   22   62 1   
    56   22   63 1   
    57   23   34 1   
    58   23   64 1   
    59   23   73 1   
    60   24   25 1   
    61   25   26 1   
    62   25   65 1   
    63   25   66 1   
    64   26   27 ar  
    65   26   31 ar  
    66   27   28 ar  
    67   27   67 1   
    68   28   29 ar  
    69   28   68 1   
    70   29   30 ar  
    71   29   69 1   
    72   30   31 ar  
    73   30   70 1   
    74   31   71 1   
    75   32   33 3   
    76   32   34 1   
@<TRIPOS>SUBSTRUCTURE
     1 Y14         1 TEMP              0 ****  ****    0 ROOT
