@<TRIPOS>MOLECULE
Y15
   71    73     1     0     0
SMALL
bcc


@<TRIPOS>ATOM
      1 C01        -0.4150    0.9260   -0.2580 c         1 Y15      0.644100
      2 C02        -1.1620   -0.7890    1.3770 c3        1 Y15      0.029500
      3 C03        -1.8370   -0.7850    2.7670 c3        1 Y15      0.114400
      4 C04        -0.7610    1.1960    3.4130 c3        1 Y15      0.114400
      5 C05         0.0070    1.3040    2.0870 c3        1 Y15      0.029500
      6 O06         0.0720    2.0040   -0.6540 o         1 Y15     -0.600100
      7 O07        -1.0120   -0.1640    3.7340 os        1 Y15     -0.362600
      8 N08        -0.6150    0.5110    1.0130 n         1 Y15     -0.368800
      9 N09        -0.8770    0.0300   -1.4360 ny        1 Y15     -0.673800
     10 C10        -0.2840    0.5090   -2.7340 c3        1 Y15      0.071500
     11 C11        -0.5930   -0.4510   -3.8920 c3        1 Y15     -0.115400
     12 C12         0.2200   -0.1170   -5.1400 c3        1 Y15     -0.058700
     13 C13         1.7080   -0.4070   -4.9750 c3        1 Y15     -0.076400
     14 C14         2.5320    0.7760   -4.5770 cx        1 Y15     -0.189700
     15 C15         3.8290    1.0270   -5.3090 cx        1 Y15     -0.119900
     16 C16         2.6780    1.9640   -5.5000 cx        1 Y15     -0.119900
     17 C17        -0.3460   -0.9270   -6.2960 c3        1 Y15     -0.105100
     18 C18        -0.8660    1.8970   -3.0690 c         1 Y15      0.540100
     19 O19        -2.0640    2.1340   -3.0250 o         1 Y15     -0.382100
     20 C20         0.7670    4.9970   -4.7510 c3        1 Y15      0.135400
     21 C21        -1.2730    5.0530   -3.2420 c3        1 Y15     -0.127100
     22 N22         0.1160    2.9530   -3.4270 ny        1 Y15     -0.670800
     23 O23         0.3280    6.2900   -5.0500 os        1 Y15     -0.390600
     24 C24         0.1640    6.5650   -6.4630 c3        1 Y15      0.177700
     25 C25        -0.4990    7.8940   -6.5680 ca        1 Y15     -0.134300
     26 C26         0.0840    9.0190   -5.9770 ca        1 Y15     -0.105000
     27 C27        -0.5180   10.2690   -6.1150 ca        1 Y15     -0.123500
     28 C28        -1.6980   10.3990   -6.8480 ca        1 Y15     -0.096000
     29 C29        -2.2810    9.2760   -7.4380 ca        1 Y15     -0.123500
     30 C30        -1.6880    8.0230   -7.2960 ca        1 Y15     -0.105000
     31 C31        -1.2750    3.6860   -5.2870 c1        1 Y15      0.124700
     32 N32        -1.9480    3.3460   -6.1710 n1        1 Y15     -0.212800
     33 C33        -0.4540    4.1710   -4.1830 c3        1 Y15      0.207300
     34 H021       -0.3160   -1.5380    1.3900 h1        1 Y15      0.085450
     35 H022       -1.9430   -1.1150    0.6370 h1        1 Y15      0.085450
     36 H031       -2.8360   -0.2780    2.7140 h1        1 Y15      0.098200
     37 H032       -1.9530   -1.8460    3.1230 h1        1 Y15      0.098200
     38 H041       -0.1080    1.5720    4.2490 h1        1 Y15      0.098200
     39 H042       -1.7190    1.7770    3.3750 h1        1 Y15      0.098200
     40 H051        0.0550    2.3840    1.7720 h1        1 Y15      0.085450
     41 H052        1.0560    0.9110    2.2310 h1        1 Y15      0.085450
     42 HN09       -1.9050    0.0580   -1.4970 hn        1 Y15      0.477800
     43 H10         0.8390    0.5570   -2.5780 hx        1 Y15      0.146700
     44 H111       -0.3540   -1.5070   -3.5860 hc        1 Y15      0.097200
     45 H112       -1.6900   -0.4020   -4.1380 hc        1 Y15      0.097200
     46 H12         0.0810    0.9740   -5.3870 hc        1 Y15      0.029700
     47 H131        2.0990   -0.8040   -5.9560 hc        1 Y15      0.078700
     48 H132        1.8590   -1.2300   -4.2260 hc        1 Y15      0.078700
     49 H141        4.1190    0.3530   -6.1370 hc        1 Y15      0.090450
     50 H142        2.5480    0.9660   -3.4840 hc        1 Y15      0.043700
     51 H151        2.7580    2.9800   -5.0710 hc        1 Y15      0.090450
     52 H152        4.7100    1.3640   -4.7310 hc        1 Y15      0.090450
     53 H161        0.1770   -0.6510   -7.2450 hc        1 Y15      0.067367
     54 H162        2.1450    1.9610   -6.4690 hc        1 Y15      0.090450
     55 H171       -0.2010   -2.0200   -6.1190 hc        1 Y15      0.067367
     56 H172       -1.4370   -0.7250   -6.4270 hc        1 Y15      0.067367
     57 H201        1.5340    5.1200   -3.9350 h1        1 Y15      0.072200
     58 H202        1.2050    4.4620   -5.6330 h1        1 Y15      0.072200
     59 H211       -2.1750    4.5220   -2.8540 hc        1 Y15      0.100367
     60 H212       -0.6430    5.4220   -2.3960 hc        1 Y15      0.100367
     61 H213       -1.6120    5.9530   -3.8270 hc        1 Y15      0.100367
     62 HN22        0.5220    3.3060   -2.5430 hn        1 Y15      0.488300
     63 H241       -0.4540    5.7530   -6.9290 h1        1 Y15      0.051200
     64 H242        1.1860    6.5840   -6.9280 h1        1 Y15      0.051200
     65 H26         1.0170    8.9130   -5.4040 ha        1 Y15      0.134000
     66 H27        -0.0560   11.1550   -5.6530 ha        1 Y15      0.150000
     67 H28        -2.1690   11.3880   -6.9650 ha        1 Y15      0.153000
     68 H29        -3.2090    9.3800   -8.0210 ha        1 Y15      0.150000
     69 H30        -2.1490    7.1430   -7.7690 ha        1 Y15      0.134000
     70 H092       -0.5830   -0.9430   -1.2860 hn        1 Y15      0.477800
     71 H222        0.8680    2.5340   -4.0040 hn        1 Y15      0.488300
@<TRIPOS>BOND
     1    1    6 2   
     2    1    8 1   
     3    1    9 1   
     4    2    3 1   
     5    2    8 1   
     6    2   34 1   
     7    2   35 1   
     8    3    7 1   
     9    3   36 1   
    10    3   37 1   
    11    4    5 1   
    12    4    7 1   
    13    4   38 1   
    14    4   39 1   
    15    5    8 1   
    16    5   40 1   
    17    5   41 1   
    18    9   10 1   
    19    9   42 1   
    20    9   70 1   
    21   10   11 1   
    22   10   18 1   
    23   10   43 1   
    24   11   12 1   
    25   11   44 1   
    26   11   45 1   
    27   12   13 1   
    28   12   17 1   
    29   12   46 1   
    30   13   14 1   
    31   13   47 1   
    32   13   48 1   
    33   14   15 1   
    34   14   16 1   
    35   14   50 1   
    36   15   16 1   
    37   15   49 1   
    38   15   52 1   
    39   16   51 1   
    40   16   54 1   
    41   17   53 1   
    42   17   55 1   
    43   17   56 1   
    44   18   19 2   
    45   18   22 1   
    46   20   23 1   
    47   20   33 1   
    48   20   57 1   
    49   20   58 1   
    50   21   33 1   
    51   21   59 1   
    52   21   60 1   
    53   21   61 1   
    54   22   33 1   
    55   22   62 1   
    56   22   71 1   
    57   23   24 1   
    58   24   25 1   
    59   24   63 1   
    60   24   64 1   
    61   25   26 ar  
    62   25   30 ar  
    63   26   27 ar  
    64   26   65 1   
    65   27   28 ar  
    66   27   66 1   
    67   28   29 ar  
    68   28   67 1   
    69   29   30 ar  
    70   29   68 1   
    71   30   69 1   
    72   31   32 3   
    73   31   33 1   
@<TRIPOS>SUBSTRUCTURE
     1 Y15         1 TEMP              0 ****  ****    0 ROOT
