@<TRIPOS>MOLECULE
Y15
   71    73     1     0     0
SMALL
bcc


@<TRIPOS>ATOM
      1 C01        -0.4580    0.9010   -0.1040 c         1 Y15      0.645100
      2 C02        -1.2040   -0.9690    1.3510 c3        1 Y15      0.029500
      3 C03        -2.0580   -1.1130    2.6310 c3        1 Y15      0.114400
      4 C04        -1.3270    0.9440    3.4880 c3        1 Y15      0.114400
      5 C05        -0.4040    1.2050    2.2890 c3        1 Y15      0.029500
      6 O06        -0.0570    2.0460   -0.3930 o         1 Y15     -0.601100
      7 O07        -1.4540   -0.4500    3.7240 os        1 Y15     -0.362600
      8 N08        -0.7740    0.4020    1.1110 n         1 Y15     -0.367800
      9 N09        -0.6450    0.0180   -1.3660 n4        1 Y15     -0.673800
     10 C10         0.0580    0.6270   -2.5500 c3        1 Y15      0.073500
     11 C11         0.0340   -0.3100   -3.7670 c3        1 Y15     -0.116400
     12 C12         0.7990    0.2760   -4.9470 c3        1 Y15     -0.071700
     13 C13         2.2840    0.4360   -4.6540 c3        1 Y15     -0.077900
     14 C14         3.0220    0.9810   -5.8620 c3        1 Y15     -0.079900
     15 C15         2.8100    0.1020   -7.0780 c3        1 Y15     -0.086400
     16 C16         1.3370   -0.0940   -7.3660 c3        1 Y15     -0.079900
     17 C17         0.6020   -0.6360   -6.1580 c3        1 Y15     -0.077900
     18 C18        -0.6370    1.9530   -2.9210 c         1 Y15      0.540100
     19 O19        -1.8480    2.0540   -3.0410 o         1 Y15     -0.377100
     20 C20         0.8570    5.3060   -4.2150 c3        1 Y15      0.136400
     21 C21        -1.3780    5.0550   -3.0440 c3        1 Y15     -0.128100
     22 N22         0.2560    3.1310   -3.0950 n4        1 Y15     -0.666800
     23 O23         0.3130    6.5360   -4.5950 os        1 Y15     -0.390600
     24 C24         0.4140    6.8360   -6.0090 c3        1 Y15      0.178700
     25 C25        -0.3810    8.0730   -6.2420 ca        1 Y15     -0.134300
     26 C26        -0.0670    9.2500   -5.5540 ca        1 Y15     -0.104000
     27 C27        -0.7860   10.4170   -5.8070 ca        1 Y15     -0.123500
     28 C28        -1.8160   10.4140   -6.7480 ca        1 Y15     -0.096000
     29 C29        -2.1300    9.2400   -7.4350 ca        1 Y15     -0.123500
     30 C30        -1.4190    8.0680   -7.1800 ca        1 Y15     -0.104000
     31 C31        -0.9200    3.8160   -5.1170 c1        1 Y15      0.123700
     32 N32        -1.4150    3.4660   -6.1090 n1        1 Y15     -0.209800
     33 C33        -0.3330    4.3210   -3.8820 c3        1 Y15      0.207300
     34 H021       -1.8310   -1.3470    0.4970 h1        1 Y15      0.085700
     35 H022       -0.2840   -1.6150    1.4590 h1        1 Y15      0.085700
     36 H031       -3.0950   -0.7210    2.4540 h1        1 Y15      0.098200
     37 H032       -2.0930   -2.1960    2.9310 h1        1 Y15      0.098200
     38 H041       -0.8440    1.3510    4.4200 h1        1 Y15      0.098200
     39 H042       -2.3340    1.4130    3.3340 h1        1 Y15      0.098200
     40 H051        0.6550    0.9280    2.5650 h1        1 Y15      0.085700
     41 H052       -0.4430    2.2990    2.0200 h1        1 Y15      0.085700
     42 HN09       -1.6510   -0.0690   -1.5700 hn        1 Y15      0.478300
     43 H10         1.1310    0.8020   -2.2280 hx        1 Y15      0.141700
     44 H111        0.5040   -1.2920   -3.4880 hc        1 Y15      0.098700
     45 H112       -1.0280   -0.5030   -4.0810 hc        1 Y15      0.098700
     46 H12         0.3620    1.2830   -5.2040 hc        1 Y15      0.031700
     47 H131        2.4380    1.1290   -3.7840 hc        1 Y15      0.045450
     48 H132        2.7200   -0.5590   -4.3730 hc        1 Y15      0.045450
     49 H141        4.1180    1.0410   -5.6290 hc        1 Y15      0.059200
     50 H142        2.6640    2.0210   -6.0840 hc        1 Y15      0.059200
     51 H151        3.2990   -0.8940   -6.9100 hc        1 Y15      0.070200
     52 H152        3.3070    0.5720   -7.9680 hc        1 Y15      0.070200
     53 H161        1.2160   -0.8140   -8.2200 hc        1 Y15      0.059200
     54 H162        0.8790    0.8790   -7.6840 hc        1 Y15      0.059200
     55 H171       -0.4920   -0.7190   -6.3910 hc        1 Y15      0.045450
     56 H172        0.9820   -1.6630   -5.9150 hc        1 Y15      0.045450
     57 H201        1.5170    4.8510   -4.9990 h1        1 Y15      0.072200
     58 H202        1.4340    5.5080   -3.2690 h1        1 Y15      0.072200
     59 H211       -0.9320    5.4300   -2.0910 hc        1 Y15      0.101367
     60 H212       -1.7160    5.9520   -3.6340 hc        1 Y15      0.101367
     61 H213       -2.2670    4.4140   -2.8320 hc        1 Y15      0.101367
     62 HN22        1.1170    2.8270   -3.5720 hn        1 Y15      0.483300
     63 H241        1.4990    7.0010   -6.2470 h1        1 Y15      0.051200
     64 H242        0.0190    5.9690   -6.6000 h1        1 Y15      0.051200
     65 H26         0.7480    9.2500   -4.8150 ha        1 Y15      0.134000
     66 H27        -0.5350   11.3440   -5.2670 ha        1 Y15      0.150000
     67 H28        -2.3780   11.3380   -6.9540 ha        1 Y15      0.153000
     68 H29        -2.9390    9.2390   -8.1820 ha        1 Y15      0.150000
     69 H30        -1.6680    7.1480   -7.7290 ha        1 Y15      0.134000
     70 H092       -0.2590   -0.9210   -1.2100 hn        1 Y15      0.478300
     71 H222        0.4930    3.4790   -2.1500 hn        1 Y15      0.483300
@<TRIPOS>BOND
     1    1    6 2   
     2    1    8 1   
     3    1    9 1   
     4    2    3 1   
     5    2    8 1   
     6    2   34 1   
     7    2   35 1   
     8    3    7 1   
     9    3   36 1   
    10    3   37 1   
    11    4    5 1   
    12    4    7 1   
    13    4   38 1   
    14    4   39 1   
    15    5    8 1   
    16    5   40 1   
    17    5   41 1   
    18    9   10 1   
    19    9   42 1   
    20    9   70 1   
    21   10   11 1   
    22   10   18 1   
    23   10   43 1   
    24   11   12 1   
    25   11   44 1   
    26   11   45 1   
    27   12   13 1   
    28   12   17 1   
    29   12   46 1   
    30   13   14 1   
    31   13   47 1   
    32   13   48 1   
    33   14   15 1   
    34   14   49 1   
    35   14   50 1   
    36   15   16 1   
    37   15   51 1   
    38   15   52 1   
    39   16   17 1   
    40   16   53 1   
    41   16   54 1   
    42   17   55 1   
    43   17   56 1   
    44   18   19 2   
    45   18   22 1   
    46   20   23 1   
    47   20   33 1   
    48   20   57 1   
    49   20   58 1   
    50   21   33 1   
    51   21   59 1   
    52   21   60 1   
    53   21   61 1   
    54   22   33 1   
    55   22   62 1   
    56   22   71 1   
    57   23   24 1   
    58   24   25 1   
    59   24   63 1   
    60   24   64 1   
    61   25   26 ar  
    62   25   30 ar  
    63   26   27 ar  
    64   26   65 1   
    65   27   28 ar  
    66   27   66 1   
    67   28   29 ar  
    68   28   67 1   
    69   29   30 ar  
    70   29   68 1   
    71   30   69 1   
    72   31   32 3   
    73   31   33 1   
@<TRIPOS>SUBSTRUCTURE
     1 Y15         1 TEMP              0 ****  ****    0 ROOT
