@<TRIPOS>MOLECULE
Y15
   71    71     1     0     0
SMALL
bcc


@<TRIPOS>ATOM
      1 C01        -0.2030    1.3920    0.2870 c         1 Y15      0.656100
      2 C02        -0.3120   -2.6670    0.6310 c2        1 Y15     -0.281000
      3 C03        -1.6400   -2.5320    0.6040 c2        1 Y15      0.006100
      4 C04        -0.1970    1.4230    3.9260 c2        1 Y15     -0.152000
      5 C05         0.0260    1.7700    2.6520 c2        1 Y15     -0.102400
      6 O06         0.3350    2.4380   -0.1240 o         1 Y15     -0.601100
      7 O07        -2.1830   -1.2540    0.6950 oh        1 Y15     -0.637100
      8 N08        -0.3940    0.9650    1.5540 n         1 Y15     -0.387100
      9 N09        -0.6990    0.4810   -0.8610 n4        1 Y15     -0.671800
     10 C10        -0.1270    0.9200   -2.1780 c3        1 Y15      0.074500
     11 C11        -0.4900   -0.0520   -3.3110 c3        1 Y15     -0.113400
     12 C12         0.1430    0.3610   -4.6340 c3        1 Y15     -0.071700
     13 C13         1.6630    0.2950   -4.5950 c3        1 Y15     -0.076900
     14 C14         2.2600    0.6670   -5.9380 c3        1 Y15     -0.079900
     15 C15         1.7160   -0.2130   -7.0450 c3        1 Y15     -0.085400
     16 C16         0.2040   -0.1830   -7.0800 c3        1 Y15     -0.079900
     17 C17        -0.3910   -0.5530   -5.7370 c3        1 Y15     -0.076900
     18 C18        -0.6720    2.3200   -2.5250 c         1 Y15      0.539100
     19 O19        -1.8600    2.6010   -2.4810 o         1 Y15     -0.377100
     20 C20         1.0800    5.3690   -4.1970 c3        1 Y15      0.136400
     21 C21        -0.9630    5.4920   -2.7010 c3        1 Y15     -0.127100
     22 N22         0.3470    3.3410   -2.8950 n4        1 Y15     -0.667800
     23 O23         0.6690    6.6550   -4.5580 os        1 Y15     -0.390600
     24 C24         0.5970    6.8930   -5.9850 c3        1 Y15      0.178700
     25 C25        -0.0320    8.2290   -6.1660 ca        1 Y15     -0.133300
     26 C26         0.5460    9.3630   -5.5850 ca        1 Y15     -0.104500
     27 C27        -0.0220   10.6190   -5.7930 ca        1 Y15     -0.124000
     28 C28        -1.1650   10.7470   -6.5840 ca        1 Y15     -0.096000
     29 C29        -1.7420    9.6160   -7.1640 ca        1 Y15     -0.124000
     30 C30        -1.1820    8.3570   -6.9530 ca        1 Y15     -0.104500
     31 C31        -1.0110    4.1410   -4.7540 c1        1 Y15      0.124700
     32 N32        -1.6960    3.8420   -5.6440 n1        1 Y15     -0.212800
     33 C33        -0.1750    4.5840   -3.6440 c3        1 Y15      0.207300
     34 H021        0.1550   -3.6570    0.5230 ha        1 Y15      0.139000
     35 H022        0.3830   -1.8360    0.8050 ha        1 Y15      0.139000
     36 H031       -3.0950   -1.3440    1.0110 ho        1 Y15      0.469000
     37 H032       -2.3640   -3.3550    0.4900 h4        1 Y15      0.181000
     38 H041       -0.7170    0.5120    4.2520 ha        1 Y15      0.166500
     39 H042        0.1580    2.0780    4.7390 ha        1 Y15      0.166500
     40 H051        0.5540    2.6970    2.3510 h4        1 Y15      0.189000
     41 H052       -0.8770    0.1030    1.7500 hn        1 Y15      0.375500
     42 HN09       -0.4330   -0.5050   -0.6880 hn        1 Y15      0.488300
     43 H10         0.9990    0.9400   -2.0450 hx        1 Y15      0.139700
     44 H111       -1.6070   -0.0920   -3.4360 hc        1 Y15      0.098200
     45 H112       -0.1280   -1.0820   -3.0440 hc        1 Y15      0.098200
     46 H12        -0.1750    1.4140   -4.8790 hc        1 Y15      0.031700
     47 H131        2.0630    0.9890   -3.8080 hc        1 Y15      0.045200
     48 H132        1.9860   -0.7450   -4.3220 hc        1 Y15      0.045200
     49 H141        3.3760    0.5620   -5.8880 hc        1 Y15      0.058450
     50 H142        2.0310    1.7410   -6.1670 hc        1 Y15      0.058450
     51 H151        2.0700   -1.2670   -6.8930 hc        1 Y15      0.069200
     52 H152        2.1220    0.1370   -8.0310 hc        1 Y15      0.069200
     53 H161       -0.1490    0.8390   -7.3810 hc        1 Y15      0.058450
     54 H162       -0.1680   -0.9050   -7.8550 hc        1 Y15      0.058450
     55 H171       -0.1350   -1.6180   -5.4920 hc        1 Y15      0.045200
     56 H172       -1.5080   -0.4700   -5.7850 hc        1 Y15      0.045200
     57 H201        1.8150    5.5100   -3.3560 h1        1 Y15      0.071700
     58 H202        1.5420    4.7970   -5.0430 h1        1 Y15      0.071700
     59 H211       -0.3280    5.8190   -1.8420 hc        1 Y15      0.100700
     60 H212       -1.2510    6.4140   -3.2790 hc        1 Y15      0.100700
     61 H213       -1.8930    4.9990   -2.3310 hc        1 Y15      0.100700
     62 HN22        1.0670    2.8940   -3.4790 hn        1 Y15      0.482800
     63 H241        1.6460    6.8810   -6.3880 h1        1 Y15      0.050700
     64 H242       -0.0060    6.0790   -6.4660 h1        1 Y15      0.050700
     65 H26         1.4480    9.2580   -4.9650 ha        1 Y15      0.134000
     66 H27         0.4350   11.5110   -5.3370 ha        1 Y15      0.150000
     67 H28        -1.6080   11.7400   -6.7540 ha        1 Y15      0.153000
     68 H29        -2.6400    9.7180   -7.7930 ha        1 Y15      0.150000
     69 H30        -1.6390    7.4710   -7.4180 ha        1 Y15      0.134000
     70 H092       -1.7310    0.5120   -0.8870 hn        1 Y15      0.488300
     71 H222        0.7790    3.6760   -2.0150 hn        1 Y15      0.482800
@<TRIPOS>BOND
     1    1    6 2   
     2    1    8 1   
     3    1    9 1   
     4    2    3 2   
     5    2   34 1   
     6    2   35 1   
     7    3    7 1   
     8    3   37 1   
     9    4    5 2   
    10    4   38 1   
    11    4   39 1   
    12    5    8 1   
    13    5   40 1   
    14    7   36 1   
    15    8   41 1   
    16    9   10 1   
    17    9   42 1   
    18    9   70 1   
    19   10   11 1   
    20   10   18 1   
    21   10   43 1   
    22   11   12 1   
    23   11   44 1   
    24   11   45 1   
    25   12   13 1   
    26   12   17 1   
    27   12   46 1   
    28   13   14 1   
    29   13   47 1   
    30   13   48 1   
    31   14   15 1   
    32   14   49 1   
    33   14   50 1   
    34   15   16 1   
    35   15   51 1   
    36   15   52 1   
    37   16   17 1   
    38   16   53 1   
    39   16   54 1   
    40   17   55 1   
    41   17   56 1   
    42   18   19 2   
    43   18   22 1   
    44   20   23 1   
    45   20   33 1   
    46   20   57 1   
    47   20   58 1   
    48   21   33 1   
    49   21   59 1   
    50   21   60 1   
    51   21   61 1   
    52   22   33 1   
    53   22   62 1   
    54   22   71 1   
    55   23   24 1   
    56   24   25 1   
    57   24   63 1   
    58   24   64 1   
    59   25   26 ar  
    60   25   30 ar  
    61   26   27 ar  
    62   26   65 1   
    63   27   28 ar  
    64   27   66 1   
    65   28   29 ar  
    66   28   67 1   
    67   29   30 ar  
    68   29   68 1   
    69   30   69 1   
    70   31   32 3   
    71   31   33 1   
@<TRIPOS>SUBSTRUCTURE
     1 Y15         1 TEMP              0 ****  ****    0 ROOT
