@<TRIPOS>MOLECULE
Y15
   69    71     1     0     0
SMALL
bcc


@<TRIPOS>ATOM
      1 C01         3.0590   -0.3840    0.8200 c         1 Y15      0.745100
      2 C02         4.5630   -2.1300   -0.1310 c3        1 Y15      0.031000
      3 C03         3.9270   -3.5280   -0.0840 c3        1 Y15      0.095400
      4 C04         3.6460   -3.3560    2.2610 c3        1 Y15      0.095400
      5 C05         4.2640   -1.9530    2.2530 c3        1 Y15      0.031000
      6 O06         2.2740   -0.1700    1.7810 o         1 Y15     -0.662100
      7 O07         4.1280   -4.1490    1.1800 os        1 Y15     -0.409600
      8 N08         4.1700   -1.2680    0.9700 n         1 Y15     -0.419800
      9 N09         2.8730    0.3030   -0.3820 n         1 Y15     -0.553900
     10 C10         1.9700    1.4310   -0.4280 c3        1 Y15      0.037700
     11 C11         2.4620    2.5440   -1.3660 c3        1 Y15     -0.085400
     12 C12         1.7260    3.8520   -1.1150 c3        1 Y15     -0.062700
     13 C13         2.2450    4.5580    0.1290 c3        1 Y15     -0.073900
     14 C14         1.5320    5.8770    0.3470 c3        1 Y15     -0.076900
     15 C15         1.6590    6.7780   -0.8640 c3        1 Y15     -0.077400
     16 C16         1.1630    6.0820   -2.1150 c3        1 Y15     -0.076900
     17 C17         1.8700    4.7610   -2.3300 c3        1 Y15     -0.073900
     18 C18         0.5570    0.9590   -0.8850 c         1 Y15      0.659100
     19 O19         0.1170    1.2400   -2.0120 o         1 Y15     -0.595100
     20 C20        -1.8080   -1.3110    1.0040 c3        1 Y15      0.125400
     21 C21        -1.7990   -0.8890   -1.4750 c3        1 Y15     -0.100100
     22 N22        -0.1340    0.2060    0.0410 n         1 Y15     -0.569900
     23 O23        -3.0370   -1.9700    0.7640 os        1 Y15     -0.410600
     24 C24        -4.1160   -1.5060    1.5830 c3        1 Y15      0.169700
     25 C25        -5.3270   -2.3200    1.2700 ca        1 Y15     -0.091300
     26 C26        -5.2210   -3.6420    0.8280 ca        1 Y15     -0.113000
     27 C27        -6.3720   -4.3880    0.5740 ca        1 Y15     -0.132000
     28 C28        -7.6310   -3.8200    0.7640 ca        1 Y15     -0.126000
     29 C29        -7.7390   -2.5000    1.2040 ca        1 Y15     -0.132000
     30 C30        -6.5930   -1.7490    1.4530 ca        1 Y15     -0.113000
     31 C31        -2.4430    0.8870    0.0670 c1        1 Y15      0.195700
     32 N32        -3.1630    1.7910    0.1850 n1        1 Y15     -0.369800
     33 C33        -1.5100   -0.2450   -0.1080 c3        1 Y15      0.173500
     34 H021        5.6830   -2.2450   -0.0510 h1        1 Y15      0.073700
     35 H022        4.3350   -1.6720   -1.1300 h1        1 Y15      0.073700
     36 H031        2.8290   -3.4770   -0.3090 h1        1 Y15      0.060450
     37 H032        4.4380   -4.2100   -0.8140 h1        1 Y15      0.060450
     38 H041        3.9660   -3.9160    3.1780 h1        1 Y15      0.060450
     39 H042        2.5260   -3.2990    2.2140 h1        1 Y15      0.060450
     40 H051        3.7760   -1.3330    3.0560 h1        1 Y15      0.073700
     41 H052        5.3650   -2.0360    2.4760 h1        1 Y15      0.073700
     42 HN09        3.5680    0.2650   -1.0900 hn        1 Y15      0.318500
     43 H10         1.8650    1.8630    0.6170 h1        1 Y15      0.090700
     44 H111        3.5620    2.7070   -1.2200 hc        1 Y15      0.060200
     45 H112        2.2940    2.2240   -2.4290 hc        1 Y15      0.060200
     46 H12         0.6300    3.6260   -0.9760 hc        1 Y15      0.065700
     47 H131        2.0990    3.9060    1.0290 hc        1 Y15      0.040450
     48 H132        3.3470    4.7420    0.0210 hc        1 Y15      0.040450
     49 H141        0.4480    5.6850    0.5590 hc        1 Y15      0.042200
     50 H142        1.9650    6.3910    1.2450 hc        1 Y15      0.042200
     51 H151        1.0690    7.7170   -0.6970 hc        1 Y15      0.039200
     52 H152        2.7320    7.0740   -1.0000 hc        1 Y15      0.039200
     53 H161        0.0590    5.9040   -2.0300 hc        1 Y15      0.042200
     54 H162        1.3310    6.7440   -3.0040 hc        1 Y15      0.042200
     55 H171        2.9580    4.9420   -2.5310 hc        1 Y15      0.040450
     56 H172        1.4380    4.2490   -3.2300 hc        1 Y15      0.040450
     57 H201       -1.7760   -0.8350    2.0180 h1        1 Y15      0.061700
     58 H202       -1.0360   -2.1270    0.9350 h1        1 Y15      0.061700
     59 H211       -1.1050   -1.7450   -1.6430 hc        1 Y15      0.065367
     60 H212       -2.8490   -1.2690   -1.4760 hc        1 Y15      0.065367
     61 H213       -1.6720   -0.1460   -2.2990 hc        1 Y15      0.065367
     62 HN22        0.2780    0.0750    0.9410 hn        1 Y15      0.340500
     63 H241       -3.8380   -1.6360    2.6660 h1        1 Y15      0.044700
     64 H242       -4.3010   -0.4180    1.3770 h1        1 Y15      0.044700
     65 H26        -4.2250   -4.0830    0.6720 ha        1 Y15      0.139500
     66 H27        -6.2840   -5.4260    0.2230 ha        1 Y15      0.132000
     67 H28        -8.5380   -4.4100    0.5660 ha        1 Y15      0.131000
     68 H29        -8.7320   -2.0490    1.3510 ha        1 Y15      0.132000
     69 H30        -6.6810   -0.7060    1.7910 ha        1 Y15      0.139500
@<TRIPOS>BOND
     1    1    6 2   
     2    1    8 1   
     3    1    9 1   
     4    2    3 1   
     5    2    8 1   
     6    2   34 1   
     7    2   35 1   
     8    3    7 1   
     9    3   36 1   
    10    3   37 1   
    11    4    5 1   
    12    4    7 1   
    13    4   38 1   
    14    4   39 1   
    15    5    8 1   
    16    5   40 1   
    17    5   41 1   
    18    9   10 1   
    19    9   42 1   
    20   10   11 1   
    21   10   18 1   
    22   10   43 1   
    23   11   12 1   
    24   11   44 1   
    25   11   45 1   
    26   12   13 1   
    27   12   17 1   
    28   12   46 1   
    29   13   14 1   
    30   13   47 1   
    31   13   48 1   
    32   14   15 1   
    33   14   49 1   
    34   14   50 1   
    35   15   16 1   
    36   15   51 1   
    37   15   52 1   
    38   16   17 1   
    39   16   53 1   
    40   16   54 1   
    41   17   55 1   
    42   17   56 1   
    43   18   19 2   
    44   18   22 1   
    45   20   23 1   
    46   20   33 1   
    47   20   57 1   
    48   20   58 1   
    49   21   33 1   
    50   21   59 1   
    51   21   60 1   
    52   21   61 1   
    53   22   33 1   
    54   22   62 1   
    55   23   24 1   
    56   24   25 1   
    57   24   63 1   
    58   24   64 1   
    59   25   26 ar  
    60   25   30 ar  
    61   26   27 ar  
    62   26   65 1   
    63   27   28 ar  
    64   27   66 1   
    65   28   29 ar  
    66   28   67 1   
    67   29   30 ar  
    68   29   68 1   
    69   30   69 1   
    70   31   32 3   
    71   31   33 1   
@<TRIPOS>SUBSTRUCTURE
     1 Y15         1 TEMP              0 ****  ****    0 ROOT
