@<TRIPOS>MOLECULE
Y16
   48    46     1     0     0
SMALL
bcc


@<TRIPOS>ATOM
      1 N1         -2.7440   -2.7810    1.6350 n         1 Y16     -0.351000
      2 O1         -0.1410    1.2490   -1.7010 oh        1 Y16     -0.322000
      3 N2         -5.2240   -5.4870    1.6380 n         1 Y16     -0.430000
      4 O2         -1.3420   -0.8200   -0.7840 oh        1 Y16     -0.333000
      5 O3          1.2690   -1.2400   -0.3550 oh        1 Y16     -0.345000
      6 O4         -3.3780   -0.5500    1.5880 o         1 Y16     -0.370000
      7 O5         -4.2570   -4.3290   -0.0680 o         1 Y16     -0.376000
      8 O6         -0.7740   -0.0170    2.6660 os        1 Y16     -0.273000
      9 C01         3.0480    2.9110   -2.1340 c3        1 Y16     -0.030000
     10 C02         3.1030    1.3890   -2.5050 c2        1 Y16     -0.128000
     11 C03         2.1280    0.4770   -1.9510 c1        1 Y16     -0.201000
     12 C04         1.0270    1.0060   -0.9860 c2        1 Y16      0.066000
     13 C05         0.7620   -0.0030    0.0570 c3        1 Y16     -0.024000
     14 C06        -0.7570   -0.1270    0.2870 c3        1 Y16      0.012000
     15 C07        -1.0090   -0.8760    1.5730 c3        1 Y16     -0.017000
     16 C08         4.1440    3.6570   -2.8750 c3        1 Y16     -0.204667
     17 C09         3.2450    3.0750   -0.6420 c3        1 Y16     -0.204667
     18 C10         1.7010    3.4740   -2.5280 c3        1 Y16     -0.204667
     19 C11        -2.4570   -1.3620    1.6060 c2        1 Y16      0.279000
     20 C12        -4.0450   -3.2450    2.0610 c3        1 Y16     -0.047000
     21 C13        -4.5240   -4.3760    1.1140 c2        1 Y16      0.270000
     22 C14        -0.5660   -0.7010    3.9060 c3        1 Y16     -0.085000
     23 HN1        -2.0730   -3.3880    1.4650 hn        1 Y16      0.259000
     24 HO1        -0.0700    0.8960   -2.5110 ho        1 Y16      0.215000
     25 HN2        -5.5070   -6.1530    1.0800 hn        1 Y16      0.226000
     26 HN2A       -5.4220   -5.5220    2.5150 hn        1 Y16      0.226000
     27 HO2        -2.0820   -0.4220   -1.0190 ho        1 Y16      0.235000
     28 HO3         1.9720   -1.4720    0.1740 ho        1 Y16      0.223000
     29 H02         3.8110    1.0490   -3.1250 ha        1 Y16      0.121000
     30 H03         2.1620   -0.4780   -2.1830 ha        1 Y16      0.126000
     31 H04         1.3290    1.8260   -0.5710 h4        1 Y16      0.135000
     32 H05         1.2050    0.2750    0.9090 h1        1 Y16      0.114000
     33 H06        -1.1510    0.7660    0.3490 h1        1 Y16      0.127000
     34 H07        -0.4110   -1.6400    1.6270 h1        1 Y16      0.114000
     35 H08         4.0430    3.5160   -3.8320 hc        1 Y16      0.076778
     36 H08A        4.0750    4.6370   -2.6720 hc        1 Y16      0.076778
     37 H08B        5.0280    3.3210   -2.5830 hc        1 Y16      0.076778
     38 H09         3.4370    2.2130   -0.2470 hc        1 Y16      0.076778
     39 H09A        4.0100    3.7000   -0.4710 hc        1 Y16      0.076778
     40 H09B        2.4340    3.4400   -0.2480 hc        1 Y16      0.076778
     41 H10         1.1150    3.4880   -1.7480 hc        1 Y16      0.076778
     42 H10A        1.2990    2.9070   -3.2330 hc        1 Y16      0.076778
     43 H10B        1.8150    4.3830   -2.8660 hc        1 Y16      0.076778
     44 H12        -4.6840   -2.5020    2.0320 h1        1 Y16      0.122000
     45 H12A       -3.9850   -3.5920    2.9840 h1        1 Y16      0.122000
     46 H14         0.0050   -0.1550    4.4900 h1        1 Y16      0.087667
     47 H14A       -0.1300   -1.5600    3.7350 h1        1 Y16      0.087667
     48 H14B       -1.4330   -0.8550    4.3460 h1        1 Y16      0.087667
@<TRIPOS>BOND
     1    1   19 1   
     2    1   20 1   
     3    1   23 1   
     4    2   12 1   
     5    2   24 1   
     6    3   21 1   
     7    3   25 1   
     8    3   26 1   
     9    4   14 1   
    10    4   27 1   
    11    5   13 1   
    12    5   28 1   
    13    6   19 1   
    14    7   21 1   
    15    8   15 1   
    16    8   22 1   
    17    9   10 1   
    18    9   16 1   
    19    9   17 1   
    20    9   18 1   
    21   10   11 1   
    22   10   29 1   
    23   11   30 1   
    24   12   13 1   
    25   12   31 1   
    26   13   14 1   
    27   13   32 1   
    28   14   15 1   
    29   14   33 1   
    30   15   19 1   
    31   15   34 1   
    32   16   35 1   
    33   16   36 1   
    34   16   37 1   
    35   17   38 1   
    36   17   39 1   
    37   17   40 1   
    38   18   41 1   
    39   18   42 1   
    40   18   43 1   
    41   20   21 1   
    42   20   44 1   
    43   20   45 1   
    44   22   46 1   
    45   22   47 1   
    46   22   48 1   
@<TRIPOS>SUBSTRUCTURE
     1 Y16         1 TEMP              0 ****  ****    0 ROOT
