@<TRIPOS>MOLECULE
Y16
   48    47     1     0     0
SMALL
bcc


@<TRIPOS>ATOM
      1 N1         -3.3170   -0.2240   -0.5090 n         1 Y16     -0.527900
      2 O1          1.5740   -1.2080   -1.1370 oh        1 Y16     -0.591800
      3 N2         -6.4360   -1.4780    1.0130 n         1 Y16     -0.667000
      4 O2         -0.7400   -0.8370    0.6360 oh        1 Y16     -0.602800
      5 O3          1.2280    0.6180    1.5040 oh        1 Y16     -0.600800
      6 O4         -3.8450    1.9050    0.1660 o         1 Y16     -0.618100
      7 O5         -4.3080   -2.2480    1.2380 o         1 Y16     -0.616100
      8 O6         -1.1940    2.4320   -0.8720 os        1 Y16     -0.407600
      9 C01         5.6470   -0.8300    0.1650 c3        1 Y16     -0.027800
     10 C04         1.9810    0.1060   -0.7920 c3        1 Y16      0.146300
     11 C05         0.9550    0.8040    0.1240 c3        1 Y16      0.079100
     12 C06        -0.4740    0.2980   -0.1670 c3        1 Y16      0.106100
     13 C07        -1.4940    1.4210    0.0870 c3        1 Y16      0.052100
     14 C08         5.8160   -2.0800    1.0250 c3        1 Y16     -0.085100
     15 C09         6.6240   -0.8940   -1.0060 c3        1 Y16     -0.085100
     16 C10         5.9620    0.3970    1.0060 c3        1 Y16     -0.085100
     17 C11        -2.9750    1.0380   -0.0620 c         1 Y16      0.634100
     18 C12        -4.6890   -0.6380   -0.5520 c3        1 Y16      0.012000
     19 C13        -5.1150   -1.5030    0.6460 c         1 Y16      0.625100
     20 HN1        -2.6500   -0.9610   -0.3990 hn        1 Y16      0.341500
     21 HO1         1.3510   -1.6700   -0.3190 ho        1 Y16      0.408000
     22 HN2        -7.0580   -0.8150    0.6290 hn        1 Y16      0.312500
     23 HN2A       -6.7330   -2.0110    1.7920 hn        1 Y16      0.312500
     24 HO2        -0.7600   -0.5480    1.5600 ho        1 Y16      0.417000
     25 HO3         1.5270   -0.2940    1.6210 ho        1 Y16      0.408000
     26 H02         4.0020   -1.6960   -0.9990 ha        1 Y16      0.134000
     27 H03         3.5470    1.0410    0.4230 ha        1 Y16      0.140000
     28 H04         1.9980    0.6460   -1.7860 h1        1 Y16      0.093700
     29 H05         1.0120    1.9180   -0.0320 h1        1 Y16      0.099700
     30 H06        -0.5450   -0.0720   -1.2290 h1        1 Y16      0.117700
     31 H07        -1.3650    1.8100    1.1380 h1        1 Y16      0.077700
     32 H08         5.1160   -2.0500    1.8930 hc        1 Y16      0.037256
     33 H08A        5.6050   -2.9970    0.4240 hc        1 Y16      0.037256
     34 H08B        6.8620   -2.1380    1.4100 hc        1 Y16      0.037256
     35 H09         7.6720   -0.9420   -0.6260 hc        1 Y16      0.037256
     36 H09A        6.4260   -1.8000   -1.6280 hc        1 Y16      0.037256
     37 H09B        6.5170    0.0120   -1.6490 hc        1 Y16      0.037256
     38 H10         7.0090    0.3380    1.3890 hc        1 Y16      0.037256
     39 H10A        5.8600    1.3260    0.3950 hc        1 Y16      0.037256
     40 H10B        5.2680    0.4620    1.8790 hc        1 Y16      0.037256
     41 H12        -5.3460    0.2750   -0.6360 h1        1 Y16      0.084200
     42 H12A       -4.8330   -1.2760   -1.4720 h1        1 Y16      0.084200
     43 H14        -0.9470    4.0450    0.4320 h1        1 Y16      0.049700
     44 H14A       -1.2970    4.3800   -1.3430 h1        1 Y16      0.049700
     45 H14B       -2.6440    3.8040   -0.2270 h1        1 Y16      0.049700
     46 C14        -1.5520    3.7440   -0.4580 c3        1 Y16      0.103700
     47 C03         3.3460    0.1440   -0.1840 c2        1 Y16     -0.233200
     48 C02         4.2540   -0.8140   -0.3810 c2        1 Y16     -0.126200
@<TRIPOS>BOND
     1    1   17 1   
     2    1   18 1   
     3    1   20 1   
     4    2   10 1   
     5    2   21 1   
     6    3   19 1   
     7    3   22 1   
     8    3   23 1   
     9    4   12 1   
    10    4   24 1   
    11    5   11 1   
    12    5   25 1   
    13    6   17 2   
    14    7   19 2   
    15    8   13 1   
    16    8   46 1   
    17    9   14 1   
    18    9   15 1   
    19    9   16 1   
    20    9   48 1   
    21   10   11 1   
    22   10   28 1   
    23   10   47 1   
    24   11   12 1   
    25   11   29 1   
    26   12   13 1   
    27   12   30 1   
    28   13   17 1   
    29   13   31 1   
    30   14   32 1   
    31   14   33 1   
    32   14   34 1   
    33   15   35 1   
    34   15   36 1   
    35   15   37 1   
    36   16   38 1   
    37   16   39 1   
    38   16   40 1   
    39   18   19 1   
    40   18   41 1   
    41   18   42 1   
    42   26   48 1   
    43   27   47 1   
    44   43   46 1   
    45   44   46 1   
    46   45   46 1   
    47   47   48 2   
@<TRIPOS>SUBSTRUCTURE
     1 Y16         1 TEMP              0 ****  ****    0 ROOT
