@<TRIPOS>MOLECULE
Y19
   45    45     1     0     0
SMALL
bcc


@<TRIPOS>ATOM
      1 O2          0.1730   -1.0550    0.4430 o         1 Y19     -0.381500
      2 C2          1.2940   -0.6470    0.1590 c         1 Y19      0.821900
      3 N3          1.9920    0.2730    0.9810 n         1 Y19     -0.582500
      4 C4          3.3090    0.6160    0.7830 c         1 Y19      0.682500
      5 O4          3.9270    1.4470    1.4520 o         1 Y19     -0.491500
      6 N1          1.9330   -1.0750   -1.0750 ne        1 Y19     -0.495100
      7 C6          3.1850   -0.8550   -1.2940 c2        1 Y19      0.507200
      8 C5          4.1350   -0.1700   -0.3000 c3        1 Y19     -0.056800
      9 N13         5.0680   -1.0800    0.4340 n4        1 Y19     -0.699800
     10 C14         6.3960   -1.3970   -0.2720 c         1 Y19      0.589100
     11 C15         7.5800   -1.6840    0.5970 c3        1 Y19     -0.155400
     12 C16         7.3350   -1.8090    2.0730 c3        1 Y19     -0.144100
     13 O23         6.3340   -1.3840   -1.4900 o         1 Y19     -0.460100
     14 N7          3.7320   -1.1760   -2.6340 n4        1 Y19     -0.738000
     15 C8          2.9490   -0.5250   -3.7510 c3        1 Y19      0.115800
     16 C9          3.7640   -0.5390   -5.0610 c3        1 Y19      0.143100
     17 O9          5.0190    0.0360   -4.7400 oh        1 Y19     -0.660800
     18 C10         3.0150    0.2940   -6.1250 c3        1 Y19      0.117100
     19 O10         1.6340    0.0610   -5.9110 oh        1 Y19     -0.619800
     20 C11         3.4500   -0.1470   -7.5360 c3        1 Y19      0.109100
     21 O11         4.8430   -0.4060   -7.4670 oh        1 Y19     -0.644800
     22 C12         3.1420    0.9450   -8.5680 c3        1 Y19      0.097400
     23 O12         3.6870    0.4650   -9.7820 oh        1 Y19     -0.604800
     24 H3          1.4620    0.7600    1.6890 hn        1 Y19      0.411500
     25 H5          4.7630    0.6110   -0.8420 hx        1 Y19      0.176700
     26 H7          4.7110   -0.8370   -2.7080 hn        1 Y19      0.489800
     27 H13         4.6030   -1.9670    0.6640 hn        1 Y19      0.486300
     28 H151        8.0370   -2.6400    0.1940 hc        1 Y19      0.154700
     29 H152        8.3280   -0.8580    0.3910 hc        1 Y19      0.154700
     30 H161        7.0450   -0.8350    2.5420 hc        1 Y19      0.083367
     31 H162        8.2960   -2.1280    2.5650 hc        1 Y19      0.083367
     32 H163        6.5720   -2.5890    2.3120 hc        1 Y19      0.083367
     33 H8C1        2.7320    0.5400   -3.4580 hx        1 Y19      0.137200
     34 H8C2        1.9760   -1.0790   -3.9030 hx        1 Y19      0.137200
     35 H9          3.9080   -1.5910   -5.4360 h1        1 Y19      0.087700
     36 HA          5.5230    0.1450   -5.5650 ho        1 Y19      0.489000
     37 H10         3.2460    1.3850   -5.9680 h1        1 Y19      0.074700
     38 HB          1.1540    0.3640   -6.6950 ho        1 Y19      0.448000
     39 H11         2.9150   -1.0980   -7.8220 h1        1 Y19      0.080700
     40 HC          5.1750   -0.4550   -8.3770 ho        1 Y19      0.468000
     41 H121        3.6310    1.9140   -8.2800 h1        1 Y19      0.045200
     42 H122        2.0340    1.0930   -8.6590 h1        1 Y19      0.045200
     43 H12         3.4980    1.1220  -10.4650 ho        1 Y19      0.440000
     44 H132        5.3120   -0.6120    1.3310 hn        1 Y19      0.486300
     45 H72         3.7280   -2.1960   -2.7800 hn        1 Y19      0.489800
@<TRIPOS>BOND
     1    1    2 2   
     2    2    3 1   
     3    2    6 1   
     4    3    4 1   
     5    3   24 1   
     6    4    5 2   
     7    4    8 1   
     8    6    7 2   
     9    7    8 1   
    10    7   14 1   
    11    8    9 1   
    12    8   25 1   
    13    9   10 1   
    14    9   27 1   
    15    9   44 1   
    16   10   11 1   
    17   10   13 2   
    18   11   12 1   
    19   11   28 1   
    20   11   29 1   
    21   12   30 1   
    22   12   31 1   
    23   12   32 1   
    24   14   15 1   
    25   14   26 1   
    26   14   45 1   
    27   15   16 1   
    28   15   33 1   
    29   15   34 1   
    30   16   17 1   
    31   16   18 1   
    32   16   35 1   
    33   17   36 1   
    34   18   19 1   
    35   18   20 1   
    36   18   37 1   
    37   19   38 1   
    38   20   21 1   
    39   20   22 1   
    40   20   39 1   
    41   21   40 1   
    42   22   23 1   
    43   22   41 1   
    44   22   42 1   
    45   23   43 1   
@<TRIPOS>SUBSTRUCTURE
     1 Y19         1 TEMP              0 ****  ****    0 ROOT
