@<TRIPOS>MOLECULE
Y19
   43    43     1     0     0
SMALL
bcc


@<TRIPOS>ATOM
      1 O2          1.8990   -4.1850    0.4670 o         1 Y19     -0.584500
      2 C2          2.0030   -2.9460    0.4940 c         1 Y19      0.854900
      3 N3          3.2850   -2.4160    0.8310 n         1 Y19     -0.611500
      4 C4          3.5650   -1.0690    0.8310 c         1 Y19      0.686500
      5 O4          4.7190   -0.6500    1.0330 o         1 Y19     -0.617500
      6 N1          0.9210   -2.0920    0.2220 ne        1 Y19     -0.735100
      7 C6          1.0790   -0.7750    0.2330 c2        1 Y19      0.698200
      8 C5          2.4160   -0.0640    0.5960 c3        1 Y19     -0.059600
      9 N13         2.8060    0.9290   -0.3710 n         1 Y19     -0.551900
     10 C14         2.4570    2.2630   -0.1960 c         1 Y19      0.660100
     11 C15         3.1050    3.2890   -1.1010 c3        1 Y19     -0.149400
     12 C16         4.6020    3.3340   -0.9380 c3        1 Y19     -0.099100
     13 O23         1.5880    2.5740    0.6440 o         1 Y19     -0.610100
     14 N7          0.0330    0.0590   -0.0610 nh        1 Y19     -0.804200
     15 C8         -1.2990   -0.4300   -0.3160 c3        1 Y19      0.174800
     16 C9         -2.2310    0.6720   -0.8550 c3        1 Y19      0.106100
     17 O9         -2.2440    1.8170   -0.0290 oh        1 Y19     -0.604800
     18 C10        -3.6440    0.0960   -1.0650 c3        1 Y19      0.113100
     19 O10        -4.2680    0.7310   -2.1670 oh        1 Y19     -0.592800
     20 C11        -4.5460    0.2410    0.1750 c3        1 Y19      0.111100
     21 O11        -3.7980   -0.1600    1.3120 oh        1 Y19     -0.619800
     22 C12        -5.8010   -0.6190    0.0080 c3        1 Y19      0.094400
     23 O12        -6.5940   -0.3830    1.1610 oh        1 Y19     -0.615800
     24 H3          4.0240   -3.0620    1.0160 hn        1 Y19      0.346500
     25 H5          2.2330    0.4400    1.6020 h1        1 Y19      0.121700
     26 H7          0.1320    1.0400    0.1180 hn        1 Y19      0.475800
     27 H13         3.6030    0.7180   -0.9280 hn        1 Y19      0.328500
     28 H151        2.8330    3.0620   -2.1650 hc        1 Y19      0.079700
     29 H152        2.6600    4.2880   -0.8400 hc        1 Y19      0.079700
     30 H161        5.0160    4.1950   -1.5180 hc        1 Y19      0.048033
     31 H162        4.8820    3.4660    0.1350 hc        1 Y19      0.048033
     32 H163        5.0830    2.3990   -1.3150 hc        1 Y19      0.048033
     33 H8C1       -1.2540   -1.2610   -1.0760 h1        1 Y19      0.080700
     34 H8C2       -1.7400   -0.8510    0.6360 h1        1 Y19      0.080700
     35 H9         -1.8510    1.0570   -1.8470 h1        1 Y19      0.090700
     36 HA         -2.4670    1.5330    0.8700 ho        1 Y19      0.424000
     37 H10        -3.5750   -0.9870   -1.3670 h1        1 Y19      0.092700
     38 HB         -4.2610    1.6820   -1.9920 ho        1 Y19      0.412000
     39 H11        -4.8460    1.3210    0.3010 h1        1 Y19      0.058700
     40 HC         -4.4260   -0.2450    2.0430 ho        1 Y19      0.434000
     41 H121       -6.3470   -0.3130   -0.9220 h1        1 Y19      0.047700
     42 H122       -5.5250   -1.7060   -0.0520 h1        1 Y19      0.047700
     43 H12        -7.3910   -0.9170    1.0660 ho        1 Y19      0.414000
@<TRIPOS>BOND
     1    1    2 2   
     2    2    3 1   
     3    2    6 1   
     4    3    4 1   
     5    3   24 1   
     6    4    5 2   
     7    4    8 1   
     8    6    7 2   
     9    7    8 1   
    10    7   14 1   
    11    8    9 1   
    12    8   25 1   
    13    9   10 1   
    14    9   27 1   
    15   10   11 1   
    16   10   13 2   
    17   11   12 1   
    18   11   28 1   
    19   11   29 1   
    20   12   30 1   
    21   12   31 1   
    22   12   32 1   
    23   14   15 1   
    24   14   26 1   
    25   15   16 1   
    26   15   33 1   
    27   15   34 1   
    28   16   17 1   
    29   16   18 1   
    30   16   35 1   
    31   17   36 1   
    32   18   19 1   
    33   18   20 1   
    34   18   37 1   
    35   19   38 1   
    36   20   21 1   
    37   20   22 1   
    38   20   39 1   
    39   21   40 1   
    40   22   23 1   
    41   22   41 1   
    42   22   42 1   
    43   23   43 1   
@<TRIPOS>SUBSTRUCTURE
     1 Y19         1 TEMP              0 ****  ****    0 ROOT
