@<TRIPOS>MOLECULE
Y19
   45    45     1     0     0
SMALL
bcc


@<TRIPOS>ATOM
      1 O2          0.1510   -0.9670    0.4220 o         1 Y19     -0.381500
      2 C2          1.2830   -0.5860    0.1430 c         1 Y19      0.821900
      3 N3          2.0030    0.3090    0.9730 n         1 Y19     -0.582500
      4 C4          3.3290    0.6200    0.7800 c         1 Y19      0.682500
      5 O4          3.9660    1.4300    1.4560 o         1 Y19     -0.491500
      6 N1          1.9130   -1.0220   -1.0920 ne        1 Y19     -0.495100
      7 C6          3.1710   -0.8320   -1.3080 c2        1 Y19      0.507200
      8 C5          4.1360   -0.1790   -0.3080 c3        1 Y19     -0.056800
      9 N13         5.0450   -1.1170    0.4210 n4        1 Y19     -0.699800
     10 C14         6.3650   -1.4630   -0.2850 c         1 Y19      0.589100
     11 C15         7.5400   -1.7870    0.5830 c3        1 Y19     -0.155400
     12 C16         7.2880   -1.9210    2.0580 c3        1 Y19     -0.144100
     13 O23         6.3060   -1.4380   -1.5040 o         1 Y19     -0.460100
     14 N7          3.7120   -1.1580   -2.6490 n4        1 Y19     -0.738000
     15 C8          2.9460   -0.4820   -3.7640 c3        1 Y19      0.115800
     16 C9          3.7620   -0.5090   -5.0720 c3        1 Y19      0.143100
     17 O9          5.0300    0.0330   -4.7480 oh        1 Y19     -0.660800
     18 C10         3.0340    0.3470   -6.1330 c3        1 Y19      0.117100
     19 O10         1.6480    0.1460   -5.9210 oh        1 Y19     -0.619800
     20 C11         3.4590   -0.0970   -7.5460 c3        1 Y19      0.109100
     21 O11         4.8460   -0.3890   -7.4770 oh        1 Y19     -0.644800
     22 C12         3.1790    1.0090   -8.5720 c3        1 Y19      0.097400
     23 O12         3.7130    0.5220   -9.7890 oh        1 Y19     -0.604800
     24 H3          1.4840    0.8050    1.6840 hn        1 Y19      0.411500
     25 H5          4.7850    0.5900   -0.8430 hx        1 Y19      0.176700
     26 H7          4.6990   -0.8410   -2.7200 hn        1 Y19      0.489800
     27 H13         4.5570   -1.9940    0.6440 hn        1 Y19      0.486300
     28 H151        8.3090   -0.9770    0.3870 hc        1 Y19      0.154700
     29 H152        7.9750   -2.7500    0.1710 hc        1 Y19      0.154700
     30 H161        6.5060   -2.6840    2.2870 hc        1 Y19      0.083367
     31 H162        7.0220   -0.9450    2.5350 hc        1 Y19      0.083367
     32 H163        8.2400   -2.2680    2.5480 hc        1 Y19      0.083367
     33 H8C1        2.7550    0.5860   -3.4650 hx        1 Y19      0.137200
     34 H8C2        1.9600   -1.0120   -3.9200 hx        1 Y19      0.137200
     35 H9          3.8810   -1.5630   -5.4540 h1        1 Y19      0.087700
     36 HA          5.5370    0.1350   -5.5720 ho        1 Y19      0.489000
     37 H10         3.2910    1.4320   -5.9700 h1        1 Y19      0.074700
     38 HB          1.1760    0.4650   -6.7040 ho        1 Y19      0.448000
     39 H11         2.9020   -1.0320   -7.8370 h1        1 Y19      0.079700
     40 HC          5.1780   -0.4420   -8.3870 ho        1 Y19      0.468000
     41 H121        3.6910    1.9630   -8.2780 h1        1 Y19      0.045200
     42 H122        2.0750    1.1830   -8.6630 h1        1 Y19      0.045200
     43 H12         3.5410    1.1870  -10.4680 ho        1 Y19      0.440000
     44 H132        5.2990   -0.6620    1.3220 hn        1 Y19      0.486300
     45 H72         3.6840   -2.1770   -2.8010 hn        1 Y19      0.489800
@<TRIPOS>BOND
     1    1    2 2   
     2    2    3 1   
     3    2    6 1   
     4    3    4 1   
     5    3   24 1   
     6    4    5 2   
     7    4    8 1   
     8    6    7 2   
     9    7    8 1   
    10    7   14 1   
    11    8    9 1   
    12    8   25 1   
    13    9   10 1   
    14    9   27 1   
    15    9   44 1   
    16   10   11 1   
    17   10   13 2   
    18   11   12 1   
    19   11   28 1   
    20   11   29 1   
    21   12   30 1   
    22   12   31 1   
    23   12   32 1   
    24   14   15 1   
    25   14   26 1   
    26   14   45 1   
    27   15   16 1   
    28   15   33 1   
    29   15   34 1   
    30   16   17 1   
    31   16   18 1   
    32   16   35 1   
    33   17   36 1   
    34   18   19 1   
    35   18   20 1   
    36   18   37 1   
    37   19   38 1   
    38   20   21 1   
    39   20   22 1   
    40   20   39 1   
    41   21   40 1   
    42   22   23 1   
    43   22   41 1   
    44   22   42 1   
    45   23   43 1   
@<TRIPOS>SUBSTRUCTURE
     1 Y19         1 TEMP              0 ****  ****    0 ROOT
