@<TRIPOS>MOLECULE
Y19
   45    45     1     0     0
SMALL
bcc


@<TRIPOS>ATOM
      1 O2          0.1550   -1.2230    0.3800 o         1 Y19     -0.381500
      2 C2          1.2670   -0.7780    0.1170 c         1 Y19      0.821900
      3 N3          1.9290    0.1460    0.9630 ns        1 Y19     -0.582500
      4 C4          3.2380    0.5300    0.7870 c         1 Y19      0.682500
      5 O4          3.8240    1.3650    1.4790 o         1 Y19     -0.491500
      6 N1          1.9320   -1.1650   -1.1170 ne        1 Y19     -0.495100
      7 C6          3.1780   -0.9040   -1.3180 c2        1 Y19      0.507200
      8 C5          4.0970   -0.2110   -0.3020 c3        1 Y19     -0.056800
      9 N13         5.0500   -1.1070    0.4260 ny        1 Y19     -0.699800
     10 C14         6.3940   -1.3710   -0.2710 c         1 Y19      0.589100
     11 C15         7.5760   -1.6390    0.6050 c3        1 Y19     -0.155400
     12 C16         7.3200   -1.8010    2.0760 c3        1 Y19     -0.144100
     13 O23         6.3440   -1.3370   -1.4900 o         1 Y19     -0.460100
     14 N7          3.7500   -1.1860   -2.6570 ny        1 Y19     -0.738000
     15 C8          2.9580   -0.5400   -3.7720 c3        1 Y19      0.115800
     16 C9          3.7870   -0.5080   -5.0730 c3        1 Y19      0.143100
     17 O9          5.0200    0.1000   -4.7290 oh        1 Y19     -0.660800
     18 C10         3.0240    0.3200   -6.1310 c3        1 Y19      0.117100
     19 O10         1.6490    0.0420   -5.9360 oh        1 Y19     -0.619800
     20 C11         3.4860   -0.0840   -7.5440 c3        1 Y19      0.109100
     21 O11         4.8860   -0.3010   -7.4640 oh        1 Y19     -0.644800
     22 C12         3.1560    1.0160   -8.5620 c3        1 Y19      0.097400
     23 O12         3.7280    0.5730   -9.7780 oh        1 Y19     -0.604800
     24 H3          1.3780    0.6050    1.6750 hn        1 Y19      0.411500
     25 H5          4.7080    0.5980   -0.8220 hx        1 Y19      0.176700
     26 H7          4.7180   -0.8150   -2.7140 hn        1 Y19      0.489800
     27 H13         5.2700   -0.6490    1.3350 hn        1 Y19      0.486300
     28 H151        8.0670   -2.5720    0.1890 hc        1 Y19      0.154700
     29 H152        8.3010   -0.7860    0.4250 hc        1 Y19      0.154700
     30 H161        8.2850   -2.1010    2.5720 hc        1 Y19      0.083367
     31 H162        6.9950   -0.8470    2.5600 hc        1 Y19      0.083367
     32 H163        6.5780   -2.6080    2.2910 hc        1 Y19      0.083367
     33 H8C1        2.0050   -1.1210   -3.9440 hx        1 Y19      0.137200
     34 H8C2        2.7060    0.5130   -3.4630 hx        1 Y19      0.137200
     35 H9          3.9670   -1.5480   -5.4640 h1        1 Y19      0.087700
     36 HA          5.5290    0.2380   -5.5470 ho        1 Y19      0.489000
     37 H10         3.2200    1.4150   -5.9540 h1        1 Y19      0.074700
     38 HB          1.1680    0.3430   -6.7200 ho        1 Y19      0.448000
     39 H11         2.9840   -1.0450   -7.8510 h1        1 Y19      0.079700
     40 HC          5.2290   -0.3250   -8.3720 ho        1 Y19      0.468000
     41 H121        3.6120    1.9940   -8.2520 h1        1 Y19      0.045200
     42 H122        2.0450    1.1310   -8.6620 h1        1 Y19      0.045200
     43 H12         3.5260    1.2350  -10.4520 ho        1 Y19      0.440000
     44 H132        4.6090   -2.0110    0.6340 hn        1 Y19      0.486300
     45 H72         3.7780   -2.2030   -2.8210 hn        1 Y19      0.489800
@<TRIPOS>BOND
     1    1    2 2   
     2    2    3 1   
     3    2    6 1   
     4    3    4 1   
     5    3   24 1   
     6    4    5 2   
     7    4    8 1   
     8    6    7 2   
     9    7    8 1   
    10    7   14 1   
    11    8    9 1   
    12    8   25 1   
    13    9   10 1   
    14    9   27 1   
    15    9   44 1   
    16   10   11 1   
    17   10   13 2   
    18   11   12 1   
    19   11   28 1   
    20   11   29 1   
    21   12   30 1   
    22   12   31 1   
    23   12   32 1   
    24   14   15 1   
    25   14   26 1   
    26   14   45 1   
    27   15   16 1   
    28   15   33 1   
    29   15   34 1   
    30   16   17 1   
    31   16   18 1   
    32   16   35 1   
    33   17   36 1   
    34   18   19 1   
    35   18   20 1   
    36   18   37 1   
    37   19   38 1   
    38   20   21 1   
    39   20   22 1   
    40   20   39 1   
    41   21   40 1   
    42   22   23 1   
    43   22   41 1   
    44   22   42 1   
    45   23   43 1   
@<TRIPOS>SUBSTRUCTURE
     1 Y19         1 TEMP              0 ****  ****    0 ROOT
