@<TRIPOS>MOLECULE
Y1N
   53    55     1     0     0
SMALL
bcc


@<TRIPOS>ATOM
      1 C01        -0.1080   -0.3160    0.2790 c3        1 Y1N     -0.086100
      2 C02         1.3840   -0.0200    0.4030 c3        1 Y1N      0.021800
      3 C03         1.7800    0.0940    1.8630 c3        1 Y1N     -0.086100
      4 O04         1.9930   -1.2010   -0.1790 os        1 Y1N     -0.328900
      5 C05         3.3440   -1.2600   -0.3690 ca        1 Y1N      0.189100
      6 C06         3.8030   -2.5210   -0.8130 ca        1 Y1N     -0.196000
      7 C07         5.1550   -2.7220   -1.0510 ca        1 Y1N     -0.096000
      8 C08         6.0770   -1.6890   -0.8530 ca        1 Y1N     -0.174300
      9 C09         7.5240   -1.9060   -1.1080 c3        1 Y1N     -0.017100
     10 C10         7.9250   -1.2640   -2.4290 c3        1 Y1N      0.126400
     11 O11         9.3270   -1.5480   -2.5920 os        1 Y1N     -0.332900
     12 C12         9.9130   -1.0690   -3.7360 ca        1 Y1N      0.168100
     13 C13        11.2810   -1.3840   -3.8800 ca        1 Y1N     -0.202000
     14 C14        11.9740   -0.9510   -4.9970 ca        1 Y1N     -0.055500
     15 C15        11.3240   -0.1940   -6.0020 ca        1 Y1N      0.033400
     16 N16        12.1390    0.2030   -7.1080 ne        1 Y1N     -0.197400
     17 N17        11.6400    0.8130   -8.0550 nf        1 Y1N     -0.224400
     18 C18        12.4770    1.2140   -9.1530 ca        1 Y1N      0.104400
     19 C19        11.8080    1.5700  -10.3450 ca        1 Y1N     -0.102500
     20 C20        12.5340    2.0100  -11.4470 ca        1 Y1N     -0.140000
     21 C21        13.9240    2.1100  -11.3880 ca        1 Y1N     -0.124000
     22 C22        14.5920    1.7630  -10.2150 ca        1 Y1N     -0.140000
     23 C23        13.8810    1.3160   -9.1040 ca        1 Y1N     -0.102500
     24 C24         9.9580    0.1120   -5.8420 ca        1 Y1N     -0.055500
     25 C25         9.2550   -0.3190   -4.7210 ca        1 Y1N     -0.202000
     26 C26         5.6150   -0.4430   -0.4120 ca        1 Y1N     -0.096000
     27 C27         4.2660   -0.2180   -0.1700 ca        1 Y1N     -0.196000
     28 C28         1.6880    1.2910   -0.4000 c         1 Y1N      0.904600
     29 O29         1.3270    1.3380   -1.6030 o         1 Y1N     -0.818800
     30 O30         2.2510    2.2340    0.2250 o         1 Y1N     -0.818800
     31 H011       -0.3890   -0.3310   -0.8010 hc        1 Y1N      0.033533
     32 H012       -0.3580   -1.3000    0.7410 hc        1 Y1N      0.033533
     33 H013       -0.6750    0.4920    0.7960 hc        1 Y1N      0.033533
     34 H031        2.8890    0.1480    1.9640 hc        1 Y1N      0.033533
     35 H032        1.3470    1.0350    2.2790 hc        1 Y1N      0.033533
     36 H033        1.4060   -0.7820    2.4450 hc        1 Y1N      0.033533
     37 H06         3.0750   -3.3270   -0.9740 ha        1 Y1N      0.167000
     38 H27         3.9190    0.7840    0.1480 ha        1 Y1N      0.167000
     39 H07         5.5040   -3.7050   -1.4000 ha        1 Y1N      0.114500
     40 H091        7.7630   -3.0020   -1.1440 hc        1 Y1N      0.048700
     41 H092        8.1380   -1.4580   -0.2820 hc        1 Y1N      0.048700
     42 H26         6.3330    0.3780   -0.2600 ha        1 Y1N      0.114500
     43 H101        7.7690   -0.1540   -2.3990 h1        1 Y1N      0.051200
     44 H102        7.3540   -1.7090   -3.2850 h1        1 Y1N      0.051200
     45 H13        11.7800   -1.9710   -3.0960 ha        1 Y1N      0.152000
     46 H25         8.1900   -0.0640   -4.6200 ha        1 Y1N      0.152000
     47 H14        13.0420   -1.2030   -5.0980 ha        1 Y1N      0.146000
     48 H24         9.4230    0.7010   -6.6040 ha        1 Y1N      0.146000
     49 H19        10.7100    1.5000  -10.4080 ha        1 Y1N      0.147500
     50 H23        14.4290    1.0480   -8.1870 ha        1 Y1N      0.147500
     51 H20        12.0040    2.2840  -12.3710 ha        1 Y1N      0.130500
     52 H21        14.4890    2.4610  -12.2630 ha        1 Y1N      0.128000
     53 H22        15.6880    1.8410  -10.1630 ha        1 Y1N      0.130500
@<TRIPOS>BOND
     1    1    2 1   
     2    1   31 1   
     3    1   32 1   
     4    1   33 1   
     5    2    3 1   
     6    2    4 1   
     7    2   28 1   
     8    3   34 1   
     9    3   35 1   
    10    3   36 1   
    11    4    5 1   
    12    5    6 ar  
    13    5   27 ar  
    14    6    7 ar  
    15    6   37 1   
    16    7    8 ar  
    17    7   39 1   
    18    8    9 1   
    19    8   26 ar  
    20    9   10 1   
    21    9   40 1   
    22    9   41 1   
    23   10   11 1   
    24   10   43 1   
    25   10   44 1   
    26   11   12 1   
    27   12   13 ar  
    28   12   25 ar  
    29   13   14 ar  
    30   13   45 1   
    31   14   15 ar  
    32   14   47 1   
    33   15   16 1   
    34   15   24 ar  
    35   16   17 2   
    36   17   18 1   
    37   18   19 ar  
    38   18   23 ar  
    39   19   20 ar  
    40   19   49 1   
    41   20   21 ar  
    42   20   51 1   
    43   21   22 ar  
    44   21   52 1   
    45   22   23 ar  
    46   22   53 1   
    47   23   50 1   
    48   24   25 ar  
    49   24   48 1   
    50   25   46 1   
    51   26   27 ar  
    52   26   42 1   
    53   27   38 1   
    54   28   29 1   
    55   28   30 1   
@<TRIPOS>SUBSTRUCTURE
     1 Y1N         1 TEMP              0 ****  ****    0 ROOT
