@<TRIPOS>MOLECULE
Y1N
   53    55     1     0     0
SMALL
bcc


@<TRIPOS>ATOM
      1 C01        -0.1280   -0.3290    0.2750 c3        1 Y1N     -0.086100
      2 C02         1.3630   -0.0320    0.4000 c3        1 Y1N      0.021800
      3 C03         1.7580    0.0790    1.8610 c3        1 Y1N     -0.086100
      4 O04         1.9740   -1.2120   -0.1840 os        1 Y1N     -0.328900
      5 C05         3.3250   -1.2700   -0.3720 ca        1 Y1N      0.189100
      6 C06         3.7850   -2.5310   -0.8170 ca        1 Y1N     -0.196000
      7 C07         5.1380   -2.7310   -1.0550 ca        1 Y1N     -0.096000
      8 C08         6.0590   -1.6970   -0.8550 ca        1 Y1N     -0.174300
      9 C09         7.5060   -1.9140   -1.1080 c3        1 Y1N     -0.017100
     10 C10         7.9070   -1.2700   -2.4280 c3        1 Y1N      0.126400
     11 O11         9.3110   -1.5500   -2.5890 os        1 Y1N     -0.332900
     12 C12         9.8980   -1.0700   -3.7310 ca        1 Y1N      0.168100
     13 C13        11.2670   -1.3800   -3.8720 ca        1 Y1N     -0.202000
     14 C14        11.9610   -0.9450   -4.9870 ca        1 Y1N     -0.055500
     15 C15        11.3110   -0.1910   -5.9940 ca        1 Y1N      0.033400
     16 N16        12.1280    0.2110   -7.0980 ne        1 Y1N     -0.197400
     17 N17        11.6280    0.8140   -8.0480 nf        1 Y1N     -0.224400
     18 C18        12.4660    1.2180   -9.1440 ca        1 Y1N      0.104400
     19 C19        11.8020    1.5500  -10.3450 ca        1 Y1N     -0.102500
     20 C20        12.5300    1.9940  -11.4450 ca        1 Y1N     -0.140000
     21 C21        13.9170    2.1200  -11.3740 ca        1 Y1N     -0.124000
     22 C22        14.5800    1.7970  -10.1920 ca        1 Y1N     -0.140000
     23 C23        13.8680    1.3470   -9.0830 ca        1 Y1N     -0.102500
     24 C24         9.9440    0.1110   -5.8360 ca        1 Y1N     -0.055500
     25 C25         9.2400   -0.3210   -4.7180 ca        1 Y1N     -0.202000
     26 C26         5.5960   -0.4520   -0.4120 ca        1 Y1N     -0.096000
     27 C27         4.2470   -0.2280   -0.1710 ca        1 Y1N     -0.196000
     28 C28         1.6680    1.2800   -0.4000 c         1 Y1N      0.904600
     29 O29         1.3080    1.3300   -1.6040 o         1 Y1N     -0.818800
     30 O30         2.2300    2.2220    0.2270 o         1 Y1N     -0.818800
     31 H011       -0.4080   -0.3420   -0.8060 hc        1 Y1N      0.033533
     32 H012       -0.6960    0.4790    0.7920 hc        1 Y1N      0.033533
     33 H013       -0.3780   -1.3140    0.7340 hc        1 Y1N      0.033533
     34 H031        1.3850   -0.7980    2.4410 hc        1 Y1N      0.033533
     35 H032        2.8680    0.1340    1.9620 hc        1 Y1N      0.033533
     36 H033        1.3250    1.0190    2.2780 hc        1 Y1N      0.033533
     37 H06         3.0570   -3.3370   -0.9800 ha        1 Y1N      0.167000
     38 H27         3.8990    0.7730    0.1480 ha        1 Y1N      0.167000
     39 H07         5.4870   -3.7130   -1.4040 ha        1 Y1N      0.114500
     40 H091        7.7460   -3.0090   -1.1450 hc        1 Y1N      0.048700
     41 H092        8.1190   -1.4660   -0.2810 hc        1 Y1N      0.048700
     42 H26         6.3130    0.3690   -0.2580 ha        1 Y1N      0.114500
     43 H101        7.3400   -1.7150   -3.2850 h1        1 Y1N      0.051200
     44 H102        7.7500   -0.1610   -2.3980 h1        1 Y1N      0.051200
     45 H13        11.7660   -1.9670   -3.0880 ha        1 Y1N      0.152000
     46 H25         8.1740   -0.0690   -4.6180 ha        1 Y1N      0.152000
     47 H14        13.0300   -1.1940   -5.0870 ha        1 Y1N      0.146000
     48 H24         9.4090    0.7000   -6.6000 ha        1 Y1N      0.146000
     49 H19        10.7070    1.4590  -10.4170 ha        1 Y1N      0.147500
     50 H23        14.4120    1.0980   -8.1580 ha        1 Y1N      0.147500
     51 H20        12.0030    2.2480  -12.3770 ha        1 Y1N      0.130500
     52 H21        14.4840    2.4740  -12.2470 ha        1 Y1N      0.128000
     53 H22        15.6740    1.8960  -10.1310 ha        1 Y1N      0.130500
@<TRIPOS>BOND
     1    1    2 1   
     2    1   31 1   
     3    1   32 1   
     4    1   33 1   
     5    2    3 1   
     6    2    4 1   
     7    2   28 1   
     8    3   34 1   
     9    3   35 1   
    10    3   36 1   
    11    4    5 1   
    12    5    6 ar  
    13    5   27 ar  
    14    6    7 ar  
    15    6   37 1   
    16    7    8 ar  
    17    7   39 1   
    18    8    9 1   
    19    8   26 ar  
    20    9   10 1   
    21    9   40 1   
    22    9   41 1   
    23   10   11 1   
    24   10   43 1   
    25   10   44 1   
    26   11   12 1   
    27   12   13 ar  
    28   12   25 ar  
    29   13   14 ar  
    30   13   45 1   
    31   14   15 ar  
    32   14   47 1   
    33   15   16 1   
    34   15   24 ar  
    35   16   17 2   
    36   17   18 1   
    37   18   19 ar  
    38   18   23 ar  
    39   19   20 ar  
    40   19   49 1   
    41   20   21 ar  
    42   20   51 1   
    43   21   22 ar  
    44   21   52 1   
    45   22   23 ar  
    46   22   53 1   
    47   23   50 1   
    48   24   25 ar  
    49   24   48 1   
    50   25   46 1   
    51   26   27 ar  
    52   26   42 1   
    53   27   38 1   
    54   28   29 1   
    55   28   30 1   
@<TRIPOS>SUBSTRUCTURE
     1 Y1N         1 TEMP              0 ****  ****    0 ROOT
