@<TRIPOS>MOLECULE
Y1Z
   60    65     1     0     0
SMALL
bcc


@<TRIPOS>ATOM
      1 OBD         1.0080    0.1690    1.9250 o         1 Y1Z     -0.640300
      2 SBB         2.0550   -0.1670    1.0480 sy        1 Y1Z      1.508200
      3 OBC         3.1160   -0.9060    1.6070 o         1 Y1Z     -0.640300
      4 CBE         1.4460   -1.0630   -0.2650 ca        1 Y1Z     -0.369500
      5 CBF         1.9850   -2.3430   -0.4770 ca        1 Y1Z     -0.019000
      6 CBG         1.5150   -3.1740   -1.4880 ca        1 Y1Z     -0.153000
      7 CBH         0.4840   -2.7390   -2.3210 ca        1 Y1Z     -0.059000
      8 CBI        -0.0680   -1.4720   -2.1400 ca        1 Y1Z     -0.154000
      9 CBJ         0.4160   -0.6460   -1.1210 ca        1 Y1Z      0.129400
     10 CL         -0.2790    0.8950   -0.9440 cl        1 Y1Z     -0.074400
     11 NAU         2.5820    1.2140    0.3600 nh        1 Y1Z     -0.764500
     12 CAS         3.7050    1.4400   -0.4460 ca        1 Y1Z      0.205600
     13 CAR         3.7970    2.6030   -1.2750 ca        1 Y1Z      0.053600
     14 NAV         2.7310    3.5660   -1.2550 nh        1 Y1Z     -0.627000
     15 CBA         2.0190    3.6430   -2.5280 c3        1 Y1Z      0.134800
     16 CAZ         0.9200    4.7120   -2.5130 c3        1 Y1Z      0.124900
     17 OAY         1.4200    5.9750   -2.0920 os        1 Y1Z     -0.412600
     18 CAX         2.0340    5.9090   -0.8110 c3        1 Y1Z      0.124900
     19 CAW         3.1690    4.8780   -0.7820 c3        1 Y1Z      0.134800
     20 CAQ         4.9390    2.7800   -2.0770 ca        1 Y1Z     -0.128000
     21 CAP         5.9740    1.8550   -2.0850 ca        1 Y1Z     -0.133000
     22 CAO         5.8910    0.7250   -1.2660 ca        1 Y1Z     -0.118500
     23 CAT         4.7840    0.5250   -0.4460 ca        1 Y1Z     -0.159000
     24 CAG         6.9980   -0.2560   -1.2540 cc        1 Y1Z      0.446800
     25 CAD         7.2810   -1.0110   -2.4800 ca        1 Y1Z     -0.142300
     26 CAC         6.5340   -0.8530   -3.6580 ca        1 Y1Z     -0.099000
     27 CAB         6.8450   -1.5970   -4.7880 ca        1 Y1Z     -0.127000
     28 CAA         7.9050   -2.5140   -4.7680 ca        1 Y1Z     -0.111000
     29 CAF         8.6550   -2.6920   -3.6140 ca        1 Y1Z     -0.098000
     30 CAE         8.3470   -1.9460   -2.4670 ca        1 Y1Z      0.022000
     31 CAJ         9.0800   -2.0890   -1.2320 cc        1 Y1Z     -0.102300
     32 NAI         8.6740   -1.2800   -0.1100 na        1 Y1Z      0.047300
     33 NAH         7.6790   -0.4000   -0.1200 nd        1 Y1Z     -0.431800
     34 NAM        10.1350   -2.8610   -0.8380 nd        1 Y1Z     -0.058000
     35 NAL        10.4120   -2.6010    0.4210 nd        1 Y1Z     -0.368700
     36 CAK         9.5680   -1.6520    0.9320 cc        1 Y1Z      0.375800
     37 CAN         9.5330   -1.0820    2.2940 c3        1 Y1Z     -0.102400
     38 H1          2.8020   -2.6960    0.1820 ha        1 Y1Z      0.172000
     39 H2          1.9560   -4.1730   -1.6280 ha        1 Y1Z      0.149000
     40 H3          0.1040   -3.3930   -3.1210 ha        1 Y1Z      0.144000
     41 H4         -0.8830   -1.1250   -2.7940 ha        1 Y1Z      0.155000
     42 H5          2.0030    2.0260    0.4570 hn        1 Y1Z      0.476800
     43 H6          2.7220    3.8630   -3.3830 h1        1 Y1Z      0.047700
     44 H7          1.5450    2.6390   -2.7130 h1        1 Y1Z      0.047700
     45 H8          0.0730    4.4010   -1.8460 h1        1 Y1Z      0.056950
     46 H9          0.5450    4.8910   -3.5550 h1        1 Y1Z      0.056950
     47 H10         1.2610    5.6720   -0.0340 h1        1 Y1Z      0.056950
     48 H11         2.4470    6.9380   -0.6440 h1        1 Y1Z      0.056950
     49 H12         3.5230    4.7570    0.2790 h1        1 Y1Z      0.047700
     50 H13         4.0280    5.2770   -1.3950 h1        1 Y1Z      0.047700
     51 H14         5.0190    3.6750   -2.7170 ha        1 Y1Z      0.142000
     52 H15         6.8570    2.0160   -2.7220 ha        1 Y1Z      0.147000
     53 H16         4.7710   -0.3560    0.2230 ha        1 Y1Z      0.179000
     54 H17         5.7000   -0.1340   -3.6800 ha        1 Y1Z      0.148000
     55 H18         6.2560   -1.4670   -5.7090 ha        1 Y1Z      0.139000
     56 H19         8.1410   -3.0950   -5.6720 ha        1 Y1Z      0.142000
     57 H20         9.4890   -3.4120   -3.5860 ha        1 Y1Z      0.164000
     58 H21        10.3320   -1.5460    2.9240 hc        1 Y1Z      0.069367
     59 H22         9.6990    0.0240    2.2510 hc        1 Y1Z      0.069367
     60 H23         8.5370   -1.2750    2.7660 hc        1 Y1Z      0.069367
@<TRIPOS>BOND
     1    1    2 2   
     2    2    3 2   
     3    2    4 1   
     4    2   11 1   
     5    4    5 ar  
     6    4    9 ar  
     7    5    6 ar  
     8    5   38 1   
     9    6    7 ar  
    10    6   39 1   
    11    7    8 ar  
    12    7   40 1   
    13    8    9 ar  
    14    8   41 1   
    15    9   10 1   
    16   11   12 1   
    17   11   42 1   
    18   12   13 ar  
    19   12   23 ar  
    20   13   14 1   
    21   13   20 ar  
    22   14   15 1   
    23   14   19 1   
    24   15   16 1   
    25   15   43 1   
    26   15   44 1   
    27   16   17 1   
    28   16   45 1   
    29   16   46 1   
    30   17   18 1   
    31   18   19 1   
    32   18   47 1   
    33   18   48 1   
    34   19   49 1   
    35   19   50 1   
    36   20   21 ar  
    37   20   51 1   
    38   21   22 ar  
    39   21   52 1   
    40   22   23 ar  
    41   22   24 1   
    42   23   53 1   
    43   24   25 1   
    44   24   33 2   
    45   25   26 ar  
    46   25   30 ar  
    47   26   27 ar  
    48   26   54 1   
    49   27   28 ar  
    50   27   55 1   
    51   28   29 ar  
    52   28   56 1   
    53   29   30 ar  
    54   29   57 1   
    55   30   31 1   
    56   31   32 1   
    57   31   34 2   
    58   32   33 1   
    59   32   36 1   
    60   34   35 1   
    61   35   36 2   
    62   36   37 1   
    63   37   58 1   
    64   37   59 1   
    65   37   60 1   
@<TRIPOS>SUBSTRUCTURE
     1 Y1Z         1 TEMP              0 ****  ****    0 ROOT
