@<TRIPOS>MOLECULE
Y1Z
   60    65     1     0     0
SMALL
bcc


@<TRIPOS>ATOM
      1 OBD         1.0270    0.1550    1.9440 o         1 Y1Z     -0.640300
      2 SBB         2.0700   -0.1770    1.0610 sy        1 Y1Z      1.508200
      3 OBC         3.1370   -0.9130    1.6140 o         1 Y1Z     -0.640300
      4 CBE         1.4570   -1.0750   -0.2490 ca        1 Y1Z     -0.369500
      5 CBF         2.0000   -2.3520   -0.4650 ca        1 Y1Z     -0.019000
      6 CBG         1.5270   -3.1840   -1.4740 ca        1 Y1Z     -0.153000
      7 CBH         0.4900   -2.7520   -2.3000 ca        1 Y1Z     -0.059000
      8 CBI        -0.0660   -1.4880   -2.1160 ca        1 Y1Z     -0.154000
      9 CBJ         0.4210   -0.6610   -1.0990 ca        1 Y1Z      0.129400
     10 Cl         -0.2790    0.8780   -0.9170 cl        1 Y1Z     -0.074400
     11 NAU         2.5890    1.2060    0.3700 nu        1 Y1Z     -0.764500
     12 CAS         3.7060    1.4360   -0.4410 ca        1 Y1Z      0.205600
     13 CAR         3.7890    2.6000   -1.2700 ca        1 Y1Z      0.053600
     14 NAV         2.7200    3.5590   -1.2440 nh        1 Y1Z     -0.627000
     15 CBA         2.0010    3.6330   -2.5130 c3        1 Y1Z      0.134800
     16 CAZ         0.8980    4.6980   -2.4920 c3        1 Y1Z      0.124900
     17 OAY         1.3950    5.9630   -2.0750 os        1 Y1Z     -0.412600
     18 CAX         2.0170    5.8990   -0.7970 c3        1 Y1Z      0.124900
     19 CAW         3.1550    4.8730   -0.7740 c3        1 Y1Z      0.134800
     20 CAQ         4.9270    2.7820   -2.0790 ca        1 Y1Z     -0.128000
     21 CAP         5.9650    1.8610   -2.0920 ca        1 Y1Z     -0.133000
     22 CAO         5.8910    0.7310   -1.2730 ca        1 Y1Z     -0.118500
     23 CAT         4.7890    0.5260   -0.4470 ca        1 Y1Z     -0.159000
     24 CAG         7.0010   -0.2470   -1.2680 cc        1 Y1Z      0.446800
     25 CAD         7.2800   -1.0000   -2.4950 ca        1 Y1Z     -0.142300
     26 CAC         6.5270   -0.8440   -3.6700 ca        1 Y1Z     -0.099000
     27 CAB         6.8350   -1.5860   -4.8020 ca        1 Y1Z     -0.127000
     28 CAA         7.8980   -2.4990   -4.7870 ca        1 Y1Z     -0.111000
     29 CAF         8.6560   -2.6750   -3.6380 ca        1 Y1Z     -0.098000
     30 CAE         8.3510   -1.9300   -2.4880 ca        1 Y1Z      0.022000
     31 CAJ         9.0910   -2.0720   -1.2570 cc        1 Y1Z     -0.102300
     32 NAI         8.6880   -1.2650   -0.1330 na        1 Y1Z      0.047300
     33 NAH         7.6890   -0.3890   -0.1380 nd        1 Y1Z     -0.431800
     34 NAM        10.1510   -2.8400   -0.8700 nd        1 Y1Z     -0.058000
     35 NAL        10.4330   -2.5800    0.3890 nd        1 Y1Z     -0.368700
     36 CAK         9.5880   -1.6350    0.9040 cc        1 Y1Z      0.375800
     37 CAN         9.5580   -1.0660    2.2670 c3        1 Y1Z     -0.102400
     38 H1          2.8220   -2.7020    0.1890 ha        1 Y1Z      0.172000
     39 H2          1.9700   -4.1810   -1.6170 ha        1 Y1Z      0.149000
     40 H3          0.1070   -3.4070   -3.0980 ha        1 Y1Z      0.144000
     41 H4         -0.8860   -1.1440   -2.7650 ha        1 Y1Z      0.155000
     42 H5          2.0070    2.0160    0.4710 hn        1 Y1Z      0.476800
     43 H6          2.6980    3.8560   -3.3730 h1        1 Y1Z      0.047700
     44 H7          1.5300    2.6270   -2.6960 h1        1 Y1Z      0.047700
     45 H8          0.5160    4.8750   -3.5320 h1        1 Y1Z      0.056950
     46 H9          0.0560    4.3840   -1.8210 h1        1 Y1Z      0.056950
     47 H10         2.4260    6.9300   -0.6320 h1        1 Y1Z      0.056950
     48 H11         1.2490    5.6600   -0.0150 h1        1 Y1Z      0.056950
     49 H12         3.5170    4.7530    0.2850 h1        1 Y1Z      0.047700
     50 H13         4.0100    5.2750   -1.3920 h1        1 Y1Z      0.047700
     51 H14         5.0000    3.6770   -2.7190 ha        1 Y1Z      0.142000
     52 H15         6.8440    2.0250   -2.7330 ha        1 Y1Z      0.147000
     53 H16         4.7830   -0.3550    0.2210 ha        1 Y1Z      0.179000
     54 H17         5.6900   -0.1290   -3.6860 ha        1 Y1Z      0.148000
     55 H18         6.2400   -1.4580   -5.7190 ha        1 Y1Z      0.139000
     56 H19         8.1320   -3.0790   -5.6930 ha        1 Y1Z      0.142000
     57 H20         9.4920   -3.3910   -3.6140 ha        1 Y1Z      0.164000
     58 H21        10.3620   -1.5270    2.8920 hc        1 Y1Z      0.069367
     59 H22         9.7180    0.0410    2.2240 hc        1 Y1Z      0.069367
     60 H23         8.5650   -1.2650    2.7440 hc        1 Y1Z      0.069367
@<TRIPOS>BOND
     1    1    2 2   
     2    2    3 2   
     3    2    4 1   
     4    2   11 1   
     5    4    5 ar  
     6    4    9 ar  
     7    5    6 ar  
     8    5   38 1   
     9    6    7 ar  
    10    6   39 1   
    11    7    8 ar  
    12    7   40 1   
    13    8    9 ar  
    14    8   41 1   
    15    9   10 1   
    16   11   12 1   
    17   11   42 1   
    18   12   13 ar  
    19   12   23 ar  
    20   13   14 1   
    21   13   20 ar  
    22   14   15 1   
    23   14   19 1   
    24   15   16 1   
    25   15   43 1   
    26   15   44 1   
    27   16   17 1   
    28   16   45 1   
    29   16   46 1   
    30   17   18 1   
    31   18   19 1   
    32   18   47 1   
    33   18   48 1   
    34   19   49 1   
    35   19   50 1   
    36   20   21 ar  
    37   20   51 1   
    38   21   22 ar  
    39   21   52 1   
    40   22   23 ar  
    41   22   24 1   
    42   23   53 1   
    43   24   25 1   
    44   24   33 2   
    45   25   26 ar  
    46   25   30 ar  
    47   26   27 ar  
    48   26   54 1   
    49   27   28 ar  
    50   27   55 1   
    51   28   29 ar  
    52   28   56 1   
    53   29   30 ar  
    54   29   57 1   
    55   30   31 1   
    56   31   32 1   
    57   31   34 2   
    58   32   33 1   
    59   32   36 1   
    60   34   35 1   
    61   35   36 2   
    62   36   37 1   
    63   37   58 1   
    64   37   59 1   
    65   37   60 1   
@<TRIPOS>SUBSTRUCTURE
     1 Y1Z         1 TEMP              0 ****  ****    0 ROOT
