@<TRIPOS>MOLECULE
Y1Z
   60    65     1     0     0
SMALL
bcc


@<TRIPOS>ATOM
      1 OBD         2.4890    1.2820    3.5710 o         1 Y1Z     -0.640300
      2 SBB         1.4650    1.0680    2.6320 sy        1 Y1Z      1.508200
      3 OBC         0.1890    0.7910    3.1610 o         1 Y1Z     -0.640300
      4 CBE         1.3120    2.4290    1.6210 ca        1 Y1Z     -0.369500
      5 CBF         0.0610    3.0660    1.5830 ca        1 Y1Z     -0.019000
      6 CBG        -0.1490    4.2180    0.8310 ca        1 Y1Z     -0.153000
      7 CBH         0.9000    4.7630    0.0900 ca        1 Y1Z     -0.059000
      8 CBI         2.1520    4.1510    0.1020 ca        1 Y1Z     -0.154000
      9 CBJ         2.3470    2.9920    0.8600 ca        1 Y1Z      0.129400
     10 CL          3.8880    2.2720    0.8370 cl        1 Y1Z     -0.074400
     11 NAU         1.9640   -0.1090    1.6200 nh        1 Y1Z     -0.764500
     12 CAS         1.2530   -0.7980    0.6300 ca        1 Y1Z      0.205600
     13 CAR         1.9350   -1.5050   -0.4120 ca        1 Y1Z      0.053600
     14 NAV         3.3710   -1.5300   -0.4200 nh        1 Y1Z     -0.627000
     15 CBA         3.9380   -0.8210   -1.5650 c3        1 Y1Z      0.134800
     16 CAZ         5.4690   -0.9000   -1.5950 c3        1 Y1Z      0.124900
     17 OAY         5.9290   -2.2430   -1.5040 os        1 Y1Z     -0.412600
     18 CAX         5.4420   -2.8980   -0.3380 c3        1 Y1Z      0.124900
     19 CAW         3.9100   -2.8800   -0.2790 c3        1 Y1Z      0.134800
     20 CAQ         1.1770   -2.1710   -1.3930 ca        1 Y1Z     -0.128000
     21 CAP        -0.2100   -2.1580   -1.3740 ca        1 Y1Z     -0.133000
     22 CAO        -0.8780   -1.4790   -0.3510 ca        1 Y1Z     -0.118500
     23 CAT        -0.1610   -0.8220    0.6460 ca        1 Y1Z     -0.159000
     24 CAG        -2.3560   -1.4740   -0.3140 cc        1 Y1Z      0.446800
     25 CAD        -3.0840   -0.8090   -1.4000 ca        1 Y1Z     -0.142300
     26 CAC        -2.4360   -0.1610   -2.4630 ca        1 Y1Z     -0.099000
     27 CAB        -3.1760    0.4550   -3.4630 ca        1 Y1Z     -0.127000
     28 CAA        -4.5770    0.4400   -3.4230 ca        1 Y1Z     -0.111000
     29 CAF        -5.2420   -0.1890   -2.3800 ca        1 Y1Z     -0.098000
     30 CAE        -4.5020   -0.8130   -1.3650 ca        1 Y1Z      0.022000
     31 CAJ        -5.1300   -1.4760   -0.2470 cc        1 Y1Z     -0.102300
     32 NAI        -4.2750   -2.0770    0.7460 na        1 Y1Z      0.047300
     33 NAH        -2.9460   -2.0790    0.7140 nd        1 Y1Z     -0.431800
     34 NAM        -6.4260   -1.6830    0.1280 nd        1 Y1Z     -0.058000
     35 NAL        -6.4440   -2.3550    1.2590 nd        1 Y1Z     -0.368700
     36 CAK        -5.1770   -2.6290    1.6970 cc        1 Y1Z      0.375800
     37 CAN        -4.7550   -3.3520    2.9150 c3        1 Y1Z     -0.102400
     38 H1         -0.7750    2.6410    2.1700 ha        1 Y1Z      0.172000
     39 H2         -1.1390    4.6970    0.8240 ha        1 Y1Z      0.149000
     40 H3          0.7440    5.6770   -0.5030 ha        1 Y1Z      0.144000
     41 H4          2.9830    4.5790   -0.4790 ha        1 Y1Z      0.155000
     42 H5          2.9360   -0.3530    1.6430 hn        1 Y1Z      0.476800
     43 H6          3.5400   -1.2250   -2.5410 h1        1 Y1Z      0.047700
     44 H7          3.6330    0.2590   -1.4820 h1        1 Y1Z      0.047700
     45 H8          5.8530   -0.5390   -2.5840 h1        1 Y1Z      0.056950
     46 H9          5.9140   -0.2930   -0.7630 h1        1 Y1Z      0.056950
     47 H10         5.8100   -3.9540   -0.4360 h1        1 Y1Z      0.056950
     48 H11         5.8820   -2.4190    0.5750 h1        1 Y1Z      0.056950
     49 H12         3.5800   -3.2760    0.7210 h1        1 Y1Z      0.047700
     50 H13         3.5140   -3.5730   -1.0770 h1        1 Y1Z      0.047700
     51 H14         1.6950   -2.7200   -2.1970 ha        1 Y1Z      0.142000
     52 H15        -0.7800   -2.6860   -2.1530 ha        1 Y1Z      0.147000
     53 H16        -0.7200   -0.3330    1.4670 ha        1 Y1Z      0.179000
     54 H17        -1.3350   -0.1460   -2.5000 ha        1 Y1Z      0.148000
     55 H18        -2.6610    0.9600   -4.2940 ha        1 Y1Z      0.139000
     56 H19        -5.1510    0.9320   -4.2230 ha        1 Y1Z      0.142000
     57 H20        -6.3430   -0.2050   -2.3370 ha        1 Y1Z      0.164000
     58 H21        -4.1540   -4.2530    2.6360 hc        1 Y1Z      0.069367
     59 H22        -4.1240   -2.6860    3.5560 hc        1 Y1Z      0.069367
     60 H23        -5.6530   -3.6760    3.4970 hc        1 Y1Z      0.069367
@<TRIPOS>BOND
     1    1    2 2   
     2    2    3 2   
     3    2    4 1   
     4    2   11 1   
     5    4    5 ar  
     6    4    9 ar  
     7    5    6 ar  
     8    5   38 1   
     9    6    7 ar  
    10    6   39 1   
    11    7    8 ar  
    12    7   40 1   
    13    8    9 ar  
    14    8   41 1   
    15    9   10 1   
    16   11   12 1   
    17   11   42 1   
    18   12   13 ar  
    19   12   23 ar  
    20   13   14 1   
    21   13   20 ar  
    22   14   15 1   
    23   14   19 1   
    24   15   16 1   
    25   15   43 1   
    26   15   44 1   
    27   16   17 1   
    28   16   45 1   
    29   16   46 1   
    30   17   18 1   
    31   18   19 1   
    32   18   47 1   
    33   18   48 1   
    34   19   49 1   
    35   19   50 1   
    36   20   21 ar  
    37   20   51 1   
    38   21   22 ar  
    39   21   52 1   
    40   22   23 ar  
    41   22   24 1   
    42   23   53 1   
    43   24   25 1   
    44   24   33 2   
    45   25   26 ar  
    46   25   30 ar  
    47   26   27 ar  
    48   26   54 1   
    49   27   28 ar  
    50   27   55 1   
    51   28   29 ar  
    52   28   56 1   
    53   29   30 ar  
    54   29   57 1   
    55   30   31 1   
    56   31   32 1   
    57   31   34 2   
    58   32   33 1   
    59   32   36 1   
    60   34   35 1   
    61   35   36 2   
    62   36   37 1   
    63   37   58 1   
    64   37   59 1   
    65   37   60 1   
@<TRIPOS>SUBSTRUCTURE
     1 Y1Z         1 TEMP              0 ****  ****    0 ROOT
