@<TRIPOS>MOLECULE
Y1Z
   61    66     1     0     0
SMALL
bcc


@<TRIPOS>ATOM
      1 OBD         0.3090    1.7170   -0.3980 o         1 Y1Z     -0.557800
      2 SBB         1.3750    0.9980    0.0990 sy        1 Y1Z      1.481200
      3 OBC         2.3140    1.5770    0.9260 o         1 Y1Z     -0.557800
      4 CBE         0.9990   -0.5210    0.5850 ca        1 Y1Z     -0.505500
      5 CBF         1.5370   -0.9500    1.8200 ca        1 Y1Z      0.005000
      6 CBG         1.1890   -2.1680    2.3880 ca        1 Y1Z     -0.142000
      7 CBH         0.2870   -3.0100    1.7320 ca        1 Y1Z     -0.004000
      8 CBI        -0.2440   -2.6320    0.4970 ca        1 Y1Z     -0.138000
      9 CBJ         0.1180   -1.4120   -0.0690 ca        1 Y1Z      0.127400
     10 CL         -0.5110   -1.0140   -1.5950 cl        1 Y1Z     -0.052400
     11 NAU         2.2640    0.4690   -1.5000 n4        1 Y1Z     -0.551300
     12 CAS         3.6120    0.9970   -1.6420 ca        1 Y1Z     -0.044400
     13 CAR         3.8200    2.4080   -1.6540 ca        1 Y1Z      0.139600
     14 NAV         2.6790    3.2500   -1.4720 nh        1 Y1Z     -0.677000
     15 CBA         2.1230    3.7430   -2.7360 c3        1 Y1Z      0.127800
     16 CAZ         0.8770    4.6100   -2.5010 c3        1 Y1Z      0.122400
     17 OAY         1.1620    5.6720   -1.6010 os        1 Y1Z     -0.393600
     18 CAX         1.6270    5.1950   -0.3440 c3        1 Y1Z      0.122400
     19 CAW         2.8880    4.3330   -0.5070 c3        1 Y1Z      0.127800
     20 CAQ         5.1380    2.8760   -1.7920 ca        1 Y1Z     -0.133000
     21 CAP         6.2090    1.9960   -1.9100 ca        1 Y1Z     -0.053000
     22 CAO         5.9920    0.6130   -1.9050 ca        1 Y1Z     -0.115500
     23 CAT         4.6960    0.1120   -1.7720 ca        1 Y1Z     -0.078000
     24 CAG         7.1300   -0.3230   -2.0160 cc        1 Y1Z      0.418800
     25 CAD         7.9590   -0.2940   -3.2220 ca        1 Y1Z     -0.148300
     26 CAC         7.7110    0.5670   -4.3030 ca        1 Y1Z     -0.113000
     27 CAB         8.5340    0.5430   -5.4210 ca        1 Y1Z     -0.113000
     28 CAA         9.6200   -0.3400   -5.4870 ca        1 Y1Z     -0.099000
     29 CAF         9.8840   -1.2070   -4.4340 ca        1 Y1Z     -0.087000
     30 CAE         9.0560   -1.1900   -3.3020 ca        1 Y1Z      0.024000
     31 CAJ         9.2710   -2.0710   -2.1790 cc        1 Y1Z     -0.091300
     32 NAI         8.3540   -1.9830   -1.0650 na        1 Y1Z      0.035300
     33 NAH         7.3300   -1.1480   -0.9890 nd        1 Y1Z     -0.435800
     34 NAM        10.1930   -3.0330   -1.8920 nd        1 Y1Z     -0.039000
     35 NAL         9.9320   -3.5410   -0.7040 nd        1 Y1Z     -0.345700
     36 CAK         8.8360   -2.9550   -0.1380 cc        1 Y1Z      0.376800
     37 CAN         8.2200   -3.2240    1.1770 c3        1 Y1Z     -0.102400
     38 H1          2.2480   -0.2900    2.3570 ha        1 Y1Z      0.181000
     39 H2          1.6200   -2.4670    3.3580 ha        1 Y1Z      0.177000
     40 H3         -0.0060   -3.9740    2.1850 ha        1 Y1Z      0.175000
     41 H4         -0.9520   -3.3000   -0.0260 ha        1 Y1Z      0.184000
     42 H5          2.3030   -0.5480   -1.5740 hn        1 Y1Z      0.453300
     43 H6          2.8840    4.3480   -3.3060 h1        1 Y1Z      0.058200
     44 H7          1.8370    2.8570   -3.3670 h1        1 Y1Z      0.058200
     45 H8          0.0310    3.9880   -2.1040 h1        1 Y1Z      0.071950
     46 H9          0.5800    5.1190   -3.4550 h1        1 Y1Z      0.071950
     47 H10         0.8130    4.6170    0.1680 h1        1 Y1Z      0.071950
     48 H11         1.8720    6.1230    0.2370 h1        1 Y1Z      0.071950
     49 H12         3.1450    3.8640    0.4840 h1        1 Y1Z      0.058200
     50 H13         3.7370    5.0060   -0.8190 h1        1 Y1Z      0.058200
     51 H14         5.3330    3.9630   -1.8030 ha        1 Y1Z      0.171000
     52 H15         7.2360    2.3890   -2.0090 ha        1 Y1Z      0.176000
     53 H16         4.5410   -0.9800   -1.7660 ha        1 Y1Z      0.159000
     54 H17         6.8590    1.2630   -4.2640 ha        1 Y1Z      0.132000
     55 H18         8.3340    1.2220   -6.2640 ha        1 Y1Z      0.149000
     56 H19        10.2660   -0.3460   -6.3790 ha        1 Y1Z      0.156000
     57 H20        10.7340   -1.9070   -4.4770 ha        1 Y1Z      0.175000
     58 H21         8.8000   -4.0180    1.7140 hc        1 Y1Z      0.069367
     59 H22         7.1650   -3.5710    1.0450 hc        1 Y1Z      0.069367
     60 H23         8.2200   -2.2930    1.7980 hc        1 Y1Z      0.069367
     61 HAU2        1.7080    0.8110   -2.2910 hn        1 Y1Z      0.453300
@<TRIPOS>BOND
     1    1    2 2   
     2    2    3 2   
     3    2    4 1   
     4    2   11 1   
     5    4    5 ar  
     6    4    9 ar  
     7    5    6 ar  
     8    5   38 1   
     9    6    7 ar  
    10    6   39 1   
    11    7    8 ar  
    12    7   40 1   
    13    8    9 ar  
    14    8   41 1   
    15    9   10 1   
    16   11   12 1   
    17   11   42 1   
    18   11   61 1   
    19   12   13 ar  
    20   12   23 ar  
    21   13   14 1   
    22   13   20 ar  
    23   14   15 1   
    24   14   19 1   
    25   15   16 1   
    26   15   43 1   
    27   15   44 1   
    28   16   17 1   
    29   16   45 1   
    30   16   46 1   
    31   17   18 1   
    32   18   19 1   
    33   18   47 1   
    34   18   48 1   
    35   19   49 1   
    36   19   50 1   
    37   20   21 ar  
    38   20   51 1   
    39   21   22 ar  
    40   21   52 1   
    41   22   23 ar  
    42   22   24 1   
    43   23   53 1   
    44   24   25 1   
    45   24   33 2   
    46   25   26 ar  
    47   25   30 ar  
    48   26   27 ar  
    49   26   54 1   
    50   27   28 ar  
    51   27   55 1   
    52   28   29 ar  
    53   28   56 1   
    54   29   30 ar  
    55   29   57 1   
    56   30   31 1   
    57   31   32 1   
    58   31   34 2   
    59   32   33 1   
    60   32   36 1   
    61   34   35 1   
    62   35   36 2   
    63   36   37 1   
    64   37   58 1   
    65   37   59 1   
    66   37   60 1   
@<TRIPOS>SUBSTRUCTURE
     1 Y1Z         1 TEMP              0 ****  ****    0 ROOT
