@<TRIPOS>MOLECULE
Y22
   39    41     1     0     0
SMALL
bcc


@<TRIPOS>ATOM
      1 F29         0.1300    0.1380    0.6720 f         1 Y22     -0.244300
      2 CAW         1.2460   -0.1020   -0.0950 c3        1 Y22      0.688200
      3 F27         2.0790   -0.7990    0.7490 f         1 Y22     -0.244300
      4 F28         0.8250   -1.0550   -0.9940 f         1 Y22     -0.244300
      5 CAV         1.8710    1.1330   -0.7230 ca        1 Y22     -0.181300
      6 CAU         1.7240    2.3790   -0.1140 ca        1 Y22     -0.084000
      7 CAT         2.3050    3.5090   -0.6910 ca        1 Y22     -0.126500
      8 CAS         3.0420    3.3940   -1.8750 ca        1 Y22     -0.047300
      9 CAZ         3.1880    2.1350   -2.4760 ca        1 Y22     -0.126500
     10 CAY         2.6040    1.0080   -1.9060 ca        1 Y22     -0.084000
     11 CAR         3.6520    4.5800   -2.5670 c3        1 Y22      0.243100
     12 NAQ         3.9900    5.6700   -1.6890 nh        1 Y22     -0.845900
     13 CAP         4.5840    6.8190   -2.1990 ca        1 Y22      0.569900
     14 NAO         4.6290    7.0520   -3.5230 nb        1 Y22     -0.767000
     15 CAN         5.1710    8.2590   -3.9290 ca        1 Y22      0.316300
     16 CAM         5.2280    8.5690   -5.3180 ca        1 Y22     -0.126300
     17 CAH         5.7790    9.7630   -5.7320 ca        1 Y22     -0.174300
     18 CAI         5.8280   10.1080   -7.2120 c3        1 Y22      0.688200
     19 FAK         4.7990   10.9110   -7.6490 f         1 Y22     -0.248633
     20 FAJ         6.9550   10.7890   -7.6100 f         1 Y22     -0.248633
     21 FAL         5.7820    9.0320   -8.0690 f         1 Y22     -0.248633
     22 CAG         6.2910   10.6950   -4.8070 ca        1 Y22     -0.133000
     23 CAF         6.2490   10.4250   -3.4580 ca        1 Y22     -0.144300
     24 CAE         5.6890    9.2060   -2.9840 ca        1 Y22      0.276300
     25 NAD         5.6490    8.9440   -1.6160 nb        1 Y22     -0.624000
     26 CAC         5.1170    7.8150   -1.2160 ca        1 Y22      0.289500
     27 CAB         5.0290    7.4570    0.2950 c         1 Y22      0.827100
     28 OAA         5.5430    6.3500    0.6170 o         1 Y22     -0.790800
     29 OBA         4.4250    8.2510    1.0470 o         1 Y22     -0.790800
     30 H1          1.1480    2.4710    0.8210 ha        1 Y22      0.145000
     31 H2          2.1770    4.4880   -0.2000 ha        1 Y22      0.155500
     32 H3          3.7710    2.0370   -3.4040 ha        1 Y22      0.155500
     33 H4          2.7150    0.0210   -2.3810 ha        1 Y22      0.145000
     34 H5          2.9000    4.9540   -3.3260 h1        1 Y22      0.057200
     35 H6          4.5600    4.2310   -3.1460 h1        1 Y22      0.057200
     36 H7          4.3070    5.4180   -0.7650 hn        1 Y22      0.475800
     37 H8          4.8340    7.8480   -6.0530 ha        1 Y22      0.151000
     38 H9          6.7270   11.6350   -5.1780 ha        1 Y22      0.135000
     39 H10         6.6460   11.1500   -2.7310 ha        1 Y22      0.150000
@<TRIPOS>BOND
     1    1    2 1   
     2    2    3 1   
     3    2    4 1   
     4    2    5 1   
     5    5    6 ar  
     6    5   10 ar  
     7    6    7 ar  
     8    6   30 1   
     9    7    8 ar  
    10    7   31 1   
    11    8    9 ar  
    12    8   11 1   
    13    9   10 ar  
    14    9   32 1   
    15   10   33 1   
    16   11   12 1   
    17   11   34 1   
    18   11   35 1   
    19   12   13 1   
    20   12   36 1   
    21   13   14 ar  
    22   13   26 ar  
    23   14   15 ar  
    24   15   16 ar  
    25   15   24 ar  
    26   16   17 ar  
    27   16   37 1   
    28   17   18 1   
    29   17   22 ar  
    30   18   19 1   
    31   18   20 1   
    32   18   21 1   
    33   22   23 ar  
    34   22   38 1   
    35   23   24 ar  
    36   23   39 1   
    37   24   25 ar  
    38   25   26 ar  
    39   26   27 1   
    40   27   28 1   
    41   27   29 1   
@<TRIPOS>SUBSTRUCTURE
     1 Y22         1 TEMP              0 ****  ****    0 ROOT
