@<TRIPOS>MOLECULE
Y22
   39    41     1     0     0
SMALL
bcc


@<TRIPOS>ATOM
      1 F29         0.1420    0.1420    0.6940 f         1 Y22     -0.244300
      2 CAW         1.2460   -0.1000   -0.0890 c3        1 Y22      0.688200
      3 F27         2.0860   -0.8060    0.7400 f         1 Y22     -0.244300
      4 F28         0.8080   -1.0450   -0.9870 f         1 Y22     -0.244300
      5 CAV         1.8700    1.1350   -0.7190 ca        1 Y22     -0.181300
      6 CAU         1.7380    2.3790   -0.1010 ca        1 Y22     -0.084000
      7 CAT         2.3180    3.5080   -0.6800 ca        1 Y22     -0.126500
      8 CAS         3.0380    3.3960   -1.8740 ca        1 Y22     -0.047300
      9 CAZ         3.1700    2.1390   -2.4830 ca        1 Y22     -0.126500
     10 CAY         2.5870    1.0120   -1.9120 ca        1 Y22     -0.084000
     11 CAR         3.6460    4.5820   -2.5680 c3        1 Y22      0.243100
     12 NAQ         4.0020    5.6650   -1.6890 nu        1 Y22     -0.845900
     13 CAP         4.5950    6.8140   -2.2000 ca        1 Y22      0.569900
     14 NAO         4.6240    7.0540   -3.5240 nb        1 Y22     -0.767000
     15 CAN         5.1670    8.2600   -3.9300 ca        1 Y22      0.316300
     16 CAM         5.2070    8.5770   -5.3190 ca        1 Y22     -0.126300
     17 CAH         5.7580    9.7710   -5.7340 ca        1 Y22     -0.174300
     18 CAI         5.7900   10.1230   -7.2120 c3        1 Y22      0.688200
     19 FAK         4.7610   10.9360   -7.6300 f         1 Y22     -0.248633
     20 FAJ         6.9160   10.7990   -7.6220 f         1 Y22     -0.248633
     21 FAL         5.7240    9.0530   -8.0740 f         1 Y22     -0.248633
     22 CAG         6.2890   10.6950   -4.8100 ca        1 Y22     -0.133000
     23 CAF         6.2630   10.4170   -3.4620 ca        1 Y22     -0.144300
     24 CAE         5.7030    9.1990   -2.9870 ca        1 Y22      0.276300
     25 NAD         5.6790    8.9290   -1.6200 nb        1 Y22     -0.624000
     26 CAC         5.1470    7.8020   -1.2190 ca        1 Y22      0.289500
     27 CAB         5.0780    7.4360    0.2910 c         1 Y22      0.827100
     28 OAA         5.5900    6.3240    0.6000 o         1 Y22     -0.790800
     29 OBA         4.4890    8.2290    1.0550 o         1 Y22     -0.790800
     30 H1          1.1750    2.4690    0.8410 ha        1 Y22      0.145000
     31 H2          2.2020    4.4850   -0.1820 ha        1 Y22      0.155500
     32 H3          3.7400    2.0430   -3.4200 ha        1 Y22      0.155500
     33 H4          2.6860    0.0280   -2.3940 ha        1 Y22      0.145000
     34 H5          4.5440    4.2310   -3.1610 h1        1 Y22      0.057200
     35 H6          2.8860    4.9640   -3.3150 h1        1 Y22      0.057200
     36 H7          4.3300    5.4060   -0.7700 hn        1 Y22      0.475800
     37 H8          4.7990    7.8630   -6.0520 ha        1 Y22      0.151000
     38 H9          6.7240   11.6340   -5.1820 ha        1 Y22      0.135000
     39 H10         6.6740   11.1360   -2.7360 ha        1 Y22      0.150000
@<TRIPOS>BOND
     1    1    2 1   
     2    2    3 1   
     3    2    4 1   
     4    2    5 1   
     5    5    6 ar  
     6    5   10 ar  
     7    6    7 ar  
     8    6   30 1   
     9    7    8 ar  
    10    7   31 1   
    11    8    9 ar  
    12    8   11 1   
    13    9   10 ar  
    14    9   32 1   
    15   10   33 1   
    16   11   12 1   
    17   11   34 1   
    18   11   35 1   
    19   12   13 1   
    20   12   36 1   
    21   13   14 ar  
    22   13   26 ar  
    23   14   15 ar  
    24   15   16 ar  
    25   15   24 ar  
    26   16   17 ar  
    27   16   37 1   
    28   17   18 1   
    29   17   22 ar  
    30   18   19 1   
    31   18   20 1   
    32   18   21 1   
    33   22   23 ar  
    34   22   38 1   
    35   23   24 ar  
    36   23   39 1   
    37   24   25 ar  
    38   25   26 ar  
    39   26   27 1   
    40   27   28 1   
    41   27   29 1   
@<TRIPOS>SUBSTRUCTURE
     1 Y22         1 TEMP              0 ****  ****    0 ROOT
