@<TRIPOS>MOLECULE
Y27
   39    37     1     0     0
SMALL
bcc


@<TRIPOS>ATOM
      1 O23        -1.7620   -0.2970   -1.5690 o         1 Y27     -0.339000
      2 C22        -0.5690   -0.0730   -1.6030 c1        1 Y27      0.312000
      3 C31         0.2200   -0.0010   -0.3210 c2        1 Y27     -0.122000
      4 C36        -0.2520    1.1740    0.5730 c3        1 Y27     -0.152000
      5 C35         0.4420    1.2130    1.9190 c3        1 Y27     -0.152000
      6 C34         0.3620   -0.0960    2.6580 c3        1 Y27     -0.097000
      7 C33         0.8090   -1.2640    1.8360 c3        1 Y27     -0.152000
      8 C32         0.1210   -1.3370    0.4940 c3        1 Y27     -0.152000
      9 C41         1.2550   -0.0070    3.9190 c3        1 Y27     -0.032000
     10 C42         0.4470    0.5180    5.0670 c3        1 Y27     -0.253000
     11 N43         1.7470   -1.2890    4.2380 n3        1 Y27     -0.337000
     12 N21         0.0700    0.1860   -2.8440 n3        1 Y27     -0.329000
     13 C14        -0.6870    0.1840   -4.0450 c2        1 Y27      0.116000
     14 C15        -0.9730    1.3620   -4.6730 c2        1 Y27     -0.244000
     15 C16        -1.6410    1.3550   -5.8880 c1        1 Y27     -0.049000
     16 N11        -2.0120    0.1730   -6.4550 n1        1 Y27     -0.159000
     17 C12        -1.7280   -1.0030   -5.8300 c1        1 Y27     -0.051000
     18 C13        -1.0600   -0.9990   -4.6150 c1        1 Y27     -0.210000
     19 H31         1.1250    0.1470   -0.6600 ha        1 Y27      0.105000
     20 H361       -1.2150    1.0900    0.7190 hc        1 Y27      0.093500
     21 H362       -0.0760    2.0150    0.1050 hc        1 Y27      0.093500
     22 H351        1.3840    1.4390    1.7800 hc        1 Y27      0.088500
     23 H352        0.0280    1.9090    2.4660 hc        1 Y27      0.088500
     24 H34        -0.5610   -0.2430    2.9360 hc        1 Y27      0.089000
     25 H331        1.7750   -1.1960    1.6910 hc        1 Y27      0.088500
     26 H332        0.6220   -2.0870    2.3310 hc        1 Y27      0.088500
     27 H321        0.5290   -2.0550   -0.0300 hc        1 Y27      0.093500
     28 H322       -0.8230   -1.5480    0.6360 hc        1 Y27      0.093500
     29 H41         2.0050    0.5950    3.7460 h1        1 Y27      0.097000
     30 H421       -0.3470   -0.0430    5.1920 hc        1 Y27      0.076667
     31 H422        0.9900    0.5020    5.8830 hc        1 Y27      0.076667
     32 H423        0.1690    1.4390    4.8780 hc        1 Y27      0.076667
     33 H431        1.3860   -1.5650    5.0330 hn        1 Y27      0.142000
     34 H432        2.6590   -1.2560    4.3110 hn        1 Y27      0.142000
     35 H21         0.9680    0.3420   -2.8700 hn        1 Y27      0.231000
     36 H15        -0.7070    2.2090   -4.2670 ha        1 Y27      0.138000
     37 H16        -1.8460    2.1980   -6.3370 ha        1 Y27      0.157000
     38 H12        -1.9940   -1.8490   -6.2370 ha        1 Y27      0.161000
     39 H13        -0.8560   -1.8420   -4.1670 ha        1 Y27      0.182000
@<TRIPOS>BOND
     1    1    2 1   
     2    2   12 1   
     3    3    4 1   
     4    3    8 1   
     5    3   19 1   
     6    4    5 1   
     7    4   20 1   
     8    4   21 1   
     9    5    6 1   
    10    5   22 1   
    11    5   23 1   
    12    6    7 1   
    13    6    9 1   
    14    6   24 1   
    15    7    8 1   
    16    7   25 1   
    17    7   26 1   
    18    8   27 1   
    19    8   28 1   
    20    9   10 1   
    21    9   11 1   
    22    9   29 1   
    23   10   30 1   
    24   10   31 1   
    25   10   32 1   
    26   11   33 1   
    27   11   34 1   
    28   12   13 1   
    29   12   35 1   
    30   13   14 1   
    31   13   18 1   
    32   14   15 1   
    33   14   36 1   
    34   15   37 1   
    35   16   17 1   
    36   17   38 1   
    37   18   39 1   
@<TRIPOS>SUBSTRUCTURE
     1 Y27         1 TEMP              0 ****  ****    0 ROOT
