@<TRIPOS>MOLECULE
Y27
   40    41     1     0     0
SMALL
bcc


@<TRIPOS>ATOM
      1 O23         0.5840   -1.6130   -0.0590 o         1 Y27     -0.578100
      2 C22         1.3840   -0.6620   -0.1100 c         1 Y27      0.666100
      3 C31         2.2360   -0.3280    1.1250 c3        1 Y27     -0.136700
      4 C36         1.2890    0.0550    2.2550 c3        1 Y27     -0.078900
      5 C35         2.0170    0.1880    3.5770 c3        1 Y27     -0.082900
      6 C34         2.7560   -1.1040    3.8980 c3        1 Y27     -0.103700
      7 C33         3.7690   -1.4010    2.8020 c3        1 Y27     -0.082900
      8 C32         3.0580   -1.5620    1.4730 c3        1 Y27     -0.078900
      9 C41         3.3530   -1.0790    5.3130 c3        1 Y27      0.130500
     10 C42         3.7620   -2.4690    5.7770 c3        1 Y27     -0.138100
     11 N43         4.5140   -0.1220    5.4100 n4        1 Y27     -0.843600
     12 N21         1.5640    0.1360   -1.2240 n         1 Y27     -0.460100
     13 C14         0.9040    0.0270   -2.4600 ca        1 Y27      0.087600
     14 C15        -0.0730   -0.9490   -2.7430 ca        1 Y27     -0.284300
     15 C16        -0.6620   -0.9550   -4.0200 ca        1 Y27      0.421200
     16 N11        -0.3550   -0.0870   -5.0010 nb        1 Y27     -0.666000
     17 C12         0.5810    0.8420   -4.7210 ca        1 Y27      0.421200
     18 C13         1.2360    0.9470   -3.4870 ca        1 Y27     -0.284300
     19 H31         2.9350    0.5300    0.9310 hc        1 Y27      0.056700
     20 H361        0.4850   -0.7260    2.3400 hc        1 Y27      0.079700
     21 H362        0.7880    1.0280    2.0100 hc        1 Y27      0.079700
     22 H351        1.2730    0.4180    4.3840 hc        1 Y27      0.041450
     23 H352        2.7370    1.0460    3.5180 hc        1 Y27      0.041450
     24 H34         1.9980   -1.9440    3.9090 hc        1 Y27      0.114700
     25 H331        4.3300   -2.3430    3.0350 hc        1 Y27      0.041450
     26 H332        4.5130   -0.5650    2.7150 hc        1 Y27      0.041450
     27 H321        2.3790   -2.4580    1.5090 hc        1 Y27      0.079700
     28 H322        3.8170   -1.7470    0.6680 hc        1 Y27      0.079700
     29 H41         2.5640   -0.6740    6.0210 hx        1 Y27      0.109700
     30 H421        4.1440   -2.4530    6.8280 hc        1 Y27      0.082367
     31 H422        2.8570   -3.1290    5.7510 hc        1 Y27      0.082367
     32 H423        4.5390   -2.9190    5.1120 hc        1 Y27      0.082367
     33 H431        4.2180    0.8080    5.0980 hn        1 Y27      0.458467
     34 H432        5.2780   -0.4470    4.8080 hn        1 Y27      0.458467
     35 H21         2.2310    0.8740   -1.1620 hn        1 Y27      0.319500
     36 H15        -0.3840   -1.6970   -1.9990 ha        1 Y27      0.159500
     37 H16        -1.4320   -1.7090   -4.2690 h4        1 Y27      0.032100
     38 H12         0.8190    1.5460   -5.5400 h4        1 Y27      0.032100
     39 H13         1.9880    1.7330   -3.3370 ha        1 Y27      0.159500
     40 H433        4.8470   -0.0730    6.3760 hn        1 Y27      0.458467
@<TRIPOS>BOND
     1    1    2 2   
     2    2    3 1   
     3    2   12 1   
     4    3    4 1   
     5    3    8 1   
     6    3   19 1   
     7    4    5 1   
     8    4   20 1   
     9    4   21 1   
    10    5    6 1   
    11    5   22 1   
    12    5   23 1   
    13    6    7 1   
    14    6    9 1   
    15    6   24 1   
    16    7    8 1   
    17    7   25 1   
    18    7   26 1   
    19    8   27 1   
    20    8   28 1   
    21    9   10 1   
    22    9   11 1   
    23    9   29 1   
    24   10   30 1   
    25   10   31 1   
    26   10   32 1   
    27   11   33 1   
    28   11   34 1   
    29   11   40 1   
    30   12   13 1   
    31   12   35 1   
    32   13   14 ar  
    33   13   18 ar  
    34   14   15 ar  
    35   14   36 1   
    36   15   16 ar  
    37   15   37 1   
    38   16   17 ar  
    39   17   18 ar  
    40   17   38 1   
    41   18   39 1   
@<TRIPOS>SUBSTRUCTURE
     1 Y27         1 TEMP              0 ****  ****    0 ROOT
