@<TRIPOS>MOLECULE
Y27
   41    42     1     0     0
SMALL
bcc


@<TRIPOS>ATOM
      1 O23         0.7600   -2.8710   -0.2190 o         1 Y27     -0.384100
      2 C22         1.5380   -1.9380   -0.3170 c         1 Y27      0.546100
      3 C31         2.1230   -1.1000    0.8010 c3        1 Y27     -0.122700
      4 C36         1.0210   -0.8390    1.8270 c3        1 Y27     -0.082900
      5 C35         1.5700   -0.1950    3.0850 c3        1 Y27     -0.084900
      6 C34         2.6670   -1.0650    3.6830 c3        1 Y27     -0.105700
      7 C33         3.7990   -1.2000    2.6770 c3        1 Y27     -0.084900
      8 C32         3.2930   -1.8700    1.4120 c3        1 Y27     -0.082900
      9 C41         3.0970   -0.5850    5.0770 c3        1 Y27      0.132500
     10 C42         3.9260   -1.6380    5.8000 c3        1 Y27     -0.141100
     11 N43         3.8330    0.7300    5.0390 n4        1 Y27     -0.843600
     12 N21         1.9820   -1.6170   -1.7350 n4        1 Y27     -0.552200
     13 C14         1.2630   -0.4620   -2.2850 ca        1 Y27     -0.018400
     14 C15        -0.0900   -0.5850   -2.6410 ca        1 Y27     -0.233800
     15 C16        -0.7220    0.5490   -3.1960 ca        1 Y27      0.444200
     16 N11        -0.0990    1.7230   -3.3990 nb        1 Y27     -0.591000
     17 C12         1.2000    1.8150   -3.0580 ca        1 Y27      0.444200
     18 C13         1.9360    0.7540   -2.4940 ca        1 Y27     -0.233800
     19 H31         2.4910   -0.1130    0.4030 hc        1 Y27      0.090700
     20 H361        0.2420   -0.1660    1.3780 hc        1 Y27      0.082950
     21 H362        0.5170   -1.8100    2.0910 hc        1 Y27      0.082950
     22 H351        1.9670    0.8250    2.8400 hc        1 Y27      0.061450
     23 H352        0.7280   -0.0710    3.8170 hc        1 Y27      0.061450
     24 H34         2.2330   -2.0960    3.8620 hc        1 Y27      0.114700
     25 H331        4.2200   -0.1930    2.4180 hc        1 Y27      0.061450
     26 H332        4.6300   -1.8240    3.1030 hc        1 Y27      0.061450
     27 H321        2.9680   -2.9180    1.6530 hc        1 Y27      0.082950
     28 H322        4.1340   -1.9330    0.6720 hc        1 Y27      0.082950
     29 H41         2.1550   -0.3880    5.6810 hx        1 Y27      0.120700
     30 H421        3.3210   -2.5790    5.8730 hc        1 Y27      0.089033
     31 H422        4.8730   -1.8730    5.2570 hc        1 Y27      0.089033
     32 H423        4.1750   -1.3170    6.8430 hc        1 Y27      0.089033
     33 H431        4.7130    0.6250    4.5250 hn        1 Y27      0.462800
     34 H432        4.0450    1.0300    5.9980 hn        1 Y27      0.462800
     35 H21         2.9910   -1.4280   -1.7450 hn        1 Y27      0.471800
     36 H15        -0.6580   -1.5200   -2.5110 ha        1 Y27      0.172500
     37 H16        -1.7890    0.5030   -3.5000 h4        1 Y27      0.074100
     38 H12         1.6850    2.7940   -3.2550 h4        1 Y27      0.074100
     39 H13         3.0010    0.8960   -2.2560 ha        1 Y27      0.172500
     40 H433        3.2570    1.4420    4.5800 hn        1 Y27      0.462800
     41 H212        1.7880   -2.4340   -2.3390 hn        1 Y27      0.471800
@<TRIPOS>BOND
     1    1    2 2   
     2    2    3 1   
     3    2   12 1   
     4    3    4 1   
     5    3    8 1   
     6    3   19 1   
     7    4    5 1   
     8    4   20 1   
     9    4   21 1   
    10    5    6 1   
    11    5   22 1   
    12    5   23 1   
    13    6    7 1   
    14    6    9 1   
    15    6   24 1   
    16    7    8 1   
    17    7   25 1   
    18    7   26 1   
    19    8   27 1   
    20    8   28 1   
    21    9   10 1   
    22    9   11 1   
    23    9   29 1   
    24   10   30 1   
    25   10   31 1   
    26   10   32 1   
    27   11   33 1   
    28   11   34 1   
    29   11   40 1   
    30   12   13 1   
    31   12   35 1   
    32   12   41 1   
    33   13   14 ar  
    34   13   18 ar  
    35   14   15 ar  
    36   14   36 1   
    37   15   16 ar  
    38   15   37 1   
    39   16   17 ar  
    40   17   18 ar  
    41   17   38 1   
    42   18   39 1   
@<TRIPOS>SUBSTRUCTURE
     1 Y27         1 TEMP              0 ****  ****    0 ROOT
