@<TRIPOS>MOLECULE
Y27
   40    41     1     0     0
SMALL
bcc


@<TRIPOS>ATOM
      1 O23         0.5800   -1.6100   -0.0560 o         1 Y27     -0.578100
      2 C22         1.3820   -0.6610   -0.1090 c         1 Y27      0.666100
      3 C31         2.2360   -0.3290    1.1250 c3        1 Y27     -0.136700
      4 C36         1.2920    0.0590    2.2550 c3        1 Y27     -0.078900
      5 C35         2.0230    0.1910    3.5760 c3        1 Y27     -0.082900
      6 C34         2.7590   -1.1030    3.8980 c3        1 Y27     -0.103700
      7 C33         3.7690   -1.4040    2.8010 c3        1 Y27     -0.082900
      8 C32         3.0550   -1.5640    1.4730 c3        1 Y27     -0.078900
      9 C41         3.3570   -1.0790    5.3120 c3        1 Y27      0.130500
     10 C42         3.7620   -2.4690    5.7770 c3        1 Y27     -0.138100
     11 N43         4.5210   -0.1250    5.4070 nz        1 Y27     -0.843600
     12 N21         1.5630    0.1360   -1.2240 ns        1 Y27     -0.460100
     13 C14         0.9010    0.0270   -2.4590 ca        1 Y27      0.087600
     14 C15        -0.0780   -0.9470   -2.7410 ca        1 Y27     -0.284300
     15 C16        -0.6680   -0.9530   -4.0170 ca        1 Y27      0.421200
     16 N11        -0.3620   -0.0850   -4.9980 nb        1 Y27     -0.666000
     17 C12         0.5750    0.8430   -4.7190 ca        1 Y27      0.421200
     18 C13         1.2320    0.9480   -3.4860 ca        1 Y27     -0.284300
     19 H31         2.9380    0.5280    0.9280 hc        1 Y27      0.056700
     20 H361        0.7930    1.0330    2.0100 hc        1 Y27      0.079700
     21 H362        0.4860   -0.7200    2.3420 hc        1 Y27      0.079700
     22 H351        1.2800    0.4230    4.3840 hc        1 Y27      0.041450
     23 H352        2.7450    1.0470    3.5160 hc        1 Y27      0.041450
     24 H34         1.9980   -1.9410    3.9100 hc        1 Y27      0.114700
     25 H331        4.3270   -2.3480    3.0340 hc        1 Y27      0.041450
     26 H332        4.5150   -0.5700    2.7120 hc        1 Y27      0.041450
     27 H321        2.3740   -2.4580    1.5100 hc        1 Y27      0.079700
     28 H322        3.8120   -1.7520    0.6670 hc        1 Y27      0.079700
     29 H41         2.5700   -0.6700    6.0210 hx        1 Y27      0.109700
     30 H421        4.5370   -2.9220    5.1120 hc        1 Y27      0.082367
     31 H422        4.1460   -2.4530    6.8270 hc        1 Y27      0.082367
     32 H423        2.8550   -3.1260    5.7530 hc        1 Y27      0.082367
     33 H431        5.2830   -0.4530    4.8040 hn        1 Y27      0.458467
     34 H432        4.8550   -0.0760    6.3720 hn        1 Y27      0.458467
     35 H21         2.2310    0.8720   -1.1630 hn        1 Y27      0.319500
     36 H15        -0.3880   -1.6950   -1.9960 ha        1 Y27      0.159500
     37 H16        -1.4390   -1.7060   -4.2650 h4        1 Y27      0.032100
     38 H12         0.8120    1.5470   -5.5390 h4        1 Y27      0.032100
     39 H13         1.9850    1.7330   -3.3370 ha        1 Y27      0.159500
     40 H433        4.2280    0.8060    5.0940 hn        1 Y27      0.458467
@<TRIPOS>BOND
     1    1    2 2   
     2    2    3 1   
     3    2   12 1   
     4    3    4 1   
     5    3    8 1   
     6    3   19 1   
     7    4    5 1   
     8    4   20 1   
     9    4   21 1   
    10    5    6 1   
    11    5   22 1   
    12    5   23 1   
    13    6    7 1   
    14    6    9 1   
    15    6   24 1   
    16    7    8 1   
    17    7   25 1   
    18    7   26 1   
    19    8   27 1   
    20    8   28 1   
    21    9   10 1   
    22    9   11 1   
    23    9   29 1   
    24   10   30 1   
    25   10   31 1   
    26   10   32 1   
    27   11   33 1   
    28   11   34 1   
    29   11   40 1   
    30   12   13 1   
    31   12   35 1   
    32   13   14 ar  
    33   13   18 ar  
    34   14   15 ar  
    35   14   36 1   
    36   15   16 ar  
    37   15   37 1   
    38   16   17 ar  
    39   17   18 ar  
    40   17   38 1   
    41   18   39 1   
@<TRIPOS>SUBSTRUCTURE
     1 Y27         1 TEMP              0 ****  ****    0 ROOT
