@<TRIPOS>MOLECULE
Y27
   39    40     1     0     0
SMALL
bcc


@<TRIPOS>ATOM
      1 O23        -1.6480   -0.7230   -1.0770 o         1 Y27     -0.577100
      2 C22        -0.6420   -0.0540   -0.7880 c         1 Y27      0.668100
      3 C31        -0.3330    0.3550    0.6530 c3        1 Y27     -0.132700
      4 C36        -1.5780    0.1850    1.5110 c3        1 Y27     -0.072400
      5 C35        -1.2860    0.5090    2.9620 c3        1 Y27     -0.074900
      6 C34        -0.1510   -0.3520    3.4950 c3        1 Y27     -0.108700
      7 C33         1.0930   -0.1510    2.6440 c3        1 Y27     -0.074900
      8 C32         0.8160   -0.4870    1.1920 c3        1 Y27     -0.072400
      9 C41         0.0960   -0.0770    4.9960 c3        1 Y27      0.166500
     10 C42         0.8790   -1.2440    5.5990 c3        1 Y27     -0.091100
     11 N43         0.7000    1.2010    5.3160 n3        1 Y27     -0.899800
     12 N21         0.2760    0.3750   -1.7430 n         1 Y27     -0.475100
     13 C14         0.2450    0.1420   -3.1220 ca        1 Y27      0.107600
     14 C15        -0.7860   -0.5680   -3.7760 ca        1 Y27     -0.291300
     15 C16        -0.7070   -0.7340   -5.1680 ca        1 Y27      0.415700
     16 N11         0.2910   -0.2600   -5.9360 nb        1 Y27     -0.684000
     17 C12         1.2710    0.4160   -5.3050 ca        1 Y27      0.415700
     18 C13         1.3030    0.6450   -3.9240 ca        1 Y27     -0.291300
     19 H31        -0.0330    1.4410    0.6750 hc        1 Y27      0.063700
     20 H361       -1.9490   -0.8700    1.4190 hc        1 Y27      0.056200
     21 H362       -2.3890    0.8560    1.1250 hc        1 Y27      0.056200
     22 H351       -2.2110    0.3320    3.5710 hc        1 Y27      0.042950
     23 H352       -1.0220    1.5950    3.0570 hc        1 Y27      0.042950
     24 H34        -0.4640   -1.4320    3.4050 hc        1 Y27      0.060700
     25 H331        1.4410    0.9130    2.7130 hc        1 Y27      0.042950
     26 H332        1.9210   -0.8050    3.0240 hc        1 Y27      0.042950
     27 H321        0.5540   -1.5740    1.0990 hc        1 Y27      0.056200
     28 H322        1.7420   -0.3070    0.5870 hc        1 Y27      0.056200
     29 H41        -0.9250   -0.0660    5.4910 h1        1 Y27      0.059700
     30 H421        1.8930   -1.3320    5.1400 hc        1 Y27      0.040033
     31 H422        0.3220   -2.1950    5.4210 hc        1 Y27      0.040033
     32 H423        1.0000   -1.1040    6.7010 hc        1 Y27      0.040033
     33 H431        1.6630    1.2180    5.0400 hn        1 Y27      0.345300
     34 H432        0.2150    1.9400    4.8460 hn        1 Y27      0.345300
     35 H21         1.0620    0.8900   -1.4130 hn        1 Y27      0.317500
     36 H15        -1.6390   -0.9890   -3.2240 ha        1 Y27      0.160000
     37 H16        -1.5030   -1.2860   -5.7030 h4        1 Y27      0.022600
     38 H12         2.0830    0.7990   -5.9510 h4        1 Y27      0.022600
     39 H13         2.1380    1.2070   -3.4860 ha        1 Y27      0.160000
@<TRIPOS>BOND
     1    1    2 2   
     2    2    3 1   
     3    2   12 1   
     4    3    4 1   
     5    3    8 1   
     6    3   19 1   
     7    4    5 1   
     8    4   20 1   
     9    4   21 1   
    10    5    6 1   
    11    5   22 1   
    12    5   23 1   
    13    6    7 1   
    14    6    9 1   
    15    6   24 1   
    16    7    8 1   
    17    7   25 1   
    18    7   26 1   
    19    8   27 1   
    20    8   28 1   
    21    9   10 1   
    22    9   11 1   
    23    9   29 1   
    24   10   30 1   
    25   10   31 1   
    26   10   32 1   
    27   11   33 1   
    28   11   34 1   
    29   12   13 1   
    30   12   35 1   
    31   13   14 ar  
    32   13   18 ar  
    33   14   15 ar  
    34   14   36 1   
    35   15   16 ar  
    36   15   37 1   
    37   16   17 ar  
    38   17   18 ar  
    39   17   38 1   
    40   18   39 1   
@<TRIPOS>SUBSTRUCTURE
     1 Y27         1 TEMP              0 ****  ****    0 ROOT
