@<TRIPOS>MOLECULE
Y28
   40    36     1     0     0
SMALL
bcc


@<TRIPOS>ATOM
      1 CAD         4.9870   -0.8410   -1.6650 c1        1 Y28     -0.136000
      2 CAF         6.3530   -1.0680   -1.7230 c1        1 Y28     -0.131500
      3 CAH         7.2380   -0.0810   -1.3200 c1        1 Y28     -0.131500
      4 CAG         6.7570    1.1340   -0.8580 c1        1 Y28     -0.131500
      5 CAE         5.3910    1.3610   -0.7990 c1        1 Y28     -0.131500
      6 CAB         4.5060    0.3740   -1.2030 c1        1 Y28     -0.061000
      7 CAC         3.0180    0.6500   -1.2120 c3        1 Y28      0.012000
      8 OH          2.4960    0.4540    0.0810 os        1 Y28     -0.239000
      9 CZ          1.0940    0.3930    0.1260 c2        1 Y28     -0.011000
     10 CE2         0.4470   -0.8120   -0.0970 c1        1 Y28     -0.160000
     11 CD2        -0.9380   -0.8590   -0.1270 c1        1 Y28     -0.114000
     12 CE1         0.3570    1.5500    0.3190 c2        1 Y28     -0.153000
     13 CD1        -1.0280    1.5030    0.2900 c1        1 Y28     -0.140000
     14 CG         -1.6760    0.2980    0.0670 c1        1 Y28     -0.013000
     15 CB         -3.1840    0.2620   -0.0540 c3        1 Y28     -0.152000
     16 CA         -3.7690   -0.4300    1.1560 c3        1 Y28     -0.035000
     17 C          -3.9870   -1.8940    0.8440 c2        1 Y28      0.327000
     18 OXT        -4.7980   -2.2320   -0.0590 o         1 Y28     -0.586000
     19 O          -3.3810   -2.7760    1.5070 o         1 Y28     -0.586000
     20 N          -5.0110    0.1720    1.4910 n         1 Y28     -0.350000
     21 CAR        -6.0790   -0.6270    1.9710 c2        1 Y28      0.238000
     22 OAW        -5.8680   -1.7650    2.3380 o         1 Y28     -0.454000
     23 CAS        -7.4860   -0.0750    1.9890 c2        1 Y28      0.346000
     24 OAY        -7.9030    0.5500    2.9980 o         1 Y28     -0.563500
     25 OAX        -8.2510   -0.2690    1.0090 o         1 Y28     -0.563500
     26 HAD         4.3640   -1.5400   -1.9400 ha        1 Y28      0.129000
     27 HAF         6.6920   -1.9200   -2.0580 ha        1 Y28      0.129250
     28 HAH         8.2000   -0.2410   -1.3610 ha        1 Y28      0.129250
     29 HAG         7.3800    1.8430   -0.6090 ha        1 Y28      0.129250
     30 HAE         5.0520    2.2170   -0.4740 ha        1 Y28      0.129250
     31 HAC1        2.8590    1.5750   -1.4920 h1        1 Y28      0.084500
     32 HAC2        2.5760    0.0390   -1.8380 h1        1 Y28      0.084500
     33 HE2         0.9660   -1.6210   -0.2630 ha        1 Y28      0.122000
     34 HE1         0.8120    2.3990    0.4760 ha        1 Y28      0.117000
     35 HD2        -1.3940   -1.7070   -0.2830 ha        1 Y28      0.218000
     36 HD1        -1.5470    2.3110    0.4590 ha        1 Y28      0.128000
     37 HB1C       -3.4350   -0.2270   -0.8620 hc        1 Y28      0.098500
     38 HB2C       -3.5290    1.1760   -0.1050 hc        1 Y28      0.098500
     39 HA         -3.1530   -0.3460    1.9100 h1        1 Y28      0.095000
     40 H          -5.1310    1.0670    1.3660 hn        1 Y28      0.229000
@<TRIPOS>BOND
     1    1    6 1   
     2    1   26 1   
     3    2    3 1   
     4    2   27 1   
     5    3   28 1   
     6    4    5 1   
     7    4   29 1   
     8    5   30 1   
     9    6    7 1   
    10    7    8 1   
    11    7   31 1   
    12    7   32 1   
    13    8    9 1   
    14    9   10 1   
    15    9   12 1   
    16   10   33 1   
    17   11   14 1   
    18   11   35 1   
    19   12   13 1   
    20   12   34 1   
    21   13   36 1   
    22   14   15 1   
    23   15   16 1   
    24   15   37 1   
    25   15   38 1   
    26   16   17 1   
    27   16   20 1   
    28   16   39 1   
    29   17   18 1   
    30   17   19 1   
    31   20   21 1   
    32   20   40 1   
    33   21   22 1   
    34   21   23 1   
    35   23   24 1   
    36   23   25 1   
@<TRIPOS>SUBSTRUCTURE
     1 Y28         1 TEMP              0 ****  ****    0 ROOT
