@<TRIPOS>MOLECULE
Y28
   40    41     1     0     0
SMALL
bcc


@<TRIPOS>ATOM
      1 CAD        -5.6020   -0.8110   -0.0710 ca        1 Y28     -0.119500
      2 CAF        -6.9290   -0.7740   -0.4980 ca        1 Y28     -0.139500
      3 CAH        -7.5290    0.4420   -0.8200 ca        1 Y28     -0.150000
      4 CAG        -6.7980    1.6250   -0.7170 ca        1 Y28     -0.139500
      5 CAE        -5.4720    1.5930   -0.2910 ca        1 Y28     -0.119500
      6 CAB        -4.8650    0.3730    0.0360 ca        1 Y28     -0.066300
      7 CAC        -3.4450    0.3880    0.4990 c3        1 Y28      0.165700
      8 OH         -3.0090   -0.9550    0.7340 os        1 Y28     -0.360900
      9 CZ         -1.6230   -1.1040    0.6480 ca        1 Y28      0.055100
     10 CE2        -1.1520   -2.2590    0.0140 ca        1 Y28     -0.164000
     11 CD2         0.2220   -2.4840   -0.0380 ca        1 Y28     -0.107000
     12 CE1        -0.7340   -0.1810    1.2130 ca        1 Y28     -0.164000
     13 CD1         0.6360   -0.4180    1.1460 ca        1 Y28     -0.107000
     14 CG          1.1300   -1.5750    0.5220 ca        1 Y28     -0.048300
     15 CB          2.5870   -1.8650    0.4750 c3        1 Y28     -0.059100
     16 CA          3.4220   -0.9450   -0.4510 c3        1 Y28     -0.009300
     17 C           4.8000   -1.6820   -0.5930 c         1 Y28      0.909600
     18 OXT         4.9310   -2.4590   -1.5820 o         1 Y28     -0.853300
     19 O           5.6820   -1.5150    0.2950 o         1 Y28     -0.853300
     20 N           3.5520    0.3960    0.0440 n         1 Y28     -0.549900
     21 CAR         2.7360    1.4530   -0.2940 c         1 Y28      0.546100
     22 OAW         1.9730    1.4100   -1.2870 o         1 Y28     -0.686100
     23 CAS         2.7550    2.6750    0.6650 c         1 Y28      0.872600
     24 OAY         3.4060    3.7000    0.3420 o         1 Y28     -0.832300
     25 OAX         2.0840    2.5430    1.7290 o         1 Y28     -0.832300
     26 HAD        -5.1200   -1.7690    0.1810 ha        1 Y28      0.147000
     27 HAF        -7.5010   -1.7090   -0.5820 ha        1 Y28      0.117500
     28 HAH        -8.5750    0.4690   -1.1580 ha        1 Y28      0.113000
     29 HAG        -7.2660    2.5850   -0.9750 ha        1 Y28      0.117500
     30 HAE        -4.8920    2.5250   -0.2160 ha        1 Y28      0.147000
     31 HAC1       -2.7900    0.8870   -0.2670 h1        1 Y28      0.060700
     32 HAC2       -3.3700    0.9550    1.4680 h1        1 Y28      0.060700
     33 HE2        -1.8610   -2.9680   -0.4320 ha        1 Y28      0.123500
     34 HE1        -1.1050    0.7380    1.6870 ha        1 Y28      0.123500
     35 HD2         0.6010   -3.3850   -0.5440 ha        1 Y28      0.162000
     36 HD1         1.3310    0.3440    1.5580 ha        1 Y28      0.162000
     37 HB1C        3.0060   -1.8010    1.5150 hc        1 Y28      0.048200
     38 HB2C        2.7510   -2.9140    0.1080 hc        1 Y28      0.048200
     39 HA          2.9290   -0.9090   -1.4630 h1        1 Y28      0.069700
     40 H           4.2130    0.5170    0.7750 hn        1 Y28      0.314500
@<TRIPOS>BOND
     1    1    2 ar  
     2    1    6 ar  
     3    1   26 1   
     4    2    3 ar  
     5    2   27 1   
     6    3    4 ar  
     7    3   28 1   
     8    4    5 ar  
     9    4   29 1   
    10    5    6 ar  
    11    5   30 1   
    12    6    7 1   
    13    7    8 1   
    14    7   31 1   
    15    7   32 1   
    16    8    9 1   
    17    9   10 ar  
    18    9   12 ar  
    19   10   11 ar  
    20   10   33 1   
    21   11   14 ar  
    22   11   35 1   
    23   12   13 ar  
    24   12   34 1   
    25   13   14 ar  
    26   13   36 1   
    27   14   15 1   
    28   15   16 1   
    29   15   37 1   
    30   15   38 1   
    31   16   17 1   
    32   16   20 1   
    33   16   39 1   
    34   17   18 1   
    35   17   19 1   
    36   20   21 1   
    37   20   40 1   
    38   21   22 2   
    39   21   23 1   
    40   23   24 1   
    41   23   25 1   
@<TRIPOS>SUBSTRUCTURE
     1 Y28         1 TEMP              0 ****  ****    0 ROOT
