@<TRIPOS>MOLECULE
Y2B
   59    62     1     0     0
SMALL
bcc


@<TRIPOS>ATOM
      1 N01         0.1160    0.1850   -0.3570 nb        1 Y2B     -0.670000
      2 C02         1.4620    0.3890   -0.4460 ca        1 Y2B      0.454200
      3 N02         2.0210    0.4650   -1.8160 n4        1 Y2B     -0.818300
      4 C03         2.3280    0.5290    0.6530 ca        1 Y2B     -0.206300
      5 C04         1.7580    0.4570    1.9400 ca        1 Y2B      0.011700
      6 C05         0.3830    0.2520    2.0510 ca        1 Y2B     -0.203300
      7 C06        -0.4120    0.1200    0.8830 ca        1 Y2B      0.455600
      8 C07         2.6180    0.6100    3.1340 c3        1 Y2B     -0.086800
      9 C08        -1.8930   -0.1110    1.0350 c3        1 Y2B     -0.120700
     10 O09        -4.5870   -0.3050    1.4130 os        1 Y2B     -0.457600
     11 N1'        -3.6540    2.7810    2.0960 n3        1 Y2B     -0.782200
     12 C10        -5.1150   -1.3650    0.6230 c3        1 Y2B      0.103400
     13 C11        -5.8190   -2.3250    1.5870 c3        1 Y2B      0.101800
     14 N12        -6.9170   -1.6610    2.3510 n4        1 Y2B     -0.720000
     15 C13        -7.5570   -2.5720    3.3130 cx        1 Y2B     -0.024500
     16 C14        -8.4460   -2.0170    4.4290 cx        1 Y2B     -0.004400
     17 C15        -7.1160   -2.6380    4.7570 cx        1 Y2B     -0.096400
     18 C2'        -2.4290    2.3450    1.4400 c3        1 Y2B      0.148800
     19 C21        -9.7210   -2.6890    4.7080 ca        1 Y2B     -0.090300
     20 C22       -10.8570   -1.9000    4.9250 ca        1 Y2B     -0.149000
     21 C23       -12.0890   -2.5180    5.2050 ca        1 Y2B      0.148900
     22 F23       -13.1850   -1.7550    5.4120 f         1 Y2B     -0.113900
     23 C24       -12.1840   -3.9220    5.2700 ca        1 Y2B     -0.129000
     24 C25       -11.0440   -4.6910    5.0530 ca        1 Y2B     -0.090000
     25 C26        -9.8200   -4.0850    4.7720 ca        1 Y2B     -0.138000
     26 C3'        -2.7070    1.0830    0.5830 c3        1 Y2B     -0.108700
     27 C4'        -4.2340    0.8700    0.6720 c3        1 Y2B      0.112100
     28 C5'        -4.7700    2.0840    1.4820 c3        1 Y2B      0.145800
     29 HN02        1.6430    1.2890   -2.3000 hn        1 Y2B      0.474133
     30 HN0A        3.0430    0.5400   -1.7590 hn        1 Y2B      0.474133
     31 H03         3.4120    0.6900    0.5440 ha        1 Y2B      0.177000
     32 H05        -0.0920    0.1910    3.0440 ha        1 Y2B      0.178000
     33 H07         2.8670    1.6920    3.2870 hc        1 Y2B      0.081700
     34 H07A        3.5770    0.0450    3.0100 hc        1 Y2B      0.081700
     35 H07B        2.1030    0.2350    4.0540 hc        1 Y2B      0.081700
     36 H08        -2.1960   -1.0130    0.4360 hc        1 Y2B      0.071700
     37 H08A       -2.1160   -0.3360    2.1130 hc        1 Y2B      0.071700
     38 HN1'       -3.6160    2.6060    3.0830 hn        1 Y2B      0.366800
     39 H10        -5.8220   -0.9760   -0.1570 h1        1 Y2B      0.073700
     40 H10A       -4.2760   -1.9200    0.1230 h1        1 Y2B      0.073700
     41 H13        -7.8750   -3.5130    2.8040 hx        1 Y2B      0.148700
     42 H14        -8.5150   -0.9100    4.5330 hc        1 Y2B      0.103700
     43 H15        -7.0750   -3.6380    5.2330 hc        1 Y2B      0.112700
     44 H15A       -6.3050   -1.9790    5.1220 hc        1 Y2B      0.112700
     45 H2'        -2.0950    3.1850    0.7690 h1        1 Y2B      0.059700
     46 H2'A       -1.6110    2.1500    2.1840 h1        1 Y2B      0.059700
     47 H22       -10.8030   -0.8020    4.8910 ha        1 Y2B      0.152000
     48 H24       -13.1540   -4.3940    5.4950 ha        1 Y2B      0.175000
     49 H25       -11.1110   -5.7900    5.1080 ha        1 Y2B      0.160000
     50 H26        -8.9320   -4.7140    4.6140 ha        1 Y2B      0.127000
     51 H3'        -2.4560    1.3120   -0.4880 hc        1 Y2B      0.080700
     52 H4'        -4.6870    0.8410   -0.3530 h1        1 Y2B      0.072700
     53 H5'        -5.5240    1.7490    2.2430 h1        1 Y2B      0.066200
     54 H5'A       -5.2710    2.7980    0.7710 h1        1 Y2B      0.066200
     55 H27        -7.6350   -1.3230    1.6980 hn        1 Y2B      0.455800
     56 H11        -6.2550   -3.1840    1.0010 hx        1 Y2B      0.117700
     57 H29        -5.0790   -2.7260    2.3370 hx        1 Y2B      0.117700
     58 H023        1.7680   -0.3780   -2.3480 hn        1 Y2B      0.474133
     59 H122       -6.5210   -0.8450    2.8410 hn        1 Y2B      0.455800
@<TRIPOS>BOND
     1    1    2 ar  
     2    1    7 ar  
     3    2    3 1   
     4    2    4 ar  
     5    3   29 1   
     6    3   30 1   
     7    3   58 1   
     8    4    5 ar  
     9    4   31 1   
    10    5    6 ar  
    11    5    8 1   
    12    6    7 ar  
    13    6   32 1   
    14    7    9 1   
    15    8   33 1   
    16    8   34 1   
    17    8   35 1   
    18    9   26 1   
    19    9   36 1   
    20    9   37 1   
    21   10   12 1   
    22   10   27 1   
    23   11   18 1   
    24   11   28 1   
    25   11   38 1   
    26   12   13 1   
    27   12   39 1   
    28   12   40 1   
    29   13   14 1   
    30   13   56 1   
    31   13   57 1   
    32   14   15 1   
    33   14   55 1   
    34   14   59 1   
    35   15   16 1   
    36   15   17 1   
    37   15   41 1   
    38   16   17 1   
    39   16   19 1   
    40   16   42 1   
    41   17   43 1   
    42   17   44 1   
    43   18   26 1   
    44   18   45 1   
    45   18   46 1   
    46   19   20 ar  
    47   19   25 ar  
    48   20   21 ar  
    49   20   47 1   
    50   21   22 1   
    51   21   23 ar  
    52   23   24 ar  
    53   23   48 1   
    54   24   25 ar  
    55   24   49 1   
    56   25   50 1   
    57   26   27 1   
    58   26   51 1   
    59   27   28 1   
    60   27   52 1   
    61   28   53 1   
    62   28   54 1   
@<TRIPOS>SUBSTRUCTURE
     1 Y2B         1 TEMP              0 ****  ****    0 ROOT
