@<TRIPOS>MOLECULE
Y2B
   57    60     1     0     0
SMALL
bcc


@<TRIPOS>ATOM
      1 N01        -5.3180    0.3920   -0.7950 nb        1 Y2B     -0.733000
      2 C02        -6.4130    1.1280   -0.4250 ca        1 Y2B      0.630200
      3 N02        -7.6550    0.8410   -1.0160 nh        1 Y2B     -0.923500
      4 C03        -6.3460    2.1270    0.5930 ca        1 Y2B     -0.301300
      5 C04        -5.1370    2.3390    1.2510 ca        1 Y2B     -0.005300
      6 C05        -4.0230    1.5720    0.8870 ca        1 Y2B     -0.292300
      7 C06        -4.1580    0.6140   -0.1370 ca        1 Y2B      0.449600
      8 C07        -5.0290    3.3490    2.3290 c3        1 Y2B     -0.061800
      9 C08        -2.9440   -0.1820   -0.5360 c3        1 Y2B     -0.112700
     10 O09        -0.8730   -1.6440   -1.1910 os        1 Y2B     -0.424600
     11 N1'        -2.3230   -3.0780    1.6370 n3        1 Y2B     -0.788200
     12 C10         0.1140   -2.3330   -1.9590 c3        1 Y2B      0.120400
     13 C11         1.2850   -1.3630   -2.1410 c3        1 Y2B      0.165800
     14 N12         2.0100   -1.1230   -0.9060 n3        1 Y2B     -0.793200
     15 C13         2.9360   -0.0390   -0.9940 cx        1 Y2B      0.140500
     16 C14         3.4110    0.6830    0.2630 cx        1 Y2B     -0.083400
     17 C15         2.5860    1.4170   -0.7640 cx        1 Y2B     -0.166400
     18 C2'        -3.1550   -1.9250    1.3060 c3        1 Y2B      0.141800
     19 C21         4.8400    0.9730    0.4410 ca        1 Y2B     -0.016300
     20 C22         5.4070    0.8230    1.7120 ca        1 Y2B     -0.160000
     21 C23         6.7720    1.0960    1.9050 ca        1 Y2B      0.126900
     22 F23         7.3180    0.9500    3.1370 f         1 Y2B     -0.142900
     23 C24         7.5760    1.5180    0.8300 ca        1 Y2B     -0.169000
     24 C25         6.9990    1.6620   -0.4280 ca        1 Y2B     -0.103000
     25 C26         5.6460    1.3940   -0.6250 ca        1 Y2B     -0.146000
     26 C3'        -3.0900   -1.6550   -0.2150 c3        1 Y2B     -0.079700
     27 C4'        -1.9020   -2.5050   -0.7150 c3        1 Y2B      0.117100
     28 C5'        -1.4160   -3.3100    0.5200 c3        1 Y2B      0.113800
     29 HN02       -7.6220    0.2860   -1.8440 hn        1 Y2B      0.399800
     30 HN0A       -8.2490    1.6360   -1.0930 hn        1 Y2B      0.399800
     31 H03        -7.2360    2.7110    0.8610 ha        1 Y2B      0.141000
     32 H05        -3.0580    1.7140    1.3910 ha        1 Y2B      0.143000
     33 H07        -5.1040    2.8460    3.3260 hc        1 Y2B      0.049700
     34 H07A       -4.0460    3.8790    2.2780 hc        1 Y2B      0.049700
     35 H07B       -5.8470    4.1080    2.2560 hc        1 Y2B      0.049700
     36 H08        -2.7650   -0.0680   -1.6400 hc        1 Y2B      0.067200
     37 H08A       -2.0420    0.2300   -0.0100 hc        1 Y2B      0.067200
     38 HN1'       -2.8980   -3.8870    1.7880 hn        1 Y2B      0.346800
     39 H10         0.4320   -3.2720   -1.4350 h1        1 Y2B      0.040200
     40 H10A       -0.3170   -2.5920   -2.9620 h1        1 Y2B      0.040200
     41 H13         3.7050   -0.2550   -1.7720 h1        1 Y2B      0.094700
     42 H14         2.9060    0.4310    1.2210 hc        1 Y2B      0.089700
     43 H15         3.0670    2.1840   -1.3950 hc        1 Y2B      0.076200
     44 H15A        1.5510    1.6940   -0.4940 hc        1 Y2B      0.076200
     45 H2'        -4.2170   -2.0790    1.6330 h1        1 Y2B      0.055200
     46 H2'A       -2.7440   -1.0410    1.8680 h1        1 Y2B      0.055200
     47 H22         4.7960    0.4910    2.5640 ha        1 Y2B      0.149000
     48 H24         8.6420    1.7280    0.9940 ha        1 Y2B      0.148000
     49 H25         7.6200    1.9920   -1.2740 ha        1 Y2B      0.136000
     50 H26         5.2090    1.5130   -1.6280 ha        1 Y2B      0.134000
     51 H3'        -4.0240   -2.0460   -0.7020 hc        1 Y2B      0.071700
     52 H4'        -2.2270   -3.1920   -1.5410 h1        1 Y2B      0.043700
     53 H5'        -0.3970   -2.9380    0.8220 h1        1 Y2B      0.056200
     54 H5'A       -1.3330   -4.4010    0.2730 h1        1 Y2B      0.056200
     55 H27         1.3670   -0.9960   -0.1450 hn        1 Y2B      0.372800
     56 H11         2.0040   -1.8230   -2.8760 h1        1 Y2B      0.043200
     57 H29         0.8840   -0.4100   -2.5950 h1        1 Y2B      0.043200
@<TRIPOS>BOND
     1    1    2 ar  
     2    1    7 ar  
     3    2    3 1   
     4    2    4 ar  
     5    3   29 1   
     6    3   30 1   
     7    4    5 ar  
     8    4   31 1   
     9    5    6 ar  
    10    5    8 1   
    11    6    7 ar  
    12    6   32 1   
    13    7    9 1   
    14    8   33 1   
    15    8   34 1   
    16    8   35 1   
    17    9   26 1   
    18    9   36 1   
    19    9   37 1   
    20   10   12 1   
    21   10   27 1   
    22   11   18 1   
    23   11   28 1   
    24   11   38 1   
    25   12   13 1   
    26   12   39 1   
    27   12   40 1   
    28   13   14 1   
    29   13   56 1   
    30   13   57 1   
    31   14   15 1   
    32   14   55 1   
    33   15   16 1   
    34   15   17 1   
    35   15   41 1   
    36   16   17 1   
    37   16   19 1   
    38   16   42 1   
    39   17   43 1   
    40   17   44 1   
    41   18   26 1   
    42   18   45 1   
    43   18   46 1   
    44   19   20 ar  
    45   19   25 ar  
    46   20   21 ar  
    47   20   47 1   
    48   21   22 1   
    49   21   23 ar  
    50   23   24 ar  
    51   23   48 1   
    52   24   25 ar  
    53   24   49 1   
    54   25   50 1   
    55   26   27 1   
    56   26   51 1   
    57   27   28 1   
    58   27   52 1   
    59   28   53 1   
    60   28   54 1   
@<TRIPOS>SUBSTRUCTURE
     1 Y2B         1 TEMP              0 ****  ****    0 ROOT
