@<TRIPOS>MOLECULE
Y2B
   58    61     1     0     0
SMALL
bcc


@<TRIPOS>ATOM
      1 N01        -2.6070   -0.6330    1.8600 nb        1 Y2B     -0.822000
      2 C02        -1.9470   -1.8270    1.7370 ca        1 Y2B      0.630200
      3 N02        -2.7090   -3.0020    1.5600 nv        1 Y2B     -0.929500
      4 C03        -0.5300   -1.9180    1.8590 ca        1 Y2B     -0.286300
      5 C04         0.2070   -0.7600    2.1030 ca        1 Y2B      0.025700
      6 C05        -0.4740    0.4630    2.2060 ca        1 Y2B     -0.268300
      7 C06        -1.8730    0.4850    2.0810 ca        1 Y2B      0.451600
      8 C07         1.6800   -0.8070    2.2320 c3        1 Y2B     -0.076800
      9 C08        -2.5790    1.8120    2.1860 c3        1 Y2B     -0.126700
     10 O09        -5.2490    1.7260    1.5420 os        1 Y2B     -0.434600
     11 N1'        -4.1640    4.3370    0.0120 n7        1 Y2B     -0.788200
     12 C10        -6.4340    0.9890    1.3090 c3        1 Y2B      0.107400
     13 C11        -6.2050   -0.5110    1.5500 c3        1 Y2B      0.076800
     14 N12        -5.3290   -0.7680    2.7270 ny        1 Y2B     -0.751000
     15 C13        -5.5930   -2.0700    3.3460 cx        1 Y2B      0.012500
     16 C14        -6.7390   -2.2630    4.3350 cx        1 Y2B     -0.037400
     17 C15        -5.3130   -2.3030    4.8130 cx        1 Y2B     -0.094400
     18 C2'        -2.9940    3.8720    0.7510 c3        1 Y2B      0.150800
     19 C21        -7.5650   -3.4750    4.2400 ca        1 Y2B     -0.071300
     20 C22        -8.9500   -3.3560    4.4010 ca        1 Y2B     -0.154000
     21 C23        -9.7600   -4.5030    4.3210 ca        1 Y2B      0.142900
     22 F23       -11.0990   -4.3860    4.4750 f         1 Y2B     -0.121900
     23 C24        -9.1870   -5.7660    4.0810 ca        1 Y2B     -0.141000
     24 C25        -7.8080   -5.8660    3.9240 ca        1 Y2B     -0.094000
     25 C26        -6.9990   -4.7330    4.0010 ca        1 Y2B     -0.141000
     26 C3'        -3.0130    2.3240    0.8280 c3        1 Y2B     -0.078700
     27 C4'        -4.4360    1.9340    0.3790 c3        1 Y2B      0.107100
     28 C5'        -4.9450    3.1780   -0.3950 c3        1 Y2B      0.128800
     29 HN02       -3.5060   -2.9000    0.9700 hn        1 Y2B      0.399300
     30 HN0A       -2.1470   -3.7890    1.3080 hn        1 Y2B      0.399300
     31 H03        -0.0220   -2.8890    1.7690 ha        1 Y2B      0.160000
     32 H05         0.0850    1.3930    2.3820 ha        1 Y2B      0.162000
     33 H07         2.0450   -1.8540    2.3740 hc        1 Y2B      0.066367
     34 H07A        2.0160   -0.1920    3.1040 hc        1 Y2B      0.066367
     35 H07B        2.1550   -0.3900    1.3070 hc        1 Y2B      0.066367
     36 H08        -3.4590    1.7350    2.8790 hc        1 Y2B      0.069200
     37 H08A       -1.8650    2.5490    2.6460 hc        1 Y2B      0.069200
     38 HN1'       -4.7140    4.9580    0.5750 hn        1 Y2B      0.366800
     39 H10        -7.1730    1.3970    2.0530 h1        1 Y2B      0.084700
     40 H10A       -6.8300    1.1280    0.2690 h1        1 Y2B      0.084700
     41 H13        -5.3710   -2.8910    2.6250 hx        1 Y2B      0.138700
     42 H14        -7.3320   -1.3650    4.6210 hc        1 Y2B      0.099700
     43 H15        -4.9470   -1.4740    5.4480 hc        1 Y2B      0.107700
     44 H15A       -4.8510   -3.2690    5.0970 hc        1 Y2B      0.107700
     45 H2'        -2.0810    4.2100    0.1880 h1        1 Y2B      0.058200
     46 H2'A       -2.9500    4.3180    1.7820 h1        1 Y2B      0.058200
     47 H22        -9.4170   -2.3810    4.6020 ha        1 Y2B      0.151000
     48 H24        -9.8310   -6.6570    4.0240 ha        1 Y2B      0.168000
     49 H25        -7.3520   -6.8530    3.7430 ha        1 Y2B      0.153000
     50 H26        -5.9100   -4.8380    3.8830 ha        1 Y2B      0.132000
     51 H3'        -2.3090    1.9280    0.0440 hc        1 Y2B      0.077700
     52 H4'        -4.4350    1.0120   -0.2560 h1        1 Y2B      0.054700
     53 H5'        -4.7720    3.0190   -1.4950 h1        1 Y2B      0.063700
     54 H5'A       -6.0430    3.3270   -0.2240 h1        1 Y2B      0.063700
     55 H27        -4.3140   -0.7210    2.4090 hn        1 Y2B      0.477300
     56 H11        -5.7090   -0.9780    0.6530 hx        1 Y2B      0.100200
     57 H29        -7.2030   -1.0100    1.7120 hx        1 Y2B      0.100200
     58 H122       -5.4680   -0.0170    3.4120 hn        1 Y2B      0.477300
@<TRIPOS>BOND
     1    1    2 ar  
     2    1    7 ar  
     3    2    3 1   
     4    2    4 ar  
     5    3   29 1   
     6    3   30 1   
     7    4    5 ar  
     8    4   31 1   
     9    5    6 ar  
    10    5    8 1   
    11    6    7 ar  
    12    6   32 1   
    13    7    9 1   
    14    8   33 1   
    15    8   34 1   
    16    8   35 1   
    17    9   26 1   
    18    9   36 1   
    19    9   37 1   
    20   10   12 1   
    21   10   27 1   
    22   11   18 1   
    23   11   28 1   
    24   11   38 1   
    25   12   13 1   
    26   12   39 1   
    27   12   40 1   
    28   13   14 1   
    29   13   56 1   
    30   13   57 1   
    31   14   15 1   
    32   14   55 1   
    33   14   58 1   
    34   15   16 1   
    35   15   17 1   
    36   15   41 1   
    37   16   17 1   
    38   16   19 1   
    39   16   42 1   
    40   17   43 1   
    41   17   44 1   
    42   18   26 1   
    43   18   45 1   
    44   18   46 1   
    45   19   20 ar  
    46   19   25 ar  
    47   20   21 ar  
    48   20   47 1   
    49   21   22 1   
    50   21   23 ar  
    51   23   24 ar  
    52   23   48 1   
    53   24   25 ar  
    54   24   49 1   
    55   25   50 1   
    56   26   27 1   
    57   26   51 1   
    58   27   28 1   
    59   27   52 1   
    60   28   53 1   
    61   28   54 1   
@<TRIPOS>SUBSTRUCTURE
     1 Y2B         1 TEMP              0 ****  ****    0 ROOT
