@<TRIPOS>MOLECULE
Y2F
   60    62     1     0     0
SMALL
bcc


@<TRIPOS>ATOM
      1 N01        -2.7130   -0.7940    1.7580 nb        1 Y2F     -0.822000
      2 C02        -1.7540   -1.7670    1.8640 ca        1 Y2F      0.627200
      3 N02        -2.0040   -3.0260    1.2790 nv        1 Y2F     -0.931500
      4 C03        -0.5550   -1.5700    2.6110 ca        1 Y2F     -0.285300
      5 C04        -0.3470   -0.3500    3.2500 ca        1 Y2F      0.022700
      6 C05        -1.3230    0.6500    3.1250 ca        1 Y2F     -0.271300
      7 C06        -2.4830    0.3900    2.3770 ca        1 Y2F      0.444600
      8 C07         0.8850   -0.0990    4.0300 c3        1 Y2F     -0.075800
      9 C08        -3.5060    1.4920    2.2540 c3        1 Y2F     -0.124700
     10 O09        -5.4480    1.1620    0.3120 os        1 Y2F     -0.432600
     11 N1'        -4.4520    4.1730   -0.1090 n7        1 Y2F     -0.788200
     12 C10        -6.0810    0.2290   -0.5400 c3        1 Y2F      0.108400
     13 C11        -5.5670   -1.1930   -0.2590 c3        1 Y2F      0.075800
     14 N12        -5.4900   -1.4930    1.1980 ny        1 Y2F     -0.777000
     15 C13        -6.1880   -2.7650    1.5910 c3        1 Y2F      0.132500
     16 C14        -5.4260   -4.0010    1.1370 c3        1 Y2F     -0.130100
     17 C15        -6.4040   -2.8140    3.1120 c3        1 Y2F     -0.059100
     18 C2'        -4.6090    3.0320   -0.9980 c3        1 Y2F      0.129800
     19 C21        -7.2620   -1.6940    3.5840 ca        1 Y2F     -0.111300
     20 C22        -6.6860   -0.5490    4.1440 ca        1 Y2F     -0.163000
     21 C23        -7.4950    0.4870    4.6120 ca        1 Y2F     -0.091000
     22 C24        -8.8810    0.4000    4.5220 ca        1 Y2F     -0.145000
     23 C25        -9.4630   -0.7510    3.9570 ca        1 Y2F      0.146900
     24 F25       -10.8070   -0.8520    3.8620 f         1 Y2F     -0.118900
     25 C26        -8.6520   -1.8020    3.4890 ca        1 Y2F     -0.163000
     26 C3'        -4.2480    1.7400   -0.2200 c3        1 Y2F      0.107100
     27 C4'        -3.3660    2.2380    0.9430 c3        1 Y2F     -0.080700
     28 C5'        -3.7190    3.7400    1.0780 c3        1 Y2F      0.150800
     29 HN02       -1.1880   -3.5980    1.2230 hn        1 Y2F      0.400800
     30 HN0A       -2.5180   -3.0040    0.4250 hn        1 Y2F      0.400800
     31 H03         0.1940   -2.3720    2.6880 ha        1 Y2F      0.159000
     32 H05        -1.1780    1.6270    3.6080 ha        1 Y2F      0.160000
     33 H07         0.6410    0.4150    4.9940 hc        1 Y2F      0.065700
     34 H07A        1.5740    0.5640    3.4470 hc        1 Y2F      0.065700
     35 H07B        1.4230   -1.0500    4.2610 hc        1 Y2F      0.065700
     36 H08        -3.3420    2.2090    3.1050 hc        1 Y2F      0.064200
     37 H08A       -4.5450    1.0840    2.3700 hc        1 Y2F      0.064200
     38 HN1'       -5.3450    4.5530    0.1460 hn        1 Y2F      0.365800
     39 H10        -7.1750    0.3120   -0.2930 h1        1 Y2F      0.085700
     40 H10A       -5.9190    0.4590   -1.6250 h1        1 Y2F      0.085700
     41 H11        -6.2490   -1.9310   -0.7670 hx        1 Y2F      0.098200
     42 H11A       -4.5300   -1.3100   -0.6850 hx        1 Y2F      0.098200
     43 HN12       -5.9160   -0.7130    1.7230 hn        1 Y2F      0.477800
     44 H13        -7.2040   -2.7430    1.0890 hx        1 Y2F      0.096700
     45 H14        -5.1960   -3.9600    0.0440 hc        1 Y2F      0.073700
     46 H14A       -6.0650   -4.8990    1.3270 hc        1 Y2F      0.073700
     47 H14B       -4.4730   -4.1210    1.7070 hc        1 Y2F      0.073700
     48 H15        -6.8960   -3.7990    3.3430 hc        1 Y2F      0.090200
     49 H15A       -5.4140   -2.8060    3.6430 hc        1 Y2F      0.090200
     50 H2'        -3.8860    3.1600   -1.8500 h1        1 Y2F      0.064200
     51 H2'A       -5.6480    2.9610   -1.4170 h1        1 Y2F      0.064200
     52 H22        -5.5930   -0.4740    4.2470 ha        1 Y2F      0.136000
     53 H23        -7.0350    1.3790    5.0660 ha        1 Y2F      0.153000
     54 H24        -9.5260    1.2110    4.8950 ha        1 Y2F      0.169000
     55 H26        -9.1230   -2.7040    3.0700 ha        1 Y2F      0.155000
     56 H3'        -3.7110    0.9960   -0.8600 h1        1 Y2F      0.056700
     57 H4'        -2.2990    2.1630    0.5910 hc        1 Y2F      0.078700
     58 H5'        -2.7740    4.3470    1.1340 h1        1 Y2F      0.056700
     59 H5'A       -4.3060    3.9250    2.0180 h1        1 Y2F      0.056700
     60 H122       -4.4840   -1.5330    1.4790 hn        1 Y2F      0.477800
@<TRIPOS>BOND
     1    1    2 ar  
     2    1    7 ar  
     3    2    3 1   
     4    2    4 ar  
     5    3   29 1   
     6    3   30 1   
     7    4    5 ar  
     8    4   31 1   
     9    5    6 ar  
    10    5    8 1   
    11    6    7 ar  
    12    6   32 1   
    13    7    9 1   
    14    8   33 1   
    15    8   34 1   
    16    8   35 1   
    17    9   27 1   
    18    9   36 1   
    19    9   37 1   
    20   10   12 1   
    21   10   26 1   
    22   11   18 1   
    23   11   28 1   
    24   11   38 1   
    25   12   13 1   
    26   12   39 1   
    27   12   40 1   
    28   13   14 1   
    29   13   41 1   
    30   13   42 1   
    31   14   15 1   
    32   14   43 1   
    33   14   60 1   
    34   15   16 1   
    35   15   17 1   
    36   15   44 1   
    37   16   45 1   
    38   16   46 1   
    39   16   47 1   
    40   17   19 1   
    41   17   48 1   
    42   17   49 1   
    43   18   26 1   
    44   18   50 1   
    45   18   51 1   
    46   19   20 ar  
    47   19   25 ar  
    48   20   21 ar  
    49   20   52 1   
    50   21   22 ar  
    51   21   53 1   
    52   22   23 ar  
    53   22   54 1   
    54   23   24 1   
    55   23   25 ar  
    56   25   55 1   
    57   26   27 1   
    58   26   56 1   
    59   27   28 1   
    60   27   57 1   
    61   28   58 1   
    62   28   59 1   
@<TRIPOS>SUBSTRUCTURE
     1 Y2F         1 TEMP              0 ****  ****    0 ROOT
