@<TRIPOS>MOLECULE
Y2F
   59    61     1     0     0
SMALL
bcc


@<TRIPOS>ATOM
      1 N01        -5.1460    0.0470   -1.1980 nb        1 Y2F     -0.731000
      2 C02        -6.4350    0.4800   -1.0240 ca        1 Y2F      0.633200
      3 N02        -7.4210    0.0580   -1.9320 nh        1 Y2F     -0.924500
      4 C03        -6.8200    1.2840    0.0900 ca        1 Y2F     -0.302300
      5 C04        -5.8610    1.6150    1.0460 ca        1 Y2F     -0.005300
      6 C05        -4.5500    1.1550    0.8780 ca        1 Y2F     -0.296300
      7 C06        -4.2380    0.3770   -0.2540 ca        1 Y2F      0.451600
      8 C07        -6.2250    2.4290    2.2290 c3        1 Y2F     -0.060800
      9 C08        -2.8180   -0.0910   -0.4330 c3        1 Y2F     -0.116700
     10 O09        -0.3960   -1.0030   -0.7920 os        1 Y2F     -0.431600
     11 N1'        -1.7440   -2.5750    1.8190 n3        1 Y2F     -0.788200
     12 C10         0.7790   -1.3690   -1.5140 c3        1 Y2F      0.122400
     13 C11         1.6480   -0.1110   -1.6150 c3        1 Y2F      0.164800
     14 N12         2.2060    0.2920   -0.3400 n3        1 Y2F     -0.818200
     15 C13         2.8450    1.6020   -0.3640 c3        1 Y2F      0.176500
     16 C14         1.8810    2.7910   -0.3600 c3        1 Y2F     -0.131100
     17 C15         3.8100    1.7680    0.8290 c3        1 Y2F     -0.032100
     18 C2'        -0.8150   -2.8700    0.7350 c3        1 Y2F      0.115800
     19 C21         5.0080    0.8940    0.7110 ca        1 Y2F     -0.044300
     20 C22         4.9710   -0.4270    1.1730 ca        1 Y2F     -0.121000
     21 C23         6.0980   -1.2400    1.0720 ca        1 Y2F     -0.109000
     22 C24         7.2770   -0.7550    0.5120 ca        1 Y2F     -0.169000
     23 C25         7.3160    0.5710    0.0460 ca        1 Y2F      0.120900
     24 F25         8.4560    1.0600   -0.5020 f         1 Y2F     -0.145900
     25 C26         6.1830    1.3970    0.1450 ca        1 Y2F     -0.169000
     26 C3'        -1.2600   -2.1090   -0.5420 c3        1 Y2F      0.114100
     27 C4'        -2.6820   -1.5870   -0.2350 c3        1 Y2F     -0.081700
     28 C5'        -2.9560   -2.0180    1.2250 c3        1 Y2F      0.139800
     29 HN02       -7.0870   -0.3360   -2.7840 hn        1 Y2F      0.400800
     30 HN0A       -8.1550    0.7190   -2.0560 hn        1 Y2F      0.400800
     31 H03        -7.8570    1.6280    0.2000 ha        1 Y2F      0.141000
     32 H05        -3.7740    1.4000    1.6150 ha        1 Y2F      0.141000
     33 H07        -6.4360    1.7570    3.0990 hc        1 Y2F      0.049033
     34 H07A       -5.3870    3.1140    2.5110 hc        1 Y2F      0.049033
     35 H07B       -7.1360    3.0440    2.0320 hc        1 Y2F      0.049033
     36 H08        -2.4580    0.1730   -1.4650 hc        1 Y2F      0.065200
     37 H08A       -2.1560    0.4480    0.2960 hc        1 Y2F      0.065200
     38 HN1'       -1.3330   -1.9090    2.4490 hn        1 Y2F      0.347800
     39 H10         1.3130   -2.2010   -0.9860 h1        1 Y2F      0.038700
     40 H10A        0.4930   -1.7060   -2.5460 h1        1 Y2F      0.038700
     41 H11         2.5070   -0.3440   -2.3070 h1        1 Y2F      0.040700
     42 H11A        1.0280    0.7020   -2.0940 h1        1 Y2F      0.040700
     43 HN12        1.4990    0.2620    0.3720 hn        1 Y2F      0.365800
     44 H13         3.4620    1.6580   -1.3110 h1        1 Y2F      0.060700
     45 H14         1.1530    2.7160   -1.2020 hc        1 Y2F      0.039700
     46 H14A        1.3110    2.8340    0.5990 hc        1 Y2F      0.039700
     47 H14B        2.4550    3.7410   -0.4750 hc        1 Y2F      0.039700
     48 H15         4.1290    2.8440    0.8620 hc        1 Y2F      0.051700
     49 H15A        3.2710    1.5470    1.7880 hc        1 Y2F      0.051700
     50 H2'         0.2390   -2.5990    1.0060 h1        1 Y2F      0.056700
     51 H2'A       -0.8610   -3.9760    0.5410 h1        1 Y2F      0.056700
     52 H22         4.0400   -0.8250    1.6050 ha        1 Y2F      0.143000
     53 H23         6.0590   -2.2780    1.4360 ha        1 Y2F      0.135000
     54 H24         8.1700   -1.3900    0.4300 ha        1 Y2F      0.146000
     55 H26         6.2310    2.4310   -0.2230 ha        1 Y2F      0.144000
     56 H3'        -1.2720   -2.7930   -1.4310 h1        1 Y2F      0.051700
     57 H4'        -3.4020   -2.1130   -0.9170 hc        1 Y2F      0.078700
     58 H5'        -3.7350   -2.8300    1.2340 h1        1 Y2F      0.054700
     59 H5'A       -3.3500   -1.1550    1.8260 h1        1 Y2F      0.054700
@<TRIPOS>BOND
     1    1    2 ar  
     2    1    7 ar  
     3    2    3 1   
     4    2    4 ar  
     5    3   29 1   
     6    3   30 1   
     7    4    5 ar  
     8    4   31 1   
     9    5    6 ar  
    10    5    8 1   
    11    6    7 ar  
    12    6   32 1   
    13    7    9 1   
    14    8   33 1   
    15    8   34 1   
    16    8   35 1   
    17    9   27 1   
    18    9   36 1   
    19    9   37 1   
    20   10   12 1   
    21   10   26 1   
    22   11   18 1   
    23   11   28 1   
    24   11   38 1   
    25   12   13 1   
    26   12   39 1   
    27   12   40 1   
    28   13   14 1   
    29   13   41 1   
    30   13   42 1   
    31   14   15 1   
    32   14   43 1   
    33   15   16 1   
    34   15   17 1   
    35   15   44 1   
    36   16   45 1   
    37   16   46 1   
    38   16   47 1   
    39   17   19 1   
    40   17   48 1   
    41   17   49 1   
    42   18   26 1   
    43   18   50 1   
    44   18   51 1   
    45   19   20 ar  
    46   19   25 ar  
    47   20   21 ar  
    48   20   52 1   
    49   21   22 ar  
    50   21   53 1   
    51   22   23 ar  
    52   22   54 1   
    53   23   24 1   
    54   23   25 ar  
    55   25   55 1   
    56   26   27 1   
    57   26   56 1   
    58   27   28 1   
    59   27   57 1   
    60   28   58 1   
    61   28   59 1   
@<TRIPOS>SUBSTRUCTURE
     1 Y2F         1 TEMP              0 ****  ****    0 ROOT
