@<TRIPOS>MOLECULE
Y2F
   61    63     1     0     0
SMALL
bcc


@<TRIPOS>ATOM
      1 N01        -0.0940    0.1140   -0.5170 nb        1 Y2F     -0.670000
      2 C02         1.2520    0.1420   -0.7320 ca        1 Y2F      0.453200
      3 N02         1.6840    0.3140   -2.1400 n4        1 Y2F     -0.818300
      4 C03         2.2300    0.0230    0.2700 ca        1 Y2F     -0.206300
      5 C04         1.7820   -0.1340    1.5970 ca        1 Y2F      0.011700
      6 C05         0.4070   -0.1630    1.8380 ca        1 Y2F     -0.203300
      7 C06        -0.5050   -0.0360    0.7590 ca        1 Y2F      0.455600
      8 C07         2.7640   -0.2530    2.6960 c3        1 Y2F     -0.085800
      9 C08        -1.9830   -0.0810    1.0500 c3        1 Y2F     -0.120700
     10 O09        -4.6250    0.0380    1.6960 os        1 Y2F     -0.455600
     11 N1'        -3.1870    2.8480    2.6460 n3        1 Y2F     -0.782200
     12 C10        -5.3930   -0.8110    0.8490 c3        1 Y2F      0.104400
     13 C11        -6.1170   -1.8060    1.7620 c3        1 Y2F      0.098800
     14 N12        -7.0240   -1.1350    2.7340 n4        1 Y2F     -0.766000
     15 C13        -7.6550   -2.1030    3.7100 c3        1 Y2F      0.132500
     16 C14        -6.7250   -2.4180    4.8710 c3        1 Y2F     -0.132100
     17 C15        -8.9850   -1.5430    4.2370 c3        1 Y2F     -0.061100
     18 C2'        -4.4470    2.3980    2.0820 c3        1 Y2F      0.144800
     19 C21        -9.9220   -1.1990    3.1340 ca        1 Y2F     -0.131300
     20 C22       -10.1700    0.1400    2.8120 ca        1 Y2F     -0.166000
     21 C23       -11.0880    0.4620    1.8100 ca        1 Y2F     -0.090000
     22 C24       -11.7560   -0.5390    1.1120 ca        1 Y2F     -0.139000
     23 C25       -11.5040   -1.8890    1.4320 ca        1 Y2F      0.152900
     24 F25       -12.1430   -2.8730    0.7640 f         1 Y2F     -0.110900
     25 C26       -10.5880   -2.2180    2.4480 ca        1 Y2F     -0.169000
     26 C3'        -4.1750    1.2460    1.0730 c3        1 Y2F      0.112100
     27 C4'        -2.6480    1.2630    0.8390 c3        1 Y2F     -0.107700
     28 C5'        -2.1080    2.3480    1.8060 c3        1 Y2F      0.148800
     29 HN02        1.3830    1.2340   -2.4850 hn        1 Y2F      0.474133
     30 HN0A        1.2630   -0.4150   -2.7300 hn        1 Y2F      0.474133
     31 H03         3.3110    0.0480    0.0590 ha        1 Y2F      0.177000
     32 H05         0.0260   -0.2840    2.8650 ha        1 Y2F      0.178000
     33 H07         2.2890   -0.6670    3.6210 hc        1 Y2F      0.081700
     34 H07A        3.1840    0.7580    2.9410 hc        1 Y2F      0.081700
     35 H07B        3.6120   -0.9210    2.4040 hc        1 Y2F      0.081700
     36 H08        -2.4740   -0.8450    0.3870 hc        1 Y2F      0.071700
     37 H08A       -2.1340   -0.4160    2.1120 hc        1 Y2F      0.071700
     38 HN1'       -3.0820    2.5350    3.5930 hn        1 Y2F      0.365800
     39 H10        -6.1200   -0.2180    0.2320 h1        1 Y2F      0.072200
     40 H10A       -4.7090   -1.3880    0.1690 h1        1 Y2F      0.072200
     41 H11        -5.3590   -2.3980    2.3510 hx        1 Y2F      0.114700
     42 H11A       -6.7250   -2.5100    1.1260 hx        1 Y2F      0.114700
     43 HN12       -6.4820   -0.4310    3.2510 hn        1 Y2F      0.458300
     44 H13        -7.8710   -3.0480    3.1240 hx        1 Y2F      0.108700
     45 H14        -6.5130   -1.5100    5.4860 hc        1 Y2F      0.078367
     46 H14A       -5.7600   -2.8570    4.5190 hc        1 Y2F      0.078367
     47 H14B       -7.2290   -3.1720    5.5290 hc        1 Y2F      0.078367
     48 H15        -9.4410   -2.3400    4.8900 hc        1 Y2F      0.096700
     49 H15A       -8.7960   -0.6500    4.8920 hc        1 Y2F      0.096700
     50 H2'        -4.9030    3.2640    1.5260 h1        1 Y2F      0.066200
     51 H2'A       -5.1660    2.0640    2.8760 h1        1 Y2F      0.066200
     52 H22        -9.6840    0.9470    3.3800 ha        1 Y2F      0.138000
     53 H23       -11.2980    1.5190    1.5790 ha        1 Y2F      0.162000
     54 H24       -12.4910   -0.2930    0.3290 ha        1 Y2F      0.177000
     55 H26       -10.4310   -3.2750    2.7120 ha        1 Y2F      0.157000
     56 H3'        -4.7210    1.4220    0.1090 h1        1 Y2F      0.071700
     57 H4'        -2.4670    1.5980   -0.2180 hc        1 Y2F      0.080700
     58 H5'        -1.2600    1.9460    2.4220 h1        1 Y2F      0.059700
     59 H5'A       -1.7210    3.2200    1.2080 h1        1 Y2F      0.059700
     60 H023        2.7060    0.2470   -2.1890 hn        1 Y2F      0.474133
     61 H122       -7.7780   -0.6490    2.2250 hn        1 Y2F      0.458300
@<TRIPOS>BOND
     1    1    2 ar  
     2    1    7 ar  
     3    2    3 1   
     4    2    4 ar  
     5    3   29 1   
     6    3   30 1   
     7    3   60 1   
     8    4    5 ar  
     9    4   31 1   
    10    5    6 ar  
    11    5    8 1   
    12    6    7 ar  
    13    6   32 1   
    14    7    9 1   
    15    8   33 1   
    16    8   34 1   
    17    8   35 1   
    18    9   27 1   
    19    9   36 1   
    20    9   37 1   
    21   10   12 1   
    22   10   26 1   
    23   11   18 1   
    24   11   28 1   
    25   11   38 1   
    26   12   13 1   
    27   12   39 1   
    28   12   40 1   
    29   13   14 1   
    30   13   41 1   
    31   13   42 1   
    32   14   15 1   
    33   14   43 1   
    34   14   61 1   
    35   15   16 1   
    36   15   17 1   
    37   15   44 1   
    38   16   45 1   
    39   16   46 1   
    40   16   47 1   
    41   17   19 1   
    42   17   48 1   
    43   17   49 1   
    44   18   26 1   
    45   18   50 1   
    46   18   51 1   
    47   19   20 ar  
    48   19   25 ar  
    49   20   21 ar  
    50   20   52 1   
    51   21   22 ar  
    52   21   53 1   
    53   22   23 ar  
    54   22   54 1   
    55   23   24 1   
    56   23   25 ar  
    57   25   55 1   
    58   26   27 1   
    59   26   56 1   
    60   27   28 1   
    61   27   57 1   
    62   28   58 1   
    63   28   59 1   
@<TRIPOS>SUBSTRUCTURE
     1 Y2F         1 TEMP              0 ****  ****    0 ROOT
