@<TRIPOS>MOLECULE
Y3
   32    33     1     0     0
SMALL
bcc


@<TRIPOS>ATOM
      1 C1          1.7430    0.0540   -1.1590 ca        1 Y3       0.012100
      2 C2          1.3210    0.0660   -2.4740 ca        1 Y3      -0.045000
      3 C3         -0.0490   -0.0220   -2.7980 ca        1 Y3      -0.282500
      4 C4         -0.9590   -0.0790   -1.7720 ca        1 Y3      -0.010000
      5 C5         -0.5570   -0.0900   -0.4050 ca        1 Y3      -0.072000
      6 C6          0.8240   -0.0590   -0.0680 ca        1 Y3      -0.021000
      7 C7          1.1790   -0.1450    1.3270 ca        1 Y3      -0.013400
      8 C8          0.1830   -0.1470    2.2980 ca        1 Y3      -0.033000
      9 C9         -1.1840   -0.1340    1.9530 ca        1 Y3      -0.268500
     10 C10        -1.5360   -0.1280    0.6270 ca        1 Y3      -0.026000
     11 S11        -0.5190   -0.0320   -4.5000 s6        1 Y3       1.459100
     12 O12        -0.4320   -1.3820   -4.9180 o         1 Y3      -0.750533
     13 O13        -1.8370    0.4820   -4.5360 o         1 Y3      -0.750533
     14 O14         0.4330    0.8000   -5.1470 o         1 Y3      -0.750533
     15 N15         2.5370   -0.3150    1.6880 n         1 Y3      -0.459100
     16 C16         3.1780    0.2620    2.7600 c         1 Y3       0.647100
     17 O17         2.6160    0.9620    3.6270 o         1 Y3      -0.609100
     18 C18         4.6640   -0.0320    2.8760 c3        1 Y3      -0.178100
     19 S19        -2.4080   -0.1650    3.2330 s6        1 Y3       1.458100
     20 O20        -3.5510   -0.7520    2.6370 o         1 Y3      -0.749200
     21 O21        -1.8460   -0.9540    4.2690 o         1 Y3      -0.749200
     22 O22        -2.6130    1.1830    3.6110 o         1 Y3      -0.749200
     23 O23         3.1200    0.1340   -0.9440 oh        1 Y3      -0.550100
     24 H2          2.0560    0.1650   -3.2900 ha        1 Y3       0.149000
     25 H4         -2.0390   -0.1060   -2.0000 ha        1 Y3       0.150000
     26 H8          0.4460   -0.1760    3.3720 ha        1 Y3       0.164000
     27 H10        -2.6030   -0.1630    0.3430 ha        1 Y3       0.151000
     28 HN5         3.1050   -0.7450    0.9890 hn        1 Y3       0.324500
     29 H181        5.0660    0.5090    3.7650 hc        1 Y3       0.050700
     30 H182        4.8320   -1.1270    3.0100 hc        1 Y3       0.050700
     31 H183        5.2070    0.3110    1.9640 hc        1 Y3       0.050700
     32 HO3         3.2920    1.0630   -0.7390 ho        1 Y3       0.397000
@<TRIPOS>BOND
     1    1    2 ar  
     2    1    6 ar  
     3    1   23 1   
     4    2    3 ar  
     5    2   24 1   
     6    3    4 ar  
     7    3   11 1   
     8    4    5 ar  
     9    4   25 1   
    10    5    6 ar  
    11    5   10 ar  
    12    6    7 ar  
    13    7    8 ar  
    14    7   15 1   
    15    8    9 ar  
    16    8   26 1   
    17    9   10 ar  
    18    9   19 1   
    19   10   27 1   
    20   11   12 1   
    21   11   13 1   
    22   11   14 1   
    23   15   16 1   
    24   15   28 1   
    25   16   17 2   
    26   16   18 1   
    27   18   29 1   
    28   18   30 1   
    29   18   31 1   
    30   19   20 1   
    31   19   21 1   
    32   19   22 1   
    33   23   32 1   
@<TRIPOS>SUBSTRUCTURE
     1 Y3          1 TEMP              0 ****  ****    0 ROOT
