@<TRIPOS>MOLECULE
Y3
   33    34     1     0     0
SMALL
bcc


@<TRIPOS>ATOM
      1 C1          0.2440   -0.5270   -0.1050 ca        1 Y3       0.022100
      2 C2          1.5840   -0.1970   -0.0030 ca        1 Y3      -0.072000
      3 C3          2.1280    0.2240    1.2210 ca        1 Y3      -0.213500
      4 C4          1.3150    0.3070    2.3250 ca        1 Y3      -0.022000
      5 C5         -0.0650   -0.0280    2.2580 ca        1 Y3      -0.063000
      6 C6         -0.6280   -0.4510    1.0180 ca        1 Y3       0.002000
      7 C7         -2.0260   -0.7710    1.0180 ca        1 Y3      -0.107400
      8 C8         -2.7520   -0.8050    2.1970 ca        1 Y3      -0.004000
      9 C9         -2.2130   -0.2850    3.3850 ca        1 Y3      -0.271500
     10 C10        -0.8940    0.0900    3.4130 ca        1 Y3       0.046000
     11 S11         3.8870    0.6350    1.2720 s6        1 Y3       1.461100
     12 O12         4.4980   -0.5320    1.7620 o         1 Y3      -0.735200
     13 O13         4.1810    0.9120   -0.0820 o         1 Y3      -0.735200
     14 O14         3.9540    1.7420    2.1350 o         1 Y3      -0.735200
     15 N15        -2.7360   -1.0190   -0.2370 n4        1 Y3      -0.528200
     16 C16        -4.1810   -0.5700   -0.1860 c         1 Y3       0.573100
     17 O17        -4.9760   -1.3720   -0.6670 o         1 Y3      -0.479100
     18 C18        -4.4780    0.7620    0.4050 c3        1 Y3      -0.202100
     19 S19        -3.4620    0.0290    4.6420 s6        1 Y3       1.466100
     20 O20        -3.7320   -1.2180    5.2230 o         1 Y3      -0.736867
     21 O21        -2.8980    0.9940    5.4840 o         1 Y3      -0.736867
     22 O22        -4.5190    0.4950    3.8040 o         1 Y3      -0.736867
     23 O23        -0.2870   -0.9640   -1.3170 oh        1 Y3      -0.588100
     24 H2          2.2510   -0.2480   -0.8830 ha        1 Y3       0.167000
     25 H4          1.7300    0.6500    3.2890 ha        1 Y3       0.164000
     26 H8         -3.7960   -1.1730    2.2320 ha        1 Y3       0.155000
     27 H10        -0.4610    0.5170    4.3360 ha        1 Y3       0.170000
     28 HN5        -2.2620   -0.4910   -0.9850 hn        1 Y3       0.459800
     29 H181       -5.3910    1.1750   -0.0910 hc        1 Y3       0.126367
     30 H182       -3.6260    1.4770    0.2990 hc        1 Y3       0.126367
     31 H183       -4.6940    0.6530    1.5170 hc        1 Y3       0.126367
     32 HO3         0.4350   -0.9760   -1.9600 ho        1 Y3       0.441000
     33 H152       -2.6820   -2.0170   -0.4730 hn        1 Y3       0.459800
@<TRIPOS>BOND
     1    1    2 ar  
     2    1    6 ar  
     3    1   23 1   
     4    2    3 ar  
     5    2   24 1   
     6    3    4 ar  
     7    3   11 1   
     8    4    5 ar  
     9    4   25 1   
    10    5    6 ar  
    11    5   10 ar  
    12    6    7 ar  
    13    7    8 ar  
    14    7   15 1   
    15    8    9 ar  
    16    8   26 1   
    17    9   10 ar  
    18    9   19 1   
    19   10   27 1   
    20   11   12 1   
    21   11   13 1   
    22   11   14 1   
    23   15   16 1   
    24   15   28 1   
    25   15   33 1   
    26   16   17 2   
    27   16   18 1   
    28   18   29 1   
    29   18   30 1   
    30   18   31 1   
    31   19   20 1   
    32   19   21 1   
    33   19   22 1   
    34   23   32 1   
@<TRIPOS>SUBSTRUCTURE
     1 Y3          1 TEMP              0 ****  ****    0 ROOT
