@<TRIPOS>MOLECULE
Y3
   32    33     1     0     0
SMALL
bcc


@<TRIPOS>ATOM
      1 C1         -0.0510   -0.0690    0.0310 ca        1 Y3       0.060100
      2 C2          1.3300   -0.0870   -0.0000 ca        1 Y3      -0.129000
      3 C3          2.0910   -0.0710    1.1860 ca        1 Y3      -0.257500
      4 C4          1.4210   -0.0470    2.3830 ca        1 Y3      -0.030000
      5 C5         -0.0030   -0.0360    2.4510 ca        1 Y3      -0.058000
      6 C6         -0.7840   -0.0300    1.2620 ca        1 Y3      -0.015000
      7 C7         -2.2180    0.0220    1.4000 ca        1 Y3      -0.004400
      8 C8         -2.7950   -0.0100    2.6660 ca        1 Y3      -0.034000
      9 C9         -2.0120   -0.0320    3.8370 ca        1 Y3      -0.263500
     10 C10        -0.6450   -0.0300    3.7200 ca        1 Y3      -0.031000
     11 S11         3.8520   -0.0900    1.0510 s6        1 Y3       1.458100
     12 O12         4.1200    0.3630   -0.2700 o         1 Y3      -0.750533
     13 O13         4.3290    0.7860    2.0540 o         1 Y3      -0.750533
     14 O14         4.2430   -1.4360    1.2510 o         1 Y3      -0.750533
     15 N15        -3.0440    0.1850    0.2610 ns        1 Y3      -0.443100
     16 C16        -4.1670   -0.5700   -0.0220 c         1 Y3       0.648100
     17 O17        -4.7340   -1.3230    0.7940 o         1 Y3      -0.605100
     18 C18        -4.7560   -0.3810   -1.4080 c3        1 Y3      -0.178100
     19 S19        -2.8050   -0.0220    5.4220 s6        1 Y3       1.457100
     20 O20        -1.8740    0.5920    6.2970 o         1 Y3      -0.748867
     21 O21        -3.9900    0.7350    5.2420 o         1 Y3      -0.748867
     22 O22        -3.0550   -1.3760    5.7450 o         1 Y3      -0.748867
     23 O23        -0.7530   -0.1030   -1.1700 oh        1 Y3      -0.550100
     24 H2          1.8720   -0.1020   -0.9620 ha        1 Y3       0.145000
     25 H4          1.9870   -0.0260    3.3300 ha        1 Y3       0.144000
     26 H8         -3.8950   -0.0060    2.7800 ha        1 Y3       0.163000
     27 H10        -0.0170   -0.0110    4.6290 ha        1 Y3       0.150000
     28 HN5        -2.5970    0.6160   -0.5200 hn        1 Y3       0.315500
     29 H181       -5.6740   -1.0100   -1.4950 hc        1 Y3       0.049700
     30 H182       -4.0220   -0.6960   -2.1870 hc        1 Y3       0.049700
     31 H183       -5.0300    0.6880   -1.5760 hc        1 Y3       0.049700
     32 HO3        -0.0990   -0.1380   -1.8810 ho        1 Y3       0.410000
@<TRIPOS>BOND
     1    1    2 ar  
     2    1    6 ar  
     3    1   23 1   
     4    2    3 ar  
     5    2   24 1   
     6    3    4 ar  
     7    3   11 1   
     8    4    5 ar  
     9    4   25 1   
    10    5    6 ar  
    11    5   10 ar  
    12    6    7 ar  
    13    7    8 ar  
    14    7   15 1   
    15    8    9 ar  
    16    8   26 1   
    17    9   10 ar  
    18    9   19 1   
    19   10   27 1   
    20   11   12 1   
    21   11   13 1   
    22   11   14 1   
    23   15   16 1   
    24   15   28 1   
    25   16   17 2   
    26   16   18 1   
    27   18   29 1   
    28   18   30 1   
    29   18   31 1   
    30   19   20 1   
    31   19   21 1   
    32   19   22 1   
    33   23   32 1   
@<TRIPOS>SUBSTRUCTURE
     1 Y3          1 TEMP              0 ****  ****    0 ROOT
