@<TRIPOS>MOLECULE
Y30
   70    73     1     0     0
SMALL
bcc


@<TRIPOS>ATOM
      1 OAE         2.7110    1.9600    0.4390 os        1 Y30     -0.542200
      2 CBA         3.1860    0.6810    0.2100 c         1 Y30      0.686300
      3 OAG         3.7260    0.1060    1.1520 o         1 Y30     -0.488000
      4 CBH         2.9940    0.2240   -1.1610 cc        1 Y30     -0.115300
      5 NAY         3.7600   -0.8580   -1.6200 na        1 Y30     -0.132400
      6 CBJ         3.4280   -1.1000   -2.9470 ca        1 Y30     -0.004200
      7 CAU         3.9190   -2.0700   -3.8430 ca        1 Y30     -0.137000
      8 CBD         3.3970   -2.0670   -5.1260 ca        1 Y30      0.058400
      9 ClI         3.9450   -3.2080   -6.2510 cl        1 Y30     -0.045400
     10 CAQ         2.4100   -1.1310   -5.5340 ca        1 Y30     -0.128000
     11 CAT         1.9260   -0.1820   -4.6600 ca        1 Y30     -0.071000
     12 CBK         2.4210   -0.1430   -3.3470 ca        1 Y30     -0.100800
     13 CBI         2.1550    0.6840   -2.1960 cd        1 Y30     -0.102400
     14 CA          1.0970    1.7330   -2.1830 c3        1 Y30      0.208700
     15 C           1.7880    3.1140   -2.3630 c         1 Y30      0.537100
     16 NAX         1.6010    4.1300   -1.2800 ny        1 Y30     -0.668800
     17 CBN         2.0720    5.5590   -1.5390 c3        1 Y30      0.160200
     18 CAA         3.5910    5.6050   -1.7060 c3        1 Y30     -0.127100
     19 CAC         1.3920    6.1380   -2.7790 c3        1 Y30     -0.127100
     20 CAB         1.6830    6.4040   -0.3160 c3        1 Y30     -0.127100
     21 O           2.4460    3.4090   -3.3490 o         1 Y30     -0.430100
     22 N           0.1880    1.7240   -1.0560 n7        1 Y30     -0.857200
     23 CAJ         2.8570    2.5630    1.6880 c         1 Y30      0.675900
     24 OAD         2.4750    3.7270    1.6180 o         1 Y30     -0.501000
     25 CAW        -1.1670    1.2700   -1.3240 c3        1 Y30      0.219100
     26 CBF        -1.3650   -0.2100   -1.4250 ca        1 Y30     -0.190300
     27 CAP        -1.1430   -1.0220   -0.3030 ca        1 Y30     -0.081500
     28 CAS        -1.3500   -2.3910   -0.3660 ca        1 Y30     -0.177000
     29 CAO        -1.8110   -0.7880   -2.6140 ca        1 Y30     -0.081500
     30 CAR        -2.0300   -2.1630   -2.7000 ca        1 Y30     -0.177000
     31 CBG        -1.7960   -2.9660   -1.5760 ca        1 Y30      0.155100
     32 OAZ        -1.9530   -4.3310   -1.5360 os        1 Y30     -0.318900
     33 CAV        -2.5520   -4.9310   -2.7000 c3        1 Y30      0.176700
     34 CBE        -2.7340   -6.3830   -2.4090 ca        1 Y30     -0.106300
     35 CAM        -3.8520   -7.0460   -2.9260 ca        1 Y30     -0.101500
     36 CAN        -1.7920   -7.0910   -1.6580 ca        1 Y30     -0.101500
     37 CAL        -1.9590   -8.4550   -1.4250 ca        1 Y30     -0.124000
     38 CBC        -3.0750   -9.1130   -1.9530 ca        1 Y30      0.027400
     39 ClH        -3.2810  -10.7750   -1.6790 cl        1 Y30     -0.077400
     40 CAK        -4.0230   -8.4100   -2.7050 ca        1 Y30     -0.124000
     41 H2          4.3950   -1.3770   -1.0630 hn        1 Y30      0.333700
     42 H3          4.6850   -2.7960   -3.5310 ha        1 Y30      0.169000
     43 H4          2.0330   -1.1730   -6.5690 ha        1 Y30      0.165000
     44 H5          1.1650    0.5410   -4.9880 ha        1 Y30      0.141000
     45 H6          2.0950    3.7880   -0.4360 hn        1 Y30      0.474300
     46 H7          3.8970    6.6720   -1.8410 hc        1 Y30      0.073922
     47 H8          4.1070    5.2040   -0.8000 hc        1 Y30      0.073922
     48 H9          3.9200    5.0310   -2.6070 hc        1 Y30      0.073922
     49 H10         1.7140    5.6030   -3.7060 hc        1 Y30      0.073922
     50 H11         0.2800    6.0950   -2.6920 hc        1 Y30      0.073922
     51 H12         1.6930    7.2110   -2.8740 hc        1 Y30      0.073922
     52 H13         0.5740    6.4740   -0.2100 hc        1 Y30      0.073922
     53 H14         2.1180    5.9830    0.6250 hc        1 Y30      0.073922
     54 H15         2.0870    7.4360   -0.4600 hc        1 Y30      0.073922
     55 H16        -0.8160   -0.5680    0.6450 ha        1 Y30      0.128500
     56 H17        -1.1840   -3.0380    0.5080 ha        1 Y30      0.155000
     57 H18        -2.0040   -0.1590   -3.4970 ha        1 Y30      0.128500
     58 H19        -2.3850   -2.5970   -3.6450 ha        1 Y30      0.155000
     59 H20        -1.8590   -4.7920   -3.5740 h1        1 Y30      0.052200
     60 H21        -3.5350   -4.4310   -2.9100 h1        1 Y30      0.052200
     61 H22        -4.6030   -6.4930   -3.5110 ha        1 Y30      0.142000
     62 H23        -0.9200   -6.5640   -1.2400 ha        1 Y30      0.142000
     63 H24        -1.2170   -9.0080   -0.8300 ha        1 Y30      0.153500
     64 H25        -4.9020   -8.9300   -3.1160 ha        1 Y30      0.153500
     65 H26         0.5050    1.6240   -3.1520 h1        1 Y30      0.117700
     66 H27         3.2650    1.9740    2.5260 h5        1 Y30      0.129200
     67 H28        -1.5390    1.7710   -2.2630 h1        1 Y30      0.068700
     68 H29        -1.7870    1.6570   -0.4610 h1        1 Y30      0.068700
     69 HAX2        0.5990    4.1740   -1.0570 hn        1 Y30      0.474300
     70 H           0.5850    1.2300   -0.2770 hn        1 Y30      0.390800
@<TRIPOS>BOND
     1    1    2 1   
     2    1   23 1   
     3    2    3 2   
     4    2    4 1   
     5    4    5 1   
     6    4   13 2   
     7    5    6 1   
     8    5   41 1   
     9    6    7 ar  
    10    6   12 ar  
    11    7    8 ar  
    12    7   42 1   
    13    8    9 1   
    14    8   10 ar  
    15   10   11 ar  
    16   10   43 1   
    17   11   12 ar  
    18   11   44 1   
    19   12   13 1   
    20   13   14 1   
    21   14   15 1   
    22   14   22 1   
    23   14   65 1   
    24   15   16 1   
    25   15   21 2   
    26   16   17 1   
    27   16   45 1   
    28   16   69 1   
    29   17   18 1   
    30   17   19 1   
    31   17   20 1   
    32   18   46 1   
    33   18   47 1   
    34   18   48 1   
    35   19   49 1   
    36   19   50 1   
    37   19   51 1   
    38   20   52 1   
    39   20   53 1   
    40   20   54 1   
    41   22   25 1   
    42   22   70 1   
    43   23   24 2   
    44   23   66 1   
    45   25   26 1   
    46   25   67 1   
    47   25   68 1   
    48   26   27 ar  
    49   26   29 ar  
    50   27   28 ar  
    51   27   55 1   
    52   28   31 ar  
    53   28   56 1   
    54   29   30 ar  
    55   29   57 1   
    56   30   31 ar  
    57   30   58 1   
    58   31   32 1   
    59   32   33 1   
    60   33   34 1   
    61   33   59 1   
    62   33   60 1   
    63   34   35 ar  
    64   34   36 ar  
    65   35   40 ar  
    66   35   61 1   
    67   36   37 ar  
    68   36   62 1   
    69   37   38 ar  
    70   37   63 1   
    71   38   39 1   
    72   38   40 ar  
    73   40   64 1   
@<TRIPOS>SUBSTRUCTURE
     1 Y30         1 TEMP              0 ****  ****    0 ROOT
