@<TRIPOS>MOLECULE
Y30
   70    73     1     0     0
SMALL
bcc


@<TRIPOS>ATOM
      1 OAE         2.7640    1.9720    0.3890 os        1 Y30     -0.542200
      2 CBA         3.2390    0.6940    0.1510 c         1 Y30      0.686300
      3 OAG         3.8040    0.1230    1.0800 o         1 Y30     -0.488000
      4 CBH         3.0140    0.2330   -1.2140 cc        1 Y30     -0.115300
      5 NAY         3.7730   -0.8460   -1.6900 na        1 Y30     -0.132400
      6 CBJ         3.4090   -1.0910   -3.0080 ca        1 Y30     -0.004200
      7 CAU         3.8830   -2.0620   -3.9150 ca        1 Y30     -0.137000
      8 CBD         3.3280   -2.0630   -5.1840 ca        1 Y30      0.058400
      9 CLI         3.8530   -3.2040   -6.3210 cl        1 Y30     -0.045400
     10 CAQ         2.3270   -1.1330   -5.5690 ca        1 Y30     -0.128000
     11 CAT         1.8610   -0.1840   -4.6840 ca        1 Y30     -0.071000
     12 CBK         2.3880   -0.1400   -3.3840 ca        1 Y30     -0.100800
     13 CBI         2.1480    0.6880   -2.2290 cd        1 Y30     -0.102400
     14 CA          1.0850    1.7320   -2.1910 c3        1 Y30      0.208700
     15 C           1.7650    3.1160   -2.3920 c         1 Y30      0.537100
     16 NAX         1.6030    4.1330   -1.3060 n4        1 Y30     -0.668800
     17 CBN         2.0580    5.5630   -1.5810 c3        1 Y30      0.160200
     18 CAA         3.5720    5.6170   -1.7890 c3        1 Y30     -0.127100
     19 CAC         1.3420    6.1360   -2.8030 c3        1 Y30     -0.127100
     20 CAB         1.6980    6.4090   -0.3500 c3        1 Y30     -0.127100
     21 O           2.3950    3.4120   -3.3960 o         1 Y30     -0.430100
     22 N           0.2050    1.7210   -1.0420 n3        1 Y30     -0.857200
     23 CAJ         2.9390    2.5780    1.6320 c         1 Y30      0.675900
     24 OAD         2.5500    3.7410    1.5700 o         1 Y30     -0.501000
     25 CAW        -1.1550    1.2640   -1.2740 c3        1 Y30      0.219100
     26 CBF        -1.3520   -0.2170   -1.3730 ca        1 Y30     -0.190300
     27 CAP        -1.0970   -1.0300   -0.2600 ca        1 Y30     -0.081500
     28 CAS        -1.3020   -2.4000   -0.3210 ca        1 Y30     -0.177000
     29 CAO        -1.8280   -0.7940   -2.5510 ca        1 Y30     -0.081500
     30 CAR        -2.0450   -2.1680   -2.6350 ca        1 Y30     -0.177000
     31 CBG        -1.7780   -2.9730   -1.5200 ca        1 Y30      0.155100
     32 OAZ        -1.9300   -4.3390   -1.4790 os        1 Y30     -0.318900
     33 CAV        -2.5580   -4.9380   -2.6280 c3        1 Y30      0.176700
     34 CBE        -2.7280   -6.3910   -2.3370 ca        1 Y30     -0.106300
     35 CAM        -3.8570   -7.0570   -2.8260 ca        1 Y30     -0.101500
     36 CAN        -1.7640   -7.0980   -1.6120 ca        1 Y30     -0.101500
     37 CAL        -1.9210   -8.4630   -1.3790 ca        1 Y30     -0.124000
     38 CBC        -3.0480   -9.1230   -1.8790 ca        1 Y30      0.027400
     39 CLH        -3.2420  -10.7870   -1.6040 cl        1 Y30     -0.077400
     40 CAK        -4.0180   -8.4220   -2.6040 ca        1 Y30     -0.124000
     41 H2          4.4240   -1.3610   -1.1490 hn        1 Y30      0.333700
     42 H3          4.6590   -2.7830   -3.6200 ha        1 Y30      0.169000
     43 H4          1.9250   -1.1780   -6.5940 ha        1 Y30      0.165000
     44 H5          1.0880    0.5350   -4.9950 ha        1 Y30      0.141000
     45 H6          0.6070    4.1720   -1.0550 hn        1 Y30      0.474800
     46 H7          3.8790    5.0430   -2.6970 hc        1 Y30      0.073922
     47 H8          4.1150    5.2220   -0.8960 hc        1 Y30      0.073922
     48 H9          3.8680    6.6860   -1.9340 hc        1 Y30      0.073922
     49 H10         1.6410    5.6010   -3.7370 hc        1 Y30      0.073922
     50 H11         0.2320    6.0870   -2.6860 hc        1 Y30      0.073922
     51 H12         1.6340    7.2110   -2.9080 hc        1 Y30      0.073922
     52 H13         2.1600    5.9920    0.5800 hc        1 Y30      0.073922
     53 H14         0.5910    6.4740   -0.2140 hc        1 Y30      0.073922
     54 H15         2.0930    7.4430   -0.5060 hc        1 Y30      0.073922
     55 H16        -0.7450   -0.5780    0.6800 ha        1 Y30      0.128500
     56 H17        -1.1100   -3.0480    0.5460 ha        1 Y30      0.155000
     57 H18        -2.0460   -0.1630   -3.4270 ha        1 Y30      0.128500
     58 H19        -2.4240   -2.6020   -3.5710 ha        1 Y30      0.155000
     59 H20        -3.5480   -4.4410   -2.8100 h1        1 Y30      0.052200
     60 H21        -1.8890   -4.7950   -3.5200 h1        1 Y30      0.052200
     61 H22        -4.6240   -6.5040   -3.3900 ha        1 Y30      0.142000
     62 H23        -0.8840   -6.5690   -1.2160 ha        1 Y30      0.142000
     63 H24        -1.1620   -9.0160   -0.8050 ha        1 Y30      0.153500
     64 H25        -4.9060   -8.9430   -2.9940 ha        1 Y30      0.153500
     65 H26         0.4690    1.6180   -3.1440 h1        1 Y30      0.117700
     66 H27         3.3690    1.9920    2.4610 h5        1 Y30      0.129200
     67 H28        -1.5530    1.7660   -2.2020 h1        1 Y30      0.068700
     68 H29        -1.7530    1.6470   -0.3940 h1        1 Y30      0.068700
     69 HAX2        2.1210    3.7960   -0.4760 hn        1 Y30      0.474800
     70 H           0.6230    1.2290   -0.2720 hn        1 Y30      0.390800
@<TRIPOS>BOND
     1    1    2 1   
     2    1   23 1   
     3    2    3 2   
     4    2    4 1   
     5    4    5 1   
     6    4   13 2   
     7    5    6 1   
     8    5   41 1   
     9    6    7 ar  
    10    6   12 ar  
    11    7    8 ar  
    12    7   42 1   
    13    8    9 1   
    14    8   10 ar  
    15   10   11 ar  
    16   10   43 1   
    17   11   12 ar  
    18   11   44 1   
    19   12   13 1   
    20   13   14 1   
    21   14   15 1   
    22   14   22 1   
    23   14   65 1   
    24   15   16 1   
    25   15   21 2   
    26   16   17 1   
    27   16   45 1   
    28   16   69 1   
    29   17   18 1   
    30   17   19 1   
    31   17   20 1   
    32   18   46 1   
    33   18   47 1   
    34   18   48 1   
    35   19   49 1   
    36   19   50 1   
    37   19   51 1   
    38   20   52 1   
    39   20   53 1   
    40   20   54 1   
    41   22   25 1   
    42   22   70 1   
    43   23   24 2   
    44   23   66 1   
    45   25   26 1   
    46   25   67 1   
    47   25   68 1   
    48   26   27 ar  
    49   26   29 ar  
    50   27   28 ar  
    51   27   55 1   
    52   28   31 ar  
    53   28   56 1   
    54   29   30 ar  
    55   29   57 1   
    56   30   31 ar  
    57   30   58 1   
    58   31   32 1   
    59   32   33 1   
    60   33   34 1   
    61   33   59 1   
    62   33   60 1   
    63   34   35 ar  
    64   34   36 ar  
    65   35   40 ar  
    66   35   61 1   
    67   36   37 ar  
    68   36   62 1   
    69   37   38 ar  
    70   37   63 1   
    71   38   39 1   
    72   38   40 ar  
    73   40   64 1   
@<TRIPOS>SUBSTRUCTURE
     1 Y30         1 TEMP              0 ****  ****    0 ROOT
