@<TRIPOS>MOLECULE
Y30
   68    71     1     0     0
SMALL
bcc


@<TRIPOS>ATOM
      1 OAE        -0.8370    1.1600   -2.7790 o         1 Y30     -0.803800
      2 CBA        -1.9370    0.9730   -2.2010 c         1 Y30      0.923800
      3 OAG        -3.0160    1.5770   -2.4570 o         1 Y30     -0.803800
      4 CBH        -1.9720   -0.1060   -1.1230 cc        1 Y30     -0.047300
      5 NAY        -1.4750   -1.3760   -1.4400 na        1 Y30     -0.167400
      6 CBJ        -1.5610   -2.1940   -0.3150 ca        1 Y30     -0.055200
      7 CAU        -1.1920   -3.5320   -0.1240 ca        1 Y30     -0.138000
      8 CBD        -1.4410   -4.0860    1.1260 ca        1 Y30      0.018400
      9 CLI        -1.0040   -5.7160    1.4100 cl        1 Y30     -0.139400
     10 CAQ        -2.0400   -3.3550    2.1680 ca        1 Y30     -0.159000
     11 CAT        -2.4070   -2.0300    1.9800 ca        1 Y30     -0.089000
     12 CBK        -2.1760   -1.4210    0.7470 ca        1 Y30     -0.065800
     13 CBI        -2.4210   -0.0980    0.2050 cd        1 Y30     -0.213400
     14 CA         -3.0100    0.9890    1.0310 c3        1 Y30      0.142900
     15 C          -4.5540    1.0820    0.8310 c         1 Y30      0.651100
     16 NAX        -5.0520    0.9280   -0.4300 n         1 Y30     -0.550900
     17 CBN        -6.4660    1.0390   -0.7680 c3        1 Y30      0.130400
     18 CAA        -7.3130   -0.0210   -0.0420 c3        1 Y30     -0.107433
     19 CAC        -7.0380    2.4220   -0.4070 c3        1 Y30     -0.107433
     20 CAB        -6.6540    0.8350   -2.2830 c3        1 Y30     -0.107433
     21 O          -5.2680    1.2450    1.8480 o         1 Y30     -0.657100
     22 N          -2.3750    2.2910    0.9600 n         1 Y30     -0.482800
     23 CAJ        -2.6910    3.2390   -0.0040 c         1 Y30      0.658900
     24 OAD        -2.2380    4.3970    0.0570 o         1 Y30     -0.630100
     25 CAW        -1.3480    2.5790    1.9340 c3        1 Y30      0.141300
     26 CBF         0.0440    2.1040    1.6190 ca        1 Y30     -0.122300
     27 CAP         0.5130    1.9600    0.3110 ca        1 Y30     -0.084500
     28 CAS         1.8310    1.5730    0.0670 ca        1 Y30     -0.176500
     29 CAO         0.9120    1.8520    2.6910 ca        1 Y30     -0.084500
     30 CAR         2.2290    1.4660    2.4690 ca        1 Y30     -0.176500
     31 CBG         2.6850    1.3290    1.1470 ca        1 Y30      0.102100
     32 OAZ         4.0210    0.9700    1.0270 os        1 Y30     -0.343900
     33 CAV         4.4200    0.5680   -0.2880 c3        1 Y30      0.169700
     34 CBE         5.8110    0.0290   -0.2190 ca        1 Y30     -0.076300
     35 CAM         6.5960    0.1350    0.9330 ca        1 Y30     -0.110000
     36 CAN         6.3390   -0.5890   -1.3610 ca        1 Y30     -0.110000
     37 CAL         7.6370   -1.0920   -1.3540 ca        1 Y30     -0.128000
     38 CBC         8.4120   -0.9790   -0.1960 ca        1 Y30      0.012400
     39 CLH        10.0020   -1.5940   -0.1830 cl        1 Y30     -0.114400
     40 CAK         7.8960   -0.3680    0.9490 ca        1 Y30     -0.128000
     41 H2         -0.9660   -1.5710   -2.2630 hn        1 Y30      0.307700
     42 H3         -0.7250   -4.1150   -0.9290 ha        1 Y30      0.138000
     43 H4         -2.2170   -3.8410    3.1380 ha        1 Y30      0.131000
     44 H5         -2.8820   -1.4660    2.7960 ha        1 Y30      0.136000
     45 H6         -4.4100    0.8700   -1.2020 hn        1 Y30      0.369500
     46 H7         -7.2310    0.1140    1.0640 hc        1 Y30      0.041256
     47 H8         -8.3800    0.0920   -0.3460 hc        1 Y30      0.041256
     48 H9         -6.9710   -1.0480   -0.3080 hc        1 Y30      0.041256
     49 H10        -6.5050    3.2240   -0.9710 hc        1 Y30      0.041256
     50 H11        -8.1200    2.4550   -0.6730 hc        1 Y30      0.041256
     51 H12        -6.9270    2.6100    0.6880 hc        1 Y30      0.041256
     52 H13        -6.3620   -0.2010   -2.5790 hc        1 Y30      0.041256
     53 H14        -7.7280    0.9920   -2.5390 hc        1 Y30      0.041256
     54 H15        -6.0320    1.5600   -2.8620 hc        1 Y30      0.041256
     55 H16        -0.1540    2.1320   -0.5570 ha        1 Y30      0.151500
     56 H17         2.1670    1.4630   -0.9730 ha        1 Y30      0.139000
     57 H18         0.5500    1.9580    3.7240 ha        1 Y30      0.151500
     58 H19         2.9120    1.2660    3.3040 ha        1 Y30      0.139000
     59 H20         3.7150   -0.2180   -0.6750 h1        1 Y30      0.057700
     60 H21         4.3920    1.4630   -0.9680 h1        1 Y30      0.057700
     61 H22         6.1790    0.6160    1.8320 ha        1 Y30      0.150000
     62 H23         5.7230   -0.6770   -2.2690 ha        1 Y30      0.150000
     63 H24         8.0460   -1.5760   -2.2540 ha        1 Y30      0.142000
     64 H25         8.5070   -0.2840    1.8600 ha        1 Y30      0.142000
     65 H26        -2.9130    0.6470    2.1150 h1        1 Y30      0.074700
     66 H27        -3.3650    2.8940   -0.8260 h5        1 Y30      0.096200
     67 H28        -1.2940    3.7050    2.0500 h1        1 Y30      0.059700
     68 H29        -1.6580    2.1470    2.9300 h1        1 Y30      0.059700
@<TRIPOS>BOND
     1    1    2 1   
     2    2    3 1   
     3    2    4 1   
     4    4    5 1   
     5    4   13 2   
     6    5    6 1   
     7    5   41 1   
     8    6    7 ar  
     9    6   12 ar  
    10    7    8 ar  
    11    7   42 1   
    12    8    9 1   
    13    8   10 ar  
    14   10   11 ar  
    15   10   43 1   
    16   11   12 ar  
    17   11   44 1   
    18   12   13 1   
    19   13   14 1   
    20   14   15 1   
    21   14   22 1   
    22   14   65 1   
    23   15   16 1   
    24   15   21 2   
    25   16   17 1   
    26   16   45 1   
    27   17   18 1   
    28   17   19 1   
    29   17   20 1   
    30   18   46 1   
    31   18   47 1   
    32   18   48 1   
    33   19   49 1   
    34   19   50 1   
    35   19   51 1   
    36   20   52 1   
    37   20   53 1   
    38   20   54 1   
    39   22   23 1   
    40   22   25 1   
    41   23   24 2   
    42   23   66 1   
    43   25   26 1   
    44   25   67 1   
    45   25   68 1   
    46   26   27 ar  
    47   26   29 ar  
    48   27   28 ar  
    49   27   55 1   
    50   28   31 ar  
    51   28   56 1   
    52   29   30 ar  
    53   29   57 1   
    54   30   31 ar  
    55   30   58 1   
    56   31   32 1   
    57   32   33 1   
    58   33   34 1   
    59   33   59 1   
    60   33   60 1   
    61   34   35 ar  
    62   34   36 ar  
    63   35   40 ar  
    64   35   61 1   
    65   36   37 ar  
    66   36   62 1   
    67   37   38 ar  
    68   37   63 1   
    69   38   39 1   
    70   38   40 ar  
    71   40   64 1   
@<TRIPOS>SUBSTRUCTURE
     1 Y30         1 TEMP              0 ****  ****    0 ROOT
