@<TRIPOS>MOLECULE
Y38
   61    63     1     0     0
SMALL
bcc


@<TRIPOS>ATOM
      1 O15        -0.6790   -2.0070   -3.0320 o         1 Y38     -0.669800
      2 S13        -0.7940   -2.0700   -1.6120 sy        1 Y38      1.492200
      3 O14        -1.2660   -3.3190   -1.1540 o         1 Y38     -0.669800
      4 N16         0.5950   -1.5750   -0.9390 n3        1 Y38     -0.784500
      5 C17         1.3160   -2.1650    0.1810 c3        1 Y38      0.111500
      6 C18         1.0740   -3.6640    0.4390 c3        1 Y38     -0.075700
      7 C19         1.5090   -4.5100   -0.7400 c3        1 Y38     -0.085600
      8 C20         1.8540   -4.0790    1.6730 c3        1 Y38     -0.085600
      9 C21         1.0840   -1.3510    1.4990 c         1 Y38      0.910600
     10 O22        -0.0090   -1.4650    2.1140 o         1 Y38     -0.838800
     11 O23         2.0370   -0.6070    1.8730 o         1 Y38     -0.838800
     12 C24         1.0330   -0.2390   -1.2800 c3        1 Y38      0.193800
     13 C25         2.5230   -0.0860   -1.6750 c3        1 Y38      0.080000
     14 N26         3.3770    0.3430   -0.6000 n         1 Y38     -0.547900
     15 C27         4.0040    1.5700   -0.6280 c         1 Y38      0.660700
     16 O28         4.0560    2.2600   -1.6750 o         1 Y38     -0.654100
     17 C29         4.7120    2.0250    0.6070 ca        1 Y38     -0.137600
     18 C34         5.8650    2.8040    0.4450 ca        1 Y38     -0.087000
     19 C31         6.5580    3.2690    1.5600 ca        1 Y38     -0.153500
     20 C32         6.0990    2.9630    2.8420 ca        1 Y38     -0.124000
     21 C3B         4.2480    1.7230    1.8910 ca        1 Y38     -0.087000
     22 C33         4.9470    2.1960    3.0040 ca        1 Y38     -0.153500
     23 C10        -1.9290   -0.8770   -1.1700 ca        1 Y38     -0.360500
     24 C11        -2.2520   -0.6360    0.1680 ca        1 Y38     -0.020000
     25 C12        -3.2340    0.2950    0.5080 ca        1 Y38     -0.155500
     26 C7         -3.9110    1.0070   -0.4870 cp        1 Y38     -0.001000
     27 C8         -3.5840    0.7740   -1.8330 ca        1 Y38     -0.155500
     28 C9         -2.6060   -0.1550   -2.1620 ca        1 Y38     -0.020000
     29 C1         -4.9430    1.9820   -0.1360 cp        1 Y38     -0.031000
     30 C2         -5.8460    1.7150    0.9040 ca        1 Y38     -0.115500
     31 C3         -6.8310    2.6420    1.2360 ca        1 Y38     -0.135500
     32 C4         -6.9250    3.8470    0.5390 ca        1 Y38     -0.135000
     33 C5         -6.0280    4.1210   -0.4940 ca        1 Y38     -0.135500
     34 C6         -5.0440    3.1950   -0.8320 ca        1 Y38     -0.115500
     35 H1          2.4190   -2.0800   -0.0690 h1        1 Y38      0.048700
     36 H2         -0.0210   -3.8340    0.6460 hc        1 Y38      0.089700
     37 H3          2.5730   -4.2990   -1.0070 hc        1 Y38      0.030033
     38 H4          1.4170   -5.5940   -0.4860 hc        1 Y38      0.030033
     39 H5          0.8690   -4.3110   -1.6330 hc        1 Y38      0.030033
     40 H6          1.5080   -3.4960    2.5620 hc        1 Y38      0.030033
     41 H7          1.6970   -5.1660    1.8720 hc        1 Y38      0.030033
     42 H8          2.9460   -3.8970    1.5300 hc        1 Y38      0.030033
     43 H10         0.4280    0.1040   -2.1710 h1        1 Y38      0.056700
     44 H11         0.8060    0.4510   -0.4130 h1        1 Y38      0.056700
     45 H12         2.9230   -1.0650   -2.0660 h1        1 Y38      0.061700
     46 H13         2.5740    0.6670   -2.5140 h1        1 Y38      0.061700
     47 H14         3.2030   -0.0870    0.2960 hn        1 Y38      0.363500
     48 H15         6.2060    3.0500   -0.5740 ha        1 Y38      0.175000
     49 H16         7.4640    3.8770    1.4280 ha        1 Y38      0.126500
     50 H17         6.6460    3.3300    3.7220 ha        1 Y38      0.117000
     51 H18         3.3350    1.1140    2.0480 ha        1 Y38      0.175000
     52 H19         4.5810    1.9550    4.0130 ha        1 Y38      0.126500
     53 H20        -1.7090   -1.1740    0.9780 ha        1 Y38      0.184000
     54 H21        -3.4600    0.4770    1.5700 ha        1 Y38      0.134500
     55 H22        -4.1100    1.3240   -2.6270 ha        1 Y38      0.134500
     56 H23        -2.3540   -0.3360   -3.2230 ha        1 Y38      0.184000
     57 H24        -5.7740    0.7650    1.4550 ha        1 Y38      0.139000
     58 H25        -7.5350    2.4230    2.0520 ha        1 Y38      0.125500
     59 H26        -7.7000    4.5790    0.8040 ha        1 Y38      0.123000
     60 H27        -6.0950    5.0720   -1.0420 ha        1 Y38      0.125500
     61 H28        -4.3330    3.4180   -1.6420 ha        1 Y38      0.139000
@<TRIPOS>BOND
     1    1    2 2   
     2    2    3 2   
     3    2    4 1   
     4    2   23 1   
     5    4    5 1   
     6    4   12 1   
     7    5    6 1   
     8    5    9 1   
     9    5   35 1   
    10    6    7 1   
    11    6    8 1   
    12    6   36 1   
    13    7   37 1   
    14    7   38 1   
    15    7   39 1   
    16    8   40 1   
    17    8   41 1   
    18    8   42 1   
    19    9   10 1   
    20    9   11 1   
    21   12   13 1   
    22   12   43 1   
    23   12   44 1   
    24   13   14 1   
    25   13   45 1   
    26   13   46 1   
    27   14   15 1   
    28   14   47 1   
    29   15   16 2   
    30   15   17 1   
    31   17   18 ar  
    32   17   21 ar  
    33   18   19 ar  
    34   18   48 1   
    35   19   20 ar  
    36   19   49 1   
    37   20   22 ar  
    38   20   50 1   
    39   21   22 ar  
    40   21   51 1   
    41   22   52 1   
    42   23   24 ar  
    43   23   28 ar  
    44   24   25 ar  
    45   24   53 1   
    46   25   26 ar  
    47   25   54 1   
    48   26   27 ar  
    49   26   29 1   
    50   27   28 ar  
    51   27   55 1   
    52   28   56 1   
    53   29   30 ar  
    54   29   34 ar  
    55   30   31 ar  
    56   30   57 1   
    57   31   32 ar  
    58   31   58 1   
    59   32   33 ar  
    60   32   59 1   
    61   33   34 ar  
    62   33   60 1   
    63   34   61 1   
@<TRIPOS>SUBSTRUCTURE
     1 Y38         1 TEMP              0 ****  ****    0 ROOT
