@<TRIPOS>MOLECULE
Y38
   63    65     1     0     0
SMALL
bcc


@<TRIPOS>ATOM
      1 O15         0.4140   -0.9530   -3.6890 o         1 Y38     -0.681800
      2 S13         0.5180   -0.1870   -2.5320 sy        1 Y38      1.691800
      3 O14        -0.6350   -0.2120   -1.7560 o         1 Y38     -0.681800
      4 N16         1.7650   -3.8760   -0.4340 n3        1 Y38     -0.827200
      5 C17         2.8910   -3.0050   -0.6850 c3        1 Y38      0.154500
      6 C18         3.4570   -2.3670    0.6100 c3        1 Y38     -0.057700
      7 C19         4.7790   -1.6900    0.3070 c3        1 Y38     -0.098100
      8 C20         3.6500   -3.4080    1.6940 c3        1 Y38     -0.098100
      9 C21         2.6050   -1.8710   -1.6740 c         1 Y38      0.666100
     10 O22         3.3320   -1.3970   -2.5440 o         1 Y38     -0.529000
     11 O23         1.3620   -1.3350   -1.5870 os        1 Y38     -0.645800
     12 C24         1.2100   -4.5460   -1.5830 c3        1 Y38      0.156800
     13 C25        -0.3200   -4.4870   -1.7270 c3        1 Y38      0.085800
     14 N26        -0.8440   -3.1560   -2.1430 n4        1 Y38     -0.687800
     15 C27        -2.3410   -3.2340   -2.3810 c         1 Y38      0.582700
     16 O28        -3.0230   -3.2250   -1.3640 o         1 Y38     -0.429100
     17 C29        -2.7890   -3.3590   -3.7690 ca        1 Y38     -0.202600
     18 C34        -3.9860   -4.0680   -3.9820 ca        1 Y38     -0.070500
     19 C31        -4.4810   -4.2160   -5.2740 ca        1 Y38     -0.130000
     20 C32        -3.8000   -3.6510   -6.3540 ca        1 Y38     -0.059000
     21 C3B        -2.1130   -2.7780   -4.8520 ca        1 Y38     -0.070500
     22 C33        -2.6230   -2.9300   -6.1390 ca        1 Y38     -0.130000
     23 C10         1.3280    1.1820   -2.5930 ca        1 Y38     -0.528500
     24 C11         2.4550    1.3480   -3.4250 ca        1 Y38      0.024500
     25 C12         3.1240    2.5590   -3.5000 ca        1 Y38     -0.161000
     26 C7          2.6980    3.6600   -2.7360 cp        1 Y38      0.112000
     27 C8          1.5810    3.5040   -1.8910 ca        1 Y38     -0.161000
     28 C9          0.9160    2.2940   -1.8230 ca        1 Y38      0.024500
     29 C1          3.3980    4.9360   -2.8120 cp        1 Y38     -0.101000
     30 C2          3.9310    5.3800   -4.0320 ca        1 Y38     -0.095500
     31 C3          4.5960    6.6020   -4.1040 ca        1 Y38     -0.129000
     32 C4          4.7450    7.3880   -2.9600 ca        1 Y38     -0.092000
     33 C5          4.2220    6.9500   -1.7420 ca        1 Y38     -0.129000
     34 C6          3.5490    5.7330   -1.6660 ca        1 Y38     -0.095500
     35 H1          3.7080   -3.6300   -1.1630 h1        1 Y38      0.107700
     36 H2          2.7210   -1.5950    0.9700 hc        1 Y38      0.057700
     37 H3          5.5480   -2.4440    0.0080 hc        1 Y38      0.050033
     38 H4          5.1440   -1.1570    1.2180 hc        1 Y38      0.050033
     39 H5          4.6730   -0.9470   -0.5200 hc        1 Y38      0.050033
     40 H6          4.2300   -2.9640    2.5400 hc        1 Y38      0.050033
     41 H7          4.2140   -4.2870    1.3000 hc        1 Y38      0.050033
     42 H8          2.6700   -3.7630    2.0930 hc        1 Y38      0.050033
     43 H10         1.6890   -4.1930   -2.5430 h1        1 Y38      0.080200
     44 H11         1.4570   -5.6450   -1.4670 h1        1 Y38      0.080200
     45 H12        -0.8230   -4.7620   -0.7540 hx        1 Y38      0.110700
     46 H13        -0.6240   -5.2380   -2.5130 hx        1 Y38      0.110700
     47 H14        -0.6590   -2.4580   -1.4010 hn        1 Y38      0.477300
     48 H15        -4.5300   -4.4970   -3.1240 ha        1 Y38      0.165000
     49 H16        -5.4160   -4.7760   -5.4410 ha        1 Y38      0.163500
     50 H17        -4.1950   -3.7680   -7.3770 ha        1 Y38      0.162000
     51 H18        -1.2020   -2.1680   -4.7180 ha        1 Y38      0.165000
     52 H19        -2.0950   -2.4710   -6.9910 ha        1 Y38      0.163500
     53 H20         2.8190    0.4830   -4.0120 ha        1 Y38      0.167000
     54 H21         4.0070    2.6560   -4.1540 ha        1 Y38      0.165500
     55 H22         1.2290    4.3590   -1.2900 ha        1 Y38      0.165500
     56 H23         0.0360    2.1880   -1.1610 ha        1 Y38      0.167000
     57 H24         3.8110    4.7700   -4.9410 ha        1 Y38      0.137500
     58 H25         5.0040    6.9470   -5.0660 ha        1 Y38      0.148000
     59 H26         5.2740    8.3510   -3.0180 ha        1 Y38      0.149000
     60 H27         4.3420    7.5660   -0.8380 ha        1 Y38      0.148000
     61 H28         3.1460    5.3910   -0.7000 ha        1 Y38      0.137500
     62 H161        1.0770   -3.4390    0.1460 hn        1 Y38      0.387800
     63 H262       -0.3610   -2.8410   -2.9980 hn        1 Y38      0.477300
@<TRIPOS>BOND
     1    1    2 2   
     2    2    3 2   
     3    2   11 1   
     4    2   23 1   
     5    4    5 1   
     6    4   12 1   
     7    4   62 1   
     8    5    6 1   
     9    5    9 1   
    10    5   35 1   
    11    6    7 1   
    12    6    8 1   
    13    6   36 1   
    14    7   37 1   
    15    7   38 1   
    16    7   39 1   
    17    8   40 1   
    18    8   41 1   
    19    8   42 1   
    20    9   10 2   
    21    9   11 1   
    22   12   13 1   
    23   12   43 1   
    24   12   44 1   
    25   13   14 1   
    26   13   45 1   
    27   13   46 1   
    28   14   15 1   
    29   14   47 1   
    30   14   63 1   
    31   15   16 2   
    32   15   17 1   
    33   17   18 ar  
    34   17   21 ar  
    35   18   19 ar  
    36   18   48 1   
    37   19   20 ar  
    38   19   49 1   
    39   20   22 ar  
    40   20   50 1   
    41   21   22 ar  
    42   21   51 1   
    43   22   52 1   
    44   23   24 ar  
    45   23   28 ar  
    46   24   25 ar  
    47   24   53 1   
    48   25   26 ar  
    49   25   54 1   
    50   26   27 ar  
    51   26   29 1   
    52   27   28 ar  
    53   27   55 1   
    54   28   56 1   
    55   29   30 ar  
    56   29   34 ar  
    57   30   31 ar  
    58   30   57 1   
    59   31   32 ar  
    60   31   58 1   
    61   32   33 ar  
    62   32   59 1   
    63   33   34 ar  
    64   33   60 1   
    65   34   61 1   
@<TRIPOS>SUBSTRUCTURE
     1 Y38         1 TEMP              0 ****  ****    0 ROOT
