@<TRIPOS>MOLECULE
Y38
   61    53     1     0     0
SMALL
bcc


@<TRIPOS>ATOM
      1 O15        -2.1310    0.7140    1.7390 o         1 Y38     -0.949500
      2 S13        -0.7130    0.5510    1.9160 ss        1 Y38      2.830000
      3 O14        -0.6150    0.4860    3.3470 o         1 Y38     -0.949500
      4 N16        -0.1710   -0.8630    1.2070 n2        1 Y38     -0.804000
      5 C17         0.7640   -1.7000    1.9060 c3        1 Y38     -0.037000
      6 C18         0.4070   -1.7380    3.3790 c3        1 Y38     -0.114000
      7 C19        -0.2760   -3.0460    3.6970 c3        1 Y38     -0.204000
      8 C20         1.6740   -1.6140    4.2110 c3        1 Y38     -0.204000
      9 C21         2.1480   -1.1470    1.7420 c2        1 Y38      0.329000
     10 O22         2.5530   -0.2360    2.5050 o         1 Y38     -0.574500
     11 O23         2.8720   -1.5360    0.7840 o         1 Y38     -0.574500
     12 C24        -0.4930   -1.1450   -0.1800 c3        1 Y38     -0.044000
     13 C25        -1.7460   -2.0290   -0.2460 c3        1 Y38     -0.036000
     14 N26        -1.8950   -2.5590   -1.5900 n3        1 Y38     -0.357000
     15 C27        -3.1210   -3.2180   -1.9750 c1        1 Y38      0.333000
     16 O28        -4.1290   -3.0580   -1.3160 o         1 Y38     -0.415000
     17 C29        -3.1380   -4.1650   -3.1910 c1        1 Y38     -0.117000
     18 C34        -3.6390   -3.7220   -4.4110 c1        1 Y38     -0.132000
     19 C31        -3.6980   -4.5890   -5.4930 c1        1 Y38     -0.132000
     20 C32        -3.2570   -5.8960   -5.3580 c1        1 Y38     -0.132000
     21 C3B        -2.6980   -5.4720   -3.0570 c1        1 Y38     -0.087000
     22 C33        -2.7560   -6.3380   -4.1380 c1        1 Y38     -0.132000
     23 C10         0.1870    1.9530    1.2680 c1        1 Y38     -0.807000
     24 C11         1.1990    2.5350    2.0210 c2        1 Y38     -0.005000
     25 C12         1.8180    3.6980    1.5750 c1        1 Y38     -0.146000
     26 C7          1.4250    4.2770    0.3780 c1        1 Y38     -0.001000
     27 C8          0.4140    3.6960   -0.3760 c1        1 Y38     -0.164000
     28 C9         -0.2050    2.5320    0.0700 c1        1 Y38     -0.032000
     29 C1          2.1620    5.5140   -0.1530 c2        1 Y38     -0.033000
     30 C2          3.2950    5.3620   -0.9400 c2        1 Y38     -0.112000
     31 C3          4.0070    6.4810   -1.3580 c1        1 Y38     -0.135000
     32 C4          3.5850    7.7500   -0.9890 c1        1 Y38     -0.132000
     33 C5          2.4520    7.9020   -0.2020 c1        1 Y38     -0.132000
     34 C6          1.7400    6.7840    0.2160 c1        1 Y38     -0.119000
     35 H1          0.7290   -2.6080    1.5370 h1        1 Y38      0.088000
     36 H2         -0.1890   -1.0030    3.5860 hc        1 Y38      0.128000
     37 H3         -1.0950   -3.1230    3.1690 hc        1 Y38      0.069333
     38 H4         -0.4990   -3.0740    4.6510 hc        1 Y38      0.069333
     39 H5          0.3250   -3.7900    3.4800 hc        1 Y38      0.069333
     40 H6          1.9220   -0.6730    4.2880 hc        1 Y38      0.069333
     41 H7          2.4020   -2.1100    3.7760 hc        1 Y38      0.069333
     42 H8          1.5160   -1.9850    5.1070 hc        1 Y38      0.069333
     43 H10        -0.6610   -0.3080   -0.6510 h1        1 Y38      0.096500
     44 H11         0.2600   -1.6130   -0.6020 h1        1 Y38      0.096500
     45 H12        -2.5320   -1.4970   -0.0180 h1        1 Y38      0.101000
     46 H13        -1.6570   -2.7690    0.3890 h1        1 Y38      0.101000
     47 H14        -1.1980   -2.5060   -2.1820 hn        1 Y38      0.277000
     48 H15        -3.9490   -2.8010   -4.5070 ha        1 Y38      0.127000
     49 H16        -4.0490   -4.2780   -6.3500 ha        1 Y38      0.127000
     50 H17        -3.2980   -6.5070   -6.1210 ha        1 Y38      0.127000
     51 H18        -2.3740   -5.7900   -2.1940 ha        1 Y38      0.205000
     52 H19        -2.4450   -7.2610   -4.0430 ha        1 Y38      0.127000
     53 H20         1.4680    2.1340    2.8690 ha        1 Y38      0.212000
     54 H21         2.5280    4.1060    2.1040 ha        1 Y38      0.141000
     55 H22         0.1390    4.1010   -1.2160 ha        1 Y38      0.127000
     56 H23        -0.9170    2.1230   -0.4600 ha        1 Y38      0.154000
     57 H24         3.5910    4.4710   -1.2000 ha        1 Y38      0.146000
     58 H25         4.8060    6.3730   -1.9140 ha        1 Y38      0.128000
     59 H26         4.0770    8.5350   -1.2920 ha        1 Y38      0.127000
     60 H27         2.1390    8.7970    0.0340 ha        1 Y38      0.127000
     61 H28         0.9420    6.8920    0.7710 ha        1 Y38      0.135000
@<TRIPOS>BOND
     1    1    2 1   
     2    2    3 1   
     3    4    5 1   
     4    4   12 1   
     5    5    6 1   
     6    5    9 1   
     7    5   35 1   
     8    6    7 1   
     9    6    8 1   
    10    6   36 1   
    11    7   37 1   
    12    7   38 1   
    13    7   39 1   
    14    8   40 1   
    15    8   41 1   
    16    8   42 1   
    17    9   10 1   
    18    9   11 1   
    19   12   13 1   
    20   12   43 1   
    21   12   44 1   
    22   13   14 1   
    23   13   45 1   
    24   13   46 1   
    25   14   15 1   
    26   14   47 1   
    27   15   16 1   
    28   17   21 1   
    29   18   19 1   
    30   18   48 1   
    31   19   49 1   
    32   20   22 1   
    33   20   50 1   
    34   21   51 1   
    35   22   52 1   
    36   23   24 1   
    37   23   28 1   
    38   24   25 1   
    39   24   53 1   
    40   25   54 1   
    41   26   27 1   
    42   26   29 1   
    43   27   55 1   
    44   28   56 1   
    45   29   30 1   
    46   29   34 1   
    47   30   31 1   
    48   30   57 1   
    49   31   58 1   
    50   32   33 1   
    51   32   59 1   
    52   33   60 1   
    53   34   61 1   
@<TRIPOS>SUBSTRUCTURE
     1 Y38         1 TEMP              0 ****  ****    0 ROOT
