@<TRIPOS>MOLECULE
Y39
   38    38     1     0     0
SMALL
bcc


@<TRIPOS>ATOM
      1 OAB        -0.0250   -0.1960   -0.5070 o         1 Y39     -0.846300
      2 CAM         1.1660    0.1390   -0.2430 c         1 Y39      0.928600
      3 OAC         1.5780    0.4200    0.9190 o         1 Y39     -0.846300
      4 CAO         2.1460    0.2010   -1.4080 cx        1 Y39     -0.201700
      5 CAL         3.1910    1.2800   -1.4330 cx        1 Y39     -0.130400
      6 CAN         3.5950   -0.1450   -1.1630 cx        1 Y39     -0.138700
      7 CAK         4.3530   -0.9180   -2.1920 c3        1 Y39     -0.043400
      8 CAJ         5.8490   -0.8350   -1.9650 c3        1 Y39     -0.077400
      9 CAI         6.6110   -1.6250   -3.0080 c3        1 Y39     -0.079400
     10 CAH         8.1050   -1.5460   -2.7790 c3        1 Y39     -0.079400
     11 CAG         8.8660   -2.3340   -3.8230 c3        1 Y39     -0.078400
     12 CAF        10.3600   -2.2560   -3.5920 c3        1 Y39     -0.079400
     13 CAE        11.1220   -3.0440   -4.6360 c3        1 Y39     -0.079400
     14 CAD        12.6160   -2.9670   -4.4060 c3        1 Y39     -0.080400
     15 CAA        13.3780   -3.7490   -5.4440 c3        1 Y39     -0.091100
     16 H2          1.6850   -0.1100   -2.3630 hc        1 Y39      0.059700
     17 H3          3.2120    1.9960   -0.5920 hc        1 Y39      0.051200
     18 H4          3.4700    1.7420   -2.3950 hc        1 Y39      0.051200
     19 H5          3.8690   -0.4070   -0.1200 hc        1 Y39      0.091700
     20 H6          4.0300   -1.9930   -2.1530 hc        1 Y39      0.029200
     21 H7          4.1100   -0.5380   -3.2200 hc        1 Y39      0.029200
     22 H8          6.1720    0.2380   -1.9940 hc        1 Y39      0.038200
     23 H9          6.0950   -1.2260   -0.9430 hc        1 Y39      0.038200
     24 H10         6.2820   -2.6970   -2.9810 hc        1 Y39      0.034700
     25 H11         6.3660   -1.2320   -4.0300 hc        1 Y39      0.034700
     26 H12         8.3490   -1.9410   -1.7570 hc        1 Y39      0.037200
     27 H13         8.4320   -0.4730   -2.8040 hc        1 Y39      0.037200
     28 H14         8.6230   -1.9390   -4.8440 hc        1 Y39      0.037200
     29 H15         8.5380   -3.4070   -3.7980 hc        1 Y39      0.037200
     30 H16        10.6040   -2.6530   -2.5710 hc        1 Y39      0.038200
     31 H17        10.6890   -1.1840   -3.6160 hc        1 Y39      0.038200
     32 H18        10.7930   -4.1160   -4.6120 hc        1 Y39      0.038200
     33 H19        10.8790   -2.6470   -5.6570 hc        1 Y39      0.038200
     34 H20        12.8560   -3.3630   -3.3840 hc        1 Y39      0.037700
     35 H21        12.9420   -1.8940   -4.4280 hc        1 Y39      0.037700
     36 H22        13.0840   -4.8270   -5.4200 hc        1 Y39      0.029367
     37 H23        13.1700   -3.3530   -6.4670 hc        1 Y39      0.029367
     38 H24        14.4760   -3.6800   -5.2550 hc        1 Y39      0.029367
@<TRIPOS>BOND
     1    1    2 1   
     2    2    3 1   
     3    2    4 1   
     4    4    5 1   
     5    4    6 1   
     6    4   16 1   
     7    5    6 1   
     8    5   17 1   
     9    5   18 1   
    10    6    7 1   
    11    6   19 1   
    12    7    8 1   
    13    7   20 1   
    14    7   21 1   
    15    8    9 1   
    16    8   22 1   
    17    8   23 1   
    18    9   10 1   
    19    9   24 1   
    20    9   25 1   
    21   10   11 1   
    22   10   26 1   
    23   10   27 1   
    24   11   12 1   
    25   11   28 1   
    26   11   29 1   
    27   12   13 1   
    28   12   30 1   
    29   12   31 1   
    30   13   14 1   
    31   13   32 1   
    32   13   33 1   
    33   14   15 1   
    34   14   34 1   
    35   14   35 1   
    36   15   36 1   
    37   15   37 1   
    38   15   38 1   
@<TRIPOS>SUBSTRUCTURE
     1 Y39         1 TEMP              0 ****  ****    0 ROOT
