@<TRIPOS>MOLECULE
Y3A
   57    51     1     0     0
SMALL
bcc


@<TRIPOS>ATOM
      1 C23         0.3640   -1.3910    4.5900 c1        1 Y3A      0.379000
      2 O41         1.2830   -2.1890    4.5410 o         1 Y3A     -0.399000
      3 O5          0.1540   -0.5950    5.7990 os        1 Y3A     -0.269000
      4 C16         0.3920   -1.3150    7.0130 c3        1 Y3A      0.037000
      5 C20         0.6510   -0.3100    8.1670 c1        1 Y3A     -0.121000
      6 C19        -0.3940    0.5010    8.6320 c1        1 Y3A     -0.104000
      7 C18        -0.1790    1.3710    9.6680 c1        1 Y3A     -0.126167
      8 C17         1.0590    1.4530   10.2530 c1        1 Y3A     -0.126167
      9 C22         2.1120    0.6420    9.7900 c1        1 Y3A     -0.126167
     10 C21         1.8960   -0.2330    8.7490 c1        1 Y3A     -0.126167
     11 N31        -0.4390   -1.1730    3.4530 n2        1 Y3A     -0.300000
     12 C14        -0.2130   -1.9550    2.2500 c3        1 Y3A     -0.060000
     13 C13        -0.3920   -1.0940    1.0470 c1        1 Y3A      0.262000
     14 O31        -0.0960    0.0600    1.0890 o         1 Y3A     -0.368000
     15 N3         -0.8570   -1.6910   -0.2170 n2        1 Y3A     -0.343000
     16 CA3        -0.1060   -1.4950   -1.4100 c3        1 Y3A     -0.057000
     17 C3         -1.0130   -0.9040   -2.4960 c2        1 Y3A      0.275000
     18 O3         -1.8160    0.0700   -2.2050 o         1 Y3A     -0.388000
     19 C4         -1.6850   -0.8380   -6.1060 c3        1 Y3A      0.013000
     20 O4         -2.0200   -2.2260   -5.9130 oh        1 Y3A     -0.339000
     21 CA4        -0.8380   -0.3630   -4.9730 c3        1 Y3A      0.036000
     22 N4         -0.8620   -1.3440   -3.9130 n         1 Y3A     -0.364000
     23 CB4         0.5660   -0.1720   -5.4460 c3        1 Y3A     -0.144000
     24 CG4         0.8850    1.2990   -5.4920 c2        1 Y3A     -0.078000
     25 CD1         1.2420    1.8960   -6.7160 c2        1 Y3A     -0.129000
     26 CD2         0.9780    2.0480   -4.2850 c1        1 Y3A     -0.127000
     27 CE1         1.6820    3.2080   -6.7450 c1        1 Y3A     -0.131000
     28 CE2         1.4220    3.3720   -4.3190 c1        1 Y3A     -0.126167
     29 CZ4         1.7750    3.9590   -5.5360 c1        1 Y3A     -0.126167
     30 C15        -2.9640   -0.0080   -6.1640 c3        1 Y3A     -0.248000
     31 H21         1.1890   -1.9080    6.9000 h1        1 Y3A      0.114000
     32 H22        -0.3410   -1.8250    7.2110 h1        1 Y3A      0.114000
     33 H25        -1.3280    0.4440    8.1880 ha        1 Y3A      0.156000
     34 H24        -0.9120    1.9340    9.9930 ha        1 Y3A      0.132167
     35 H23         1.1970    2.0260   10.9330 ha        1 Y3A      0.132167
     36 H27         3.0070    0.7010   10.2130 ha        1 Y3A      0.132167
     37 H26         2.6090   -0.7920    8.4320 ha        1 Y3A      0.132167
     38 H20        -1.1130   -0.5110    3.4690 hn        1 Y3A      0.243000
     39 H18         0.7240   -2.3200    2.2610 h1        1 Y3A      0.135000
     40 H19        -0.8250   -2.6660    2.2180 h1        1 Y3A      0.135000
     41 HN3        -1.7230   -2.0500   -0.2680 hn        1 Y3A      0.238000
     42 HA3         0.5970   -0.9050   -1.2380 h1        1 Y3A      0.127500
     43 HA3A        0.2510   -2.3480   -1.7140 h1        1 Y3A      0.127500
     44 HO4        -2.1900   -2.6170   -6.7290 ho        1 Y3A      0.206000
     45 HA4        -1.1880    0.4910   -4.6400 h1        1 Y3A      0.130000
     46 HN4        -0.8710   -2.2840   -4.1310 hn        1 Y3A      0.240000
     47 HB4         1.1910   -0.6310   -4.8280 hc        1 Y3A      0.104000
     48 HB4A        0.6590   -0.5450   -6.3290 hc        1 Y3A      0.104000
     49 HD1         1.1830    1.3780   -7.5560 ha        1 Y3A      0.133000
     50 HD2         0.7260    1.6300   -3.4170 ha        1 Y3A      0.143000
     51 HE1         1.9400    3.6400   -7.6360 ha        1 Y3A      0.131000
     52 HE2         1.4900    3.9080   -3.4570 ha        1 Y3A      0.132167
     53 HZ4         2.1020    4.9320   -5.5630 ha        1 Y3A      0.132167
     54 H4         -1.2100   -0.7410   -6.9120 h1        1 Y3A      0.093000
     55 H15        -3.7770   -0.6330   -6.1660 hc        1 Y3A      0.086333
     56 H15A       -2.9670    0.5190   -6.9630 hc        1 Y3A      0.086333
     57 H15B       -3.0050    0.5900   -5.3750 hc        1 Y3A      0.086333
@<TRIPOS>BOND
     1    1    2 1   
     2    1    3 1   
     3    3    4 1   
     4    4    5 1   
     5    4   31 1   
     6    4   32 1   
     7    5    6 1   
     8    6   33 1   
     9    7    8 1   
    10    7   34 1   
    11    8   35 1   
    12    9   10 1   
    13    9   36 1   
    14   10   37 1   
    15   11   12 1   
    16   11   38 1   
    17   12   13 1   
    18   12   39 1   
    19   12   40 1   
    20   13   14 1   
    21   15   16 1   
    22   15   41 1   
    23   16   17 1   
    24   16   42 1   
    25   16   43 1   
    26   17   18 1   
    27   17   22 1   
    28   19   20 1   
    29   19   21 1   
    30   19   30 1   
    31   19   54 1   
    32   20   44 1   
    33   21   22 1   
    34   21   23 1   
    35   21   45 1   
    36   22   46 1   
    37   23   24 1   
    38   23   47 1   
    39   23   48 1   
    40   24   25 1   
    41   24   26 1   
    42   25   27 1   
    43   25   49 1   
    44   26   50 1   
    45   27   51 1   
    46   28   29 1   
    47   28   52 1   
    48   29   53 1   
    49   30   55 1   
    50   30   56 1   
    51   30   57 1   
@<TRIPOS>SUBSTRUCTURE
     1 Y3A         1 TEMP              0 ****  ****    0 ROOT
