@<TRIPOS>MOLECULE
Y3A
   57    58     1     0     0
SMALL
bcc


@<TRIPOS>ATOM
      1 C23         3.9580   -0.2350    1.4310 c         1 Y3A      0.721100
      2 O41         3.9590    0.5420    2.4000 o         1 Y3A     -0.581000
      3 O5          5.0480   -0.2580    0.5890 os        1 Y3A     -0.433900
      4 C16         6.1380    0.6000    0.9900 c3        1 Y3A      0.196700
      5 C20         7.2230    0.4480   -0.0210 ca        1 Y3A     -0.097300
      6 C19         7.4700   -0.7790   -0.6450 ca        1 Y3A     -0.111000
      7 C18         8.5160   -0.8990   -1.5590 ca        1 Y3A     -0.131500
      8 C17         9.3230    0.2010   -1.8490 ca        1 Y3A     -0.124000
      9 C22         9.0790    1.4260   -1.2270 ca        1 Y3A     -0.131500
     10 C21         8.0290    1.5530   -0.3190 ca        1 Y3A     -0.111000
     11 N31         3.0010   -1.1950    1.1050 n         1 Y3A     -0.489900
     12 C14         1.6720   -1.0280    1.6260 c3        1 Y3A      0.005000
     13 C13         0.6580   -0.4960    0.5990 c         1 Y3A      0.619100
     14 O31         0.8640   -0.5890   -0.6270 o         1 Y3A     -0.608100
     15 N3         -0.4740    0.1210    1.1050 n         1 Y3A     -0.532900
     16 CA3        -1.5820    0.4520    0.2580 c3        1 Y3A      0.008000
     17 C3         -2.8200   -0.4320    0.4990 c         1 Y3A      0.630100
     18 O3         -2.9870   -1.0310    1.5810 o         1 Y3A     -0.619100
     19 C4         -5.1150   -2.5250   -1.1110 c3        1 Y3A      0.130100
     20 O4         -4.8120   -2.4050   -2.4900 oh        1 Y3A     -0.598800
     21 CA4        -5.0160   -1.1530   -0.3840 c3        1 Y3A      0.070700
     22 N4         -3.7190   -0.5330   -0.5400 n         1 Y3A     -0.552900
     23 CB4        -6.1630   -0.2660   -0.9040 c3        1 Y3A     -0.056100
     24 CG4        -6.1580    1.1010   -0.3210 ca        1 Y3A     -0.087300
     25 CD1        -5.9110    2.2150   -1.1320 ca        1 Y3A     -0.128000
     26 CD2        -6.4230    1.2910    1.0410 ca        1 Y3A     -0.128000
     27 CE1        -5.9250    3.4980   -0.5870 ca        1 Y3A     -0.127500
     28 CE2        -6.4360    2.5740    1.5830 ca        1 Y3A     -0.127500
     29 CZ4        -6.1870    3.6800    0.7700 ca        1 Y3A     -0.130000
     30 H21         5.7590    1.6550    1.0440 h1        1 Y3A      0.065200
     31 H22         6.4860    0.2790    2.0090 h1        1 Y3A      0.065200
     32 H25         6.8270   -1.6420   -0.4170 ha        1 Y3A      0.138500
     33 H24         8.7040   -1.8650   -2.0510 ha        1 Y3A      0.133000
     34 H23        10.1490    0.1040   -2.5670 ha        1 Y3A      0.132000
     35 H27         9.7120    2.2950   -1.4560 ha        1 Y3A      0.133000
     36 H26         7.8350    2.5220    0.1650 ha        1 Y3A      0.138500
     37 H20         3.0520   -1.5490    0.1700 hn        1 Y3A      0.329500
     38 H18         1.3050   -2.0490    1.9390 h1        1 Y3A      0.096700
     39 H19         1.7060   -0.3590    2.5340 h1        1 Y3A      0.096700
     40 HN3        -0.6990   -0.0290    2.0650 hn        1 Y3A      0.324500
     41 HA3        -1.8980    1.5120    0.4880 h1        1 Y3A      0.089700
     42 HA3A       -1.2550    0.3970   -0.8200 h1        1 Y3A      0.089700
     43 HO4        -3.8530   -2.3460   -2.5750 ho        1 Y3A      0.403000
     44 HA4        -5.1790   -1.3490    0.7200 h1        1 Y3A      0.087700
     45 HN4        -3.5980    0.0410   -1.3400 hn        1 Y3A      0.313500
     46 HB4        -6.1060   -0.2190   -2.0260 hc        1 Y3A      0.065700
     47 HB4A       -7.1290   -0.7760   -0.6400 hc        1 Y3A      0.065700
     48 HD1        -5.7120    2.0780   -2.2050 ha        1 Y3A      0.133000
     49 HD2        -6.6190    0.4190    1.6840 ha        1 Y3A      0.133000
     50 HE1        -5.7330    4.3690   -1.2320 ha        1 Y3A      0.133500
     51 HE2        -6.6440    2.7140    2.6540 ha        1 Y3A      0.133500
     52 HZ4        -6.1990    4.6930    1.1990 ha        1 Y3A      0.133000
     53 H4         -6.1990   -2.8410   -1.1010 h1        1 Y3A      0.075700
     54 C15        -4.2620   -3.5760   -0.4320 c3        1 Y3A     -0.128100
     55 H15        -3.1880   -3.2680   -0.4140 hc        1 Y3A      0.049700
     56 H15A       -4.6010   -3.7230    0.6210 hc        1 Y3A      0.049700
     57 H15B       -4.3460   -4.5440   -0.9820 hc        1 Y3A      0.049700
@<TRIPOS>BOND
     1    1    2 2   
     2    1    3 1   
     3    1   11 1   
     4    3    4 1   
     5    4    5 1   
     6    4   30 1   
     7    4   31 1   
     8    5    6 ar  
     9    5   10 ar  
    10    6    7 ar  
    11    6   32 1   
    12    7    8 ar  
    13    7   33 1   
    14    8    9 ar  
    15    8   34 1   
    16    9   10 ar  
    17    9   35 1   
    18   10   36 1   
    19   11   12 1   
    20   11   37 1   
    21   12   13 1   
    22   12   38 1   
    23   12   39 1   
    24   13   14 2   
    25   13   15 1   
    26   15   16 1   
    27   15   40 1   
    28   16   17 1   
    29   16   41 1   
    30   16   42 1   
    31   17   18 2   
    32   17   22 1   
    33   19   20 1   
    34   19   21 1   
    35   19   53 1   
    36   19   54 1   
    37   20   43 1   
    38   21   22 1   
    39   21   23 1   
    40   21   44 1   
    41   22   45 1   
    42   23   24 1   
    43   23   46 1   
    44   23   47 1   
    45   24   25 ar  
    46   24   26 ar  
    47   25   27 ar  
    48   25   48 1   
    49   26   28 ar  
    50   26   49 1   
    51   27   29 ar  
    52   27   50 1   
    53   28   29 ar  
    54   28   51 1   
    55   29   52 1   
    56   54   55 1   
    57   54   56 1   
    58   54   57 1   
@<TRIPOS>SUBSTRUCTURE
     1 Y3A         1 TEMP              0 ****  ****    0 ROOT
