@<TRIPOS>MOLECULE
Y3M
   56    61     1     0     0
SMALL
bcc


@<TRIPOS>ATOM
      1 O17        -0.7210    0.4050   -0.1000 o         1 Y3M     -0.511000
      2 C16         0.4980    0.2400   -0.1480 c         1 Y3M      0.674700
      3 O18         1.1830    0.1640    1.0440 os        1 Y3M     -0.468900
      4 C19         0.3910    0.2850    2.2390 c3        1 Y3M      0.144400
      5 C20         1.3530    0.1760    3.3960 c3        1 Y3M     -0.101100
      6 C7          1.3550    0.1130   -1.3170 cc        1 Y3M     -0.147900
      7 C3          0.9770    0.0840   -2.6830 cd        1 Y3M      0.143400
      8 N6          2.7500   -0.0070   -1.2620 na        1 Y3M     -0.141100
      9 C5          3.2610   -0.1060   -2.5420 cc        1 Y3M     -0.090300
     10 C4          2.1960   -0.0550   -3.4520 cd        1 Y3M     -0.206300
     11 C2          2.1610   -0.1060   -4.9280 c3        1 Y3M      0.047500
     12 C8          0.7530   -0.2920   -5.4340 ce        1 Y3M     -0.276800
     13 C13         0.5370   -0.7280   -6.7030 c2        1 Y3M      0.121900
     14 O14         1.6220   -1.0830   -7.4700 oh        1 Y3M     -0.493100
     15 C12        -0.8200   -0.8370   -7.3090 c3        1 Y3M     -0.077200
     16 C11        -1.7630    0.1430   -6.6440 c3        1 Y3M     -0.075400
     17 C10        -1.7690   -0.0390   -5.1430 c3        1 Y3M     -0.124700
     18 C9         -0.3870   -0.0290   -4.5350 ce        1 Y3M      0.506600
     19 N1         -0.2930    0.1530   -3.2400 nf        1 Y3M     -0.539100
     20 C15         2.7950    1.1110   -5.5070 cc        1 Y3M      0.302000
     21 O24         2.0930    2.3100   -5.4490 os        1 Y3M     -0.354800
     22 C23         2.9300    3.3060   -5.9950 cc        1 Y3M      0.212000
     23 C22         4.1270    2.7230   -6.3860 cd        1 Y3M     -0.170300
     24 C21         4.0350    1.3170   -6.0930 cd        1 Y3M     -0.280300
     25 S25         2.3350    4.8460   -6.2000 ss        1 Y3M     -0.033500
     26 C26         1.8160    5.3220   -4.6480 cc        1 Y3M      0.348700
     27 N28         1.9490    6.5850   -4.1780 nd        1 Y3M     -0.535100
     28 C29         1.3000    6.5940   -2.9330 ca        1 Y3M      0.057400
     29 C34         1.1070    7.6220   -1.9940 ca        1 Y3M     -0.068000
     30 C33         0.4290    7.3220   -0.8250 ca        1 Y3M     -0.157000
     31 C32        -0.0670    6.0290   -0.5620 ca        1 Y3M     -0.113000
     32 C31         0.0970    4.9860   -1.4580 ca        1 Y3M     -0.132000
     33 C30         0.7800    5.2660   -2.6510 ca        1 Y3M     -0.066200
     34 N27         1.1000    4.4870   -3.7620 na        1 Y3M     -0.253300
     35 H191       -0.1360    1.2740    2.2220 h1        1 Y3M      0.053200
     36 H192       -0.3720   -0.5370    2.2480 h1        1 Y3M      0.053200
     37 H201        1.8840   -0.8050    3.3770 hc        1 Y3M      0.047033
     38 H202        0.7820    0.2630    4.3510 hc        1 Y3M      0.047033
     39 H203        2.1160    0.9900    3.3520 hc        1 Y3M      0.047033
     40 H6          3.2640   -0.0100   -0.4170 hn        1 Y3M      0.317700
     41 H5          4.3330   -0.2010   -2.7230 h4        1 Y3M      0.177000
     42 H2          2.7800   -0.9860   -5.2890 hc        1 Y3M      0.089700
     43 H14         1.3020   -1.3390   -8.3480 ho        1 Y3M      0.424000
     44 H121       -1.1970   -1.8880   -7.1790 hc        1 Y3M      0.063700
     45 H122       -0.7710   -0.6280   -8.4120 hc        1 Y3M      0.063700
     46 H111       -1.4530    1.1920   -6.8980 hc        1 Y3M      0.057700
     47 H112       -2.8010   -0.0090   -7.0390 hc        1 Y3M      0.057700
     48 H101       -2.4010    0.7650   -4.6780 hc        1 Y3M      0.074200
     49 H102       -2.2460   -1.0260   -4.8870 hc        1 Y3M      0.074200
     50 H21         4.7980    0.5710   -6.2980 ha        1 Y3M      0.164000
     51 H22         4.9840    3.2260   -6.8310 ha        1 Y3M      0.169000
     52 H27         0.9810    3.5090   -3.8530 hn        1 Y3M      0.323700
     53 H34         1.4890    8.6330   -2.1940 ha        1 Y3M      0.145000
     54 H33         0.2670    8.1110   -0.0760 ha        1 Y3M      0.130000
     55 H32        -0.6020    5.8490    0.3830 ha        1 Y3M      0.131000
     56 H31        -0.2960    3.9820   -1.2500 ha        1 Y3M      0.147000
@<TRIPOS>BOND
     1    1    2 2   
     2    2    3 1   
     3    2    6 1   
     4    3    4 1   
     5    4    5 1   
     6    4   35 1   
     7    4   36 1   
     8    5   37 1   
     9    5   38 1   
    10    5   39 1   
    11    6    7 2   
    12    6    8 1   
    13    7   10 1   
    14    7   19 1   
    15    8    9 1   
    16    8   40 1   
    17    9   10 2   
    18    9   41 1   
    19   10   11 1   
    20   11   12 1   
    21   11   20 1   
    22   11   42 1   
    23   12   13 2   
    24   12   18 1   
    25   13   14 1   
    26   13   15 1   
    27   14   43 1   
    28   15   16 1   
    29   15   44 1   
    30   15   45 1   
    31   16   17 1   
    32   16   46 1   
    33   16   47 1   
    34   17   18 1   
    35   17   48 1   
    36   17   49 1   
    37   18   19 2   
    38   20   21 1   
    39   20   24 2   
    40   21   22 1   
    41   22   23 2   
    42   22   25 1   
    43   23   24 1   
    44   23   51 1   
    45   24   50 1   
    46   25   26 1   
    47   26   27 2   
    48   26   34 1   
    49   27   28 1   
    50   28   29 ar  
    51   28   33 ar  
    52   29   30 ar  
    53   29   53 1   
    54   30   31 ar  
    55   30   54 1   
    56   31   32 ar  
    57   31   55 1   
    58   32   33 ar  
    59   32   56 1   
    60   33   34 1   
    61   34   52 1   
@<TRIPOS>SUBSTRUCTURE
     1 Y3M         1 TEMP              0 ****  ****    0 ROOT
