@<TRIPOS>MOLECULE
Y46
   44    46     1     0     0
SMALL
bcc


@<TRIPOS>ATOM
      1 CAW         0.4700    0.4140    0.5790 ca        1 Y46     -0.134000
      2 CAX         1.6530    1.0710    0.9230 ca        1 Y46     -0.110500
      3 CBA         1.6320    2.1120    1.8510 ca        1 Y46     -0.076000
      4 CAZ         0.4250    2.4970    2.4430 ca        1 Y46     -0.110500
      5 CAY        -0.7570    1.8400    2.1100 ca        1 Y46     -0.134000
      6 CAV        -0.7390    0.7920    1.1740 ca        1 Y46     -0.219300
      7 CAU        -2.0300    0.1970    0.7160 c3        1 Y46      0.110300
      8 NAN        -2.2160   -1.2170    1.0680 n         1 Y46     -0.352400
      9 CAO        -2.0620   -1.6920    2.3620 cc        1 Y46      0.365800
     10 NAP        -1.5900   -0.7530    3.4060 n4        1 Y46     -0.803600
     11 CAM        -2.6020   -2.1200    0.0280 c         1 Y46      0.807500
     12 OAL        -2.7000   -1.7560   -1.1470 o         1 Y46     -0.484500
     13 NAD        -2.8850   -3.4700    0.3810 n         1 Y46     -0.439100
     14 CAE        -2.7770   -3.9310    1.6580 cd        1 Y46      0.501700
     15 OAA        -3.0310   -5.1740    1.8690 os        1 Y46     -0.444800
     16 CAF        -2.3290   -3.0140    2.7290 cc        1 Y46     -0.135600
     17 NAG        -2.1390   -3.4330    4.0590 nh        1 Y46     -0.808600
     18 SAH        -4.0810   -6.3730    2.8910 sy        1 Y46      1.745800
     19 OAC        -3.5070   -5.9130    4.0430 o         1 Y46     -0.599800
     20 OAQ        -5.2340   -5.8270    2.4220 o         1 Y46     -0.599800
     21 CAI        -3.6600   -7.7850    2.3710 ca        1 Y46     -0.578500
     22 CAJ        -2.5960   -8.5130    2.9660 ca        1 Y46      0.029000
     23 CAK        -2.2640   -9.7860    2.5360 ca        1 Y46     -0.148500
     24 CAT        -2.9800  -10.3830    1.4900 ca        1 Y46      0.034000
     25 CAS        -4.0320   -9.6890    0.8800 ca        1 Y46     -0.148500
     26 CAR        -4.3640   -8.4150    1.3100 ca        1 Y46      0.029000
     27 HAW         0.4880   -0.3780   -0.1870 ha        1 Y46      0.146000
     28 HAX         2.6010    0.7810    0.4390 ha        1 Y46      0.173000
     29 HBA         2.5640    2.6470    2.1030 ha        1 Y46      0.178000
     30 HAZ         0.4060    3.3410    3.1540 ha        1 Y46      0.173000
     31 HAY        -1.7120    2.2010    2.5240 ha        1 Y46      0.146000
     32 HAU1       -2.9100    0.7660    1.1410 h1        1 Y46      0.120200
     33 HAU2       -2.0850    0.2790   -0.4160 h1        1 Y46      0.120200
     34 HAP1       -2.2180    0.0640    3.4610 hn        1 Y46      0.499467
     35 HAP2       -1.5630   -1.2380    4.3210 hn        1 Y46      0.499467
     36 HAD        -3.1760   -4.0780   -0.3710 hn        1 Y46      0.404500
     37 HAG        -3.0080   -3.6880    4.5020 hn        1 Y46      0.426300
     38 HAJ        -2.0340   -8.0520    3.8000 ha        1 Y46      0.168000
     39 HAR        -5.2050   -7.8770    0.8310 ha        1 Y46      0.168000
     40 HAK        -1.4380  -10.3360    3.0200 ha        1 Y46      0.185000
     41 HAT        -2.7170  -11.4020    1.1500 ha        1 Y46      0.184000
     42 HAS        -4.6010  -10.1610    0.0590 ha        1 Y46      0.185000
     43 HAP3       -0.6400   -0.4110    3.1600 hn        1 Y46      0.499467
     44 HAG2       -1.4980   -4.2060    4.1180 hn        1 Y46      0.426300
@<TRIPOS>BOND
     1    1    2 ar  
     2    1    6 ar  
     3    1   27 1   
     4    2    3 ar  
     5    2   28 1   
     6    3    4 ar  
     7    3   29 1   
     8    4    5 ar  
     9    4   30 1   
    10    5    6 ar  
    11    5   31 1   
    12    6    7 1   
    13    7    8 1   
    14    7   32 1   
    15    7   33 1   
    16    8    9 2   
    17    8   11 1   
    18    9   10 1   
    19    9   16 1   
    20   10   34 1   
    21   10   35 1   
    22   10   43 1   
    23   11   12 2   
    24   11   13 1   
    25   13   14 1   
    26   13   36 1   
    27   14   15 1   
    28   14   16 2   
    29   15   18 1   
    30   16   17 1   
    31   17   37 1   
    32   17   44 1   
    33   18   19 2   
    34   18   20 2   
    35   18   21 1   
    36   21   22 ar  
    37   21   26 ar  
    38   22   23 ar  
    39   22   38 1   
    40   23   24 ar  
    41   23   40 1   
    42   24   25 ar  
    43   24   41 1   
    44   25   26 ar  
    45   25   42 1   
    46   26   39 1   
@<TRIPOS>SUBSTRUCTURE
     1 Y46         1 TEMP              0 ****  ****    0 ROOT
