@<TRIPOS>MOLECULE
Y46
   42    44     1     0     0
SMALL
bcc


@<TRIPOS>ATOM
      1 CAW        -4.9820   -0.1570    0.3110 ca        1 Y46     -0.116500
      2 CAX        -5.9240   -1.0340   -0.2250 ca        1 Y46     -0.127000
      3 CBA        -6.1450   -1.0680   -1.6020 ca        1 Y46     -0.118000
      4 CAZ        -5.4250   -0.2210   -2.4440 ca        1 Y46     -0.127000
      5 CAY        -4.4780    0.6540   -1.9140 ca        1 Y46     -0.116500
      6 CAV        -4.2510    0.6860   -0.5340 ca        1 Y46     -0.128300
      7 CAU        -3.2710    1.6620    0.0470 c3        1 Y46      0.130300
      8 NAN        -2.1820    1.0690    0.8040 n         1 Y46     -0.393000
      9 CAO        -1.1260    0.3820    0.1680 cc        1 Y46      0.375600
     10 NAP        -1.2060    0.1160   -1.1780 nh        1 Y46     -0.858600
     11 CAM        -2.2360    1.1570    2.2230 c         1 Y46      0.820500
     12 OAL        -3.2490    1.6290    2.7850 o         1 Y46     -0.646500
     13 NAD        -1.1440    0.7240    2.9690 n         1 Y46     -0.578500
     14 CAE         0.0070    0.1620    2.3890 c         1 Y46      0.736700
     15 OAA         0.9280   -0.1880    3.1500 o         1 Y46     -0.629500
     16 CAF         0.0060   -0.0010    0.9300 cd        1 Y46     -0.208200
     17 NAG         1.1060   -0.6500    0.3580 nh        1 Y46     -0.743900
     18 SAH         2.2130    0.1670   -0.5100 sy        1 Y46      1.516200
     19 OAC         1.7140    0.2850   -1.8340 o         1 Y46     -0.666800
     20 OAQ         2.6060    1.3770    0.0780 o         1 Y46     -0.666800
     21 CAI         3.4950   -0.9250   -0.4940 ca        1 Y46     -0.389500
     22 CAJ         3.7490   -1.7560   -1.5930 ca        1 Y46     -0.012500
     23 CAK         4.8310   -2.6320   -1.5880 ca        1 Y46     -0.158000
     24 CAT         5.6760   -2.6880   -0.4790 ca        1 Y46     -0.062000
     25 CAS         5.4380   -1.8630    0.6210 ca        1 Y46     -0.158000
     26 CAR         4.3540   -0.9880    0.6110 ca        1 Y46     -0.012500
     27 HAW        -4.8150   -0.1120    1.3990 ha        1 Y46      0.140500
     28 HAX        -6.4950   -1.6970    0.4420 ha        1 Y46      0.137500
     29 HBA        -6.8900   -1.7600   -2.0230 ha        1 Y46      0.136000
     30 HAZ        -5.6050   -0.2410   -3.5300 ha        1 Y46      0.137500
     31 HAY        -3.9230    1.3290   -2.5840 ha        1 Y46      0.140500
     32 HAU1       -2.8250    2.3000   -0.7710 h1        1 Y46      0.086200
     33 HAU2       -3.8380    2.3530    0.7440 h1        1 Y46      0.086200
     34 HAP1       -1.9730    0.4390   -1.7170 hn        1 Y46      0.460300
     35 HAP2       -0.3880   -0.1730   -1.6690 hn        1 Y46      0.460300
     36 HAD        -1.1900    0.8410    3.9590 hn        1 Y46      0.356500
     37 HAG         1.2240   -1.5840    0.6710 hn        1 Y46      0.454800
     38 HAJ         3.0860   -1.6990   -2.4750 ha        1 Y46      0.158500
     39 HAR         4.1730   -0.3250    1.4760 ha        1 Y46      0.158500
     40 HAK         5.0200   -3.2770   -2.4590 ha        1 Y46      0.143500
     41 HAT         6.5320   -3.3800   -0.4730 ha        1 Y46      0.138000
     42 HAS         6.1050   -1.9010    1.4960 ha        1 Y46      0.143500
@<TRIPOS>BOND
     1    1    2 ar  
     2    1    6 ar  
     3    1   27 1   
     4    2    3 ar  
     5    2   28 1   
     6    3    4 ar  
     7    3   29 1   
     8    4    5 ar  
     9    4   30 1   
    10    5    6 ar  
    11    5   31 1   
    12    6    7 1   
    13    7    8 1   
    14    7   32 1   
    15    7   33 1   
    16    8    9 1   
    17    8   11 1   
    18    9   10 1   
    19    9   16 2   
    20   10   34 1   
    21   10   35 1   
    22   11   12 2   
    23   11   13 1   
    24   13   14 1   
    25   13   36 1   
    26   14   15 2   
    27   14   16 1   
    28   16   17 1   
    29   17   18 1   
    30   17   37 1   
    31   18   19 2   
    32   18   20 2   
    33   18   21 1   
    34   21   22 ar  
    35   21   26 ar  
    36   22   23 ar  
    37   22   38 1   
    38   23   24 ar  
    39   23   40 1   
    40   24   25 ar  
    41   24   41 1   
    42   25   26 ar  
    43   25   42 1   
    44   26   39 1   
@<TRIPOS>SUBSTRUCTURE
     1 Y46         1 TEMP              0 ****  ****    0 ROOT
