@<TRIPOS>MOLECULE
Y46
   44    46     1     0     0
SMALL
bcc


@<TRIPOS>ATOM
      1 CAW         0.4940    0.4240    0.6510 ca        1 Y46     -0.134000
      2 CAX         1.6670    1.0820    1.0260 ca        1 Y46     -0.110500
      3 CBA         1.6210    2.1200    1.9570 ca        1 Y46     -0.076000
      4 CAZ         0.3980    2.5010    2.5200 ca        1 Y46     -0.110500
      5 CAY        -0.7730    1.8420    2.1560 ca        1 Y46     -0.134000
      6 CAV        -0.7300    0.7970    1.2180 ca        1 Y46     -0.219300
      7 CAU        -2.0080    0.2010    0.7270 c3        1 Y46      0.110300
      8 NAN        -2.1990   -1.2150    1.0690 n         1 Y46     -0.352400
      9 CAO        -2.0750   -1.6940    2.3650 cc        1 Y46      0.365800
     10 NAP        -1.6300   -0.7580    3.4230 nz        1 Y46     -0.803600
     11 CAM        -2.5580   -2.1150    0.0170 c         1 Y46      0.807500
     12 OAL        -2.6290   -1.7460   -1.1580 o         1 Y46     -0.484500
     13 NAD        -2.8480   -3.4670    0.3590 ns        1 Y46     -0.439100
     14 CAE        -2.7680   -3.9320    1.6370 cd        1 Y46      0.501700
     15 OAA        -3.0250   -5.1760    1.8360 os        1 Y46     -0.444800
     16 CAF        -2.3480   -3.0180    2.7210 cc        1 Y46     -0.135600
     17 NAG        -2.1890   -3.4410    4.0530 nv        1 Y46     -0.808600
     18 SAH        -4.0950   -6.3820    2.8310 sy        1 Y46      1.745800
     19 OAC        -3.5460   -5.9260    3.9960 o         1 Y46     -0.599800
     20 OAQ        -5.2390   -5.8350    2.3400 o         1 Y46     -0.599800
     21 CAI        -3.6610   -7.7910    2.3130 ca        1 Y46     -0.578500
     22 CAJ        -2.6080   -8.5190    2.9260 ca        1 Y46      0.029000
     23 CAK        -2.2650   -9.7900    2.4970 ca        1 Y46     -0.148500
     24 CAT        -2.9580  -10.3830    1.4350 ca        1 Y46      0.034000
     25 CAS        -3.9980   -9.6880    0.8060 ca        1 Y46     -0.148500
     26 CAR        -4.3420   -8.4170    1.2350 ca        1 Y46      0.029000
     27 HAW         0.5320   -0.3650   -0.1160 ha        1 Y46      0.146000
     28 HAX         2.6270    0.7960    0.5640 ha        1 Y46      0.173000
     29 HBA         2.5450    2.6570    2.2340 ha        1 Y46      0.178000
     30 HAZ         0.3600    3.3420    3.2330 ha        1 Y46      0.173000
     31 HAY        -1.7390    2.2000    2.5490 ha        1 Y46      0.146000
     32 HAU1       -2.8990    0.7660    1.1330 h1        1 Y46      0.120200
     33 HAU2       -2.0360    0.2870   -0.4060 h1        1 Y46      0.120200
     34 HAP1       -2.2600    0.0570    3.4660 hn        1 Y46      0.499467
     35 HAP2       -1.6240   -1.2460    4.3370 hn        1 Y46      0.499467
     36 HAD        -3.1190   -4.0720   -0.4020 hn        1 Y46      0.404500
     37 HAG        -3.0680   -3.6990    4.4750 hn        1 Y46      0.426800
     38 HAJ        -2.0640   -8.0610    3.7740 ha        1 Y46      0.168000
     39 HAR        -5.1730   -7.8780    0.7410 ha        1 Y46      0.168000
     40 HAK        -1.4480  -10.3400    2.9970 ha        1 Y46      0.185000
     41 HAT        -2.6870  -11.4000    1.0950 ha        1 Y46      0.184000
     42 HAS        -4.5490  -10.1570   -0.0290 ha        1 Y46      0.185000
     43 HAP3       -0.6750   -0.4130    3.2010 hn        1 Y46      0.499467
     44 HAG2       -1.5490   -4.2140    4.1250 hn        1 Y46      0.426800
@<TRIPOS>BOND
     1    1    2 ar  
     2    1    6 ar  
     3    1   27 1   
     4    2    3 ar  
     5    2   28 1   
     6    3    4 ar  
     7    3   29 1   
     8    4    5 ar  
     9    4   30 1   
    10    5    6 ar  
    11    5   31 1   
    12    6    7 1   
    13    7    8 1   
    14    7   32 1   
    15    7   33 1   
    16    8    9 2   
    17    8   11 1   
    18    9   10 1   
    19    9   16 1   
    20   10   34 1   
    21   10   35 1   
    22   10   43 1   
    23   11   12 2   
    24   11   13 1   
    25   13   14 1   
    26   13   36 1   
    27   14   15 1   
    28   14   16 2   
    29   15   18 1   
    30   16   17 1   
    31   17   37 1   
    32   17   44 1   
    33   18   19 2   
    34   18   20 2   
    35   18   21 1   
    36   21   22 ar  
    37   21   26 ar  
    38   22   23 ar  
    39   22   38 1   
    40   23   24 ar  
    41   23   40 1   
    42   24   25 ar  
    43   24   41 1   
    44   25   26 ar  
    45   25   42 1   
    46   26   39 1   
@<TRIPOS>SUBSTRUCTURE
     1 Y46         1 TEMP              0 ****  ****    0 ROOT
