@<TRIPOS>MOLECULE
Y4L
   26    26     1     0     0
SMALL
bcc


@<TRIPOS>ATOM
      1 Cl          0.1210    1.2870    0.1750 cl        1 Y4L     -0.020400
      2 C5          1.7430    0.8420    0.0470 ca        1 Y4L      0.043400
      3 C4          2.4700    0.5120    1.1990 ca        1 Y4L     -0.105000
      4 C3          3.8060    0.1410    1.0980 ca        1 Y4L     -0.115500
      5 C6          2.3640    0.8070   -1.2080 ca        1 Y4L     -0.105000
      6 C7          3.7030    0.4460   -1.3190 ca        1 Y4L     -0.115500
      7 C2          4.4340    0.0970   -0.1650 ca        1 Y4L      0.039600
      8 N1          5.8110   -0.2520   -0.2480 nu        1 Y4L     -0.793500
      9 S           6.4200   -1.3010   -1.2300 s6        1 Y4L      1.515800
     10 O           5.7750   -1.4520   -2.4440 o         1 Y4L     -0.554800
     11 O1          7.7970   -1.4090   -1.1210 o         1 Y4L     -0.554800
     12 N           5.8450   -2.9830   -0.3470 nx        1 Y4L     -0.603300
     13 C1          6.2050   -4.0950   -1.2420 c3        1 Y4L      0.072600
     14 C           6.4670   -3.1340    0.9750 c3        1 Y4L      0.072600
     15 H4          1.9880    0.5520    2.1900 ha        1 Y4L      0.176500
     16 H6          1.7970    1.0770   -2.1160 ha        1 Y4L      0.176500
     17 H3          4.3680   -0.0930    2.0170 ha        1 Y4L      0.156500
     18 H7          4.1690    0.4320   -2.3190 ha        1 Y4L      0.156500
     19 H1          6.3640    0.2510    0.4230 hn        1 Y4L      0.504800
     20 H11C        5.6980   -3.9470   -2.2360 hx        1 Y4L      0.102533
     21 H12C        7.3210   -4.1130   -1.3800 hx        1 Y4L      0.102533
     22 H13C        5.8810   -5.0820   -0.8140 hx        1 Y4L      0.102533
     23 HC1         7.5810   -3.0090    0.8760 hx        1 Y4L      0.102533
     24 HC2         6.2620   -4.1520    1.4060 hx        1 Y4L      0.102533
     25 HC3         6.0520   -2.3620    1.6770 hx        1 Y4L      0.102533
     26 HN1         4.8330   -2.9860   -0.2330 hn        1 Y4L      0.438800
@<TRIPOS>BOND
     1    1    2 1   
     2    2    3 ar  
     3    2    5 ar  
     4    3    4 ar  
     5    3   15 1   
     6    4    7 ar  
     7    4   17 1   
     8    5    6 ar  
     9    5   16 1   
    10    6    7 ar  
    11    6   18 1   
    12    7    8 1   
    13    8    9 1   
    14    8   19 1   
    15    9   10 2   
    16    9   11 2   
    17    9   12 1   
    18   12   13 1   
    19   12   14 1   
    20   12   26 1   
    21   13   20 1   
    22   13   21 1   
    23   13   22 1   
    24   14   23 1   
    25   14   24 1   
    26   14   25 1   
@<TRIPOS>SUBSTRUCTURE
     1 Y4L         1 TEMP              0 ****  ****    0 ROOT
