@<TRIPOS>MOLECULE
Y4L
   26    26     1     0     0
SMALL
bcc


@<TRIPOS>ATOM
      1 CL          0.0360    1.0680    0.4250 cl        1 Y4L     -0.020400
      2 C5          1.6670    0.6970    0.2110 ca        1 Y4L      0.043400
      3 C4          2.4690    0.4020    1.3210 ca        1 Y4L     -0.105000
      4 C3          3.8130    0.0930    1.1500 ca        1 Y4L     -0.115500
      5 C6          2.2210    0.6890   -1.0750 ca        1 Y4L     -0.105000
      6 C7          3.5670    0.3880   -1.2580 ca        1 Y4L     -0.115500
      7 C2          4.3740    0.0750   -0.1450 ca        1 Y4L      0.039600
      8 N1          5.7600   -0.2110   -0.3020 nh        1 Y4L     -0.793500
      9 S           6.3620   -1.2330   -1.3160 s6        1 Y4L      1.515800
     10 O           5.6610   -1.4160   -2.4940 o         1 Y4L     -0.554800
     11 O1          7.7460   -1.2780   -1.2800 o         1 Y4L     -0.554800
     12 N           5.9120   -2.9380   -0.4040 n4        1 Y4L     -0.603300
     13 C1          6.2750   -4.0340   -1.3170 c3        1 Y4L      0.072600
     14 C           6.6090   -3.0580    0.8830 c3        1 Y4L      0.072600
     15 H4          2.0390    0.4220    2.3370 ha        1 Y4L      0.176500
     16 H6          1.5950    0.9300   -1.9520 ha        1 Y4L      0.176500
     17 H3          4.4330   -0.1140    2.0370 ha        1 Y4L      0.156500
     18 H7          3.9800    0.3930   -2.2820 ha        1 Y4L      0.156500
     19 H1          6.3240    0.3180    0.3390 hn        1 Y4L      0.504800
     20 H11C        7.3820   -4.0010   -1.5140 hx        1 Y4L      0.102533
     21 H12C        5.7100   -3.9110   -2.2830 hx        1 Y4L      0.102533
     22 H13C        6.0200   -5.0340   -0.8740 hx        1 Y4L      0.102533
     23 HC1         6.1970   -2.3040    1.6060 hx        1 Y4L      0.102533
     24 HC2         7.7100   -2.8820    0.7260 hx        1 Y4L      0.102533
     25 HC3         6.4740   -4.0830    1.3240 hx        1 Y4L      0.102533
     26 HN1         4.9090   -2.9870   -0.2360 hn        1 Y4L      0.438800
@<TRIPOS>BOND
     1    1    2 1   
     2    2    3 ar  
     3    2    5 ar  
     4    3    4 ar  
     5    3   15 1   
     6    4    7 ar  
     7    4   17 1   
     8    5    6 ar  
     9    5   16 1   
    10    6    7 ar  
    11    6   18 1   
    12    7    8 1   
    13    8    9 1   
    14    8   19 1   
    15    9   10 2   
    16    9   11 2   
    17    9   12 1   
    18   12   13 1   
    19   12   14 1   
    20   12   26 1   
    21   13   20 1   
    22   13   21 1   
    23   13   22 1   
    24   14   23 1   
    25   14   24 1   
    26   14   25 1   
@<TRIPOS>SUBSTRUCTURE
     1 Y4L         1 TEMP              0 ****  ****    0 ROOT
