@<TRIPOS>MOLECULE
Y5H
   59    63     1     0     0
SMALL
bcc


@<TRIPOS>ATOM
      1 Cl1        -0.1490    0.4630   -1.3130 cl        1 Y5H     -0.013400
      2 C25         1.4540    0.1280   -0.9850 cc        1 Y5H     -0.040700
      3 C24         1.9410   -0.3140    0.2360 cd        1 Y5H     -0.152000
      4 C22         3.3490   -0.5110    0.1930 cd        1 Y5H     -0.103000
      5 S1          2.6760    0.3060   -2.1200 ss        1 Y5H      0.112200
      6 C20         3.8690   -0.2140   -1.0610 cc        1 Y5H     -0.189600
      7 C17         5.2500   -0.3080   -1.4270 cc        1 Y5H      0.579900
      8 N16         5.8410   -0.3060   -2.6290 nd        1 Y5H     -0.674000
      9 O10         6.1890   -0.4130   -0.3760 os        1 Y5H     -0.358800
     10 C9          7.4290   -0.4650   -1.0010 cc        1 Y5H      0.183300
     11 C4          7.2220   -0.4010   -2.3760 cd        1 Y5H      0.233300
     12 C1          8.2820   -0.3550   -3.4310 c3        1 Y5H      0.178200
     13 N3          8.3110    0.9740   -4.0630 n3        1 Y5H     -0.692600
     14 C7          7.9780    0.8480   -5.4980 c3        1 Y5H      0.177500
     15 C14         9.0730    1.5410   -6.3320 c3        1 Y5H     -0.090400
     16 C15        10.1130    2.0410   -5.3380 c3        1 Y5H     -0.098400
     17 C8          9.5720    1.7070   -3.9390 c3        1 Y5H      0.149800
     18 C5          7.8150   -0.6440   -5.8440 c3        1 Y5H     -0.148700
     19 C2          8.0830   -1.4270   -4.5340 c3        1 Y5H     -0.150700
     20 C6          6.8570   -2.3140   -4.3490 c         1 Y5H      0.735500
     21 O13         6.7000   -3.2210   -3.5240 o         1 Y5H     -0.606500
     22 C11         6.3820   -0.9980   -6.2280 c         1 Y5H      0.718500
     23 O18         5.7140   -0.5400   -7.1570 o         1 Y5H     -0.570500
     24 N12         5.9070   -2.0070   -5.3510 n         1 Y5H     -0.518400
     25 C19         4.5390   -2.4300   -5.2980 c3        1 Y5H      0.112000
     26 C21         4.3720   -3.9540   -5.4260 c3        1 Y5H     -0.132400
     27 C23         2.9110   -4.2950   -5.1780 c3        1 Y5H      0.118800
     28 N29         2.6310   -5.7640   -4.9680 n4        1 Y5H     -0.602800
     29 C32         1.1510   -5.9680   -4.9750 c3        1 Y5H      0.088100
     30 C31         3.2430   -6.5720   -6.0620 c3        1 Y5H      0.088100
     31 C30         3.1760   -6.2120   -3.6520 c3        1 Y5H      0.088100
     32 H24         1.3350   -0.4850    1.1300 ha        1 Y5H      0.176000
     33 H22         3.9450   -0.8470    1.0460 ha        1 Y5H      0.176000
     34 H9          8.2840   -0.5460   -0.3370 h4        1 Y5H      0.075100
     35 H1          9.2610   -0.5780   -2.9050 h1        1 Y5H      0.068700
     36 H7          6.9950    1.3790   -5.6520 h1        1 Y5H      0.097700
     37 H82         9.3310    2.6530   -3.3800 h1        1 Y5H      0.056700
     38 H81        10.3450    1.1470   -3.3450 h1        1 Y5H      0.056700
     39 H5          8.4960   -0.9590   -6.6730 hc        1 Y5H      0.105700
     40 H2          8.9920   -2.0750   -4.6070 hc        1 Y5H      0.102700
     41 H141        8.6250    2.3930   -6.9030 hc        1 Y5H      0.059200
     42 H142        9.5300    0.8430   -7.0740 hc        1 Y5H      0.059200
     43 H151       10.2700    3.1420   -5.4400 hc        1 Y5H      0.058200
     44 H152       11.0990    1.5410   -5.5050 hc        1 Y5H      0.058200
     45 H191        4.0960   -2.1030   -4.3110 h1        1 Y5H      0.074200
     46 H192        3.9780   -1.9190   -6.1340 h1        1 Y5H      0.074200
     47 H211        5.0450   -4.4550   -4.6790 hc        1 Y5H      0.080700
     48 H212        4.6810   -4.2850   -6.4520 hc        1 Y5H      0.080700
     49 H231        2.2960   -3.9600   -6.0620 hx        1 Y5H      0.099200
     50 H232        2.5410   -3.7580   -4.2570 hx        1 Y5H      0.099200
     51 H321        0.9230   -7.0470   -4.7640 hx        1 Y5H      0.102367
     52 H322        0.6820   -5.3240   -4.1850 hx        1 Y5H      0.102367
     53 H323        0.7390   -5.6900   -5.9820 hx        1 Y5H      0.102367
     54 H311        2.9250   -7.6430   -5.9560 hx        1 Y5H      0.102367
     55 H312        2.9020   -6.1720   -7.0540 hx        1 Y5H      0.102367
     56 H313        4.3620   -6.5070   -5.9950 hx        1 Y5H      0.102367
     57 H301        2.6960   -5.6180   -2.8290 hx        1 Y5H      0.102367
     58 H302        4.2870   -6.0530   -3.6260 hx        1 Y5H      0.102367
     59 H303        2.9510   -7.3030   -3.5110 hx        1 Y5H      0.102367
@<TRIPOS>BOND
     1    1    2 1   
     2    2    3 2   
     3    2    5 1   
     4    3    4 1   
     5    3   32 1   
     6    4    6 2   
     7    4   33 1   
     8    5    6 1   
     9    6    7 1   
    10    7    8 2   
    11    7    9 1   
    12    8   11 1   
    13    9   10 1   
    14   10   11 2   
    15   10   34 1   
    16   11   12 1   
    17   12   13 1   
    18   12   19 1   
    19   12   35 1   
    20   13   14 1   
    21   13   17 1   
    22   14   15 1   
    23   14   18 1   
    24   14   36 1   
    25   15   16 1   
    26   15   41 1   
    27   15   42 1   
    28   16   17 1   
    29   16   43 1   
    30   16   44 1   
    31   17   37 1   
    32   17   38 1   
    33   18   19 1   
    34   18   22 1   
    35   18   39 1   
    36   19   20 1   
    37   19   40 1   
    38   20   21 2   
    39   20   24 1   
    40   22   23 2   
    41   22   24 1   
    42   24   25 1   
    43   25   26 1   
    44   25   45 1   
    45   25   46 1   
    46   26   27 1   
    47   26   47 1   
    48   26   48 1   
    49   27   28 1   
    50   27   49 1   
    51   27   50 1   
    52   28   29 1   
    53   28   30 1   
    54   28   31 1   
    55   29   51 1   
    56   29   52 1   
    57   29   53 1   
    58   30   54 1   
    59   30   55 1   
    60   30   56 1   
    61   31   57 1   
    62   31   58 1   
    63   31   59 1   
@<TRIPOS>SUBSTRUCTURE
     1 Y5H         1 TEMP              0 ****  ****    0 ROOT
