@<TRIPOS>MOLECULE
Y5H
   59    63     1     0     0
SMALL
bcc


@<TRIPOS>ATOM
      1 CL1        -5.1310    1.3690   -2.4510 cl        1 Y5H     -0.013400
      2 C25        -4.0110    1.6910   -1.2550 cc        1 Y5H     -0.040700
      3 C24        -4.3070    2.2260   -0.0100 cd        1 Y5H     -0.152000
      4 C22        -3.1350    2.3770    0.7820 cd        1 Y5H     -0.103000
      5 S1         -2.3680    1.4070   -1.4410 ss        1 Y5H      0.112200
      6 C20        -2.0010    1.9470    0.1050 cc        1 Y5H     -0.189600
      7 C17        -0.6680    1.9690    0.6270 cc        1 Y5H      0.579900
      8 N16         0.4510    1.3660    0.2040 nd        1 Y5H     -0.674000
      9 O10        -0.4400    2.7570    1.7780 os        1 Y5H     -0.358800
     10 C9          0.9150    2.6200    2.0500 cc        1 Y5H      0.183300
     11 C4          1.4630    1.7700    1.0930 cd        1 Y5H      0.233300
     12 C1          2.9070    1.4000    0.9600 c3        1 Y5H      0.178200
     13 N3          3.4780    2.0150   -0.2490 n3        1 Y5H     -0.692600
     14 C7          3.9200    0.9570   -1.1830 c3        1 Y5H      0.177500
     15 C14         5.3860    1.2170   -1.5820 c3        1 Y5H     -0.090400
     16 C15         5.8280    2.4470   -0.8010 c3        1 Y5H     -0.098400
     17 C8          4.5950    2.9340   -0.0240 c3        1 Y5H      0.149800
     18 C5          3.7140   -0.4160   -0.5160 c3        1 Y5H     -0.148700
     19 C2          3.1320   -0.1340    0.8920 c3        1 Y5H     -0.150700
     20 C6          1.8600   -0.9700    0.9660 c         1 Y5H      0.735500
     21 O13         1.1510   -1.1790    1.9560 o         1 Y5H     -0.606500
     22 C11         2.6510   -1.2510   -1.2220 c         1 Y5H      0.718500
     23 O18         2.6470   -1.6350   -2.3930 o         1 Y5H     -0.570500
     24 N12         1.6310   -1.5790   -0.2910 n         1 Y5H     -0.518400
     25 C19         0.3850   -2.1800   -0.6620 c3        1 Y5H      0.112000
     26 C21         0.0580   -3.4430    0.1530 c3        1 Y5H     -0.132400
     27 C23        -1.3540   -3.8850   -0.1990 c3        1 Y5H      0.118800
     28 N29        -1.9420   -4.9230    0.7270 n4        1 Y5H     -0.602800
     29 C32        -3.2160   -5.4240    0.1260 c3        1 Y5H      0.088100
     30 C31        -0.9970   -6.0650    0.8950 c3        1 Y5H      0.088100
     31 C30        -2.2400   -4.3190    2.0600 c3        1 Y5H      0.088100
     32 H24        -5.3060    2.5090    0.3310 ha        1 Y5H      0.176000
     33 H22        -3.1320    2.7900    1.7950 ha        1 Y5H      0.176000
     34 H9          1.2760    3.1670    2.9160 h4        1 Y5H      0.075100
     35 H1          3.4190    1.7840    1.8940 h1        1 Y5H      0.068700
     36 H7          3.2620    1.0330   -2.0960 h1        1 Y5H      0.097700
     37 H82         4.2600    3.9350   -0.4150 h1        1 Y5H      0.056700
     38 H81         4.8440    3.0590    1.0650 h1        1 Y5H      0.056700
     39 H5          4.6630   -1.0070   -0.4720 hc        1 Y5H      0.105700
     40 H2          3.8250   -0.4560    1.7090 hc        1 Y5H      0.102700
     41 H141        6.0370    0.3390   -1.3520 hc        1 Y5H      0.059200
     42 H142        5.4460    1.4010   -2.6840 hc        1 Y5H      0.059200
     43 H151        6.6600    2.1960   -0.0970 hc        1 Y5H      0.058200
     44 H152        6.1950    3.2480   -1.4880 hc        1 Y5H      0.058200
     45 H191       -0.4430   -1.4280   -0.5030 h1        1 Y5H      0.074200
     46 H192        0.4310   -2.4430   -1.7580 h1        1 Y5H      0.074200
     47 H211        0.7920   -4.2540   -0.0910 hc        1 Y5H      0.080700
     48 H212        0.1530   -3.2020    1.2470 hc        1 Y5H      0.080700
     49 H231       -2.0520   -2.9980   -0.1780 hx        1 Y5H      0.099200
     50 H232       -1.3580   -4.3220   -1.2390 hx        1 Y5H      0.099200
     51 H321       -2.9940   -5.9330   -0.8500 hx        1 Y5H      0.102367
     52 H322       -3.6960   -6.1560    0.8290 hx        1 Y5H      0.102367
     53 H323       -3.9100   -4.5600   -0.0480 hx        1 Y5H      0.102367
     54 H311       -0.0820   -5.7140    1.4430 hx        1 Y5H      0.102367
     55 H312       -1.4980   -6.8770    1.4860 hx        1 Y5H      0.102367
     56 H313       -0.7040   -6.4560   -0.1150 hx        1 Y5H      0.102367
     57 H301       -2.9690   -3.4760    1.9320 hx        1 Y5H      0.102367
     58 H302       -2.6830   -5.1040    2.7290 hx        1 Y5H      0.102367
     59 H303       -1.2940   -3.9260    2.5190 hx        1 Y5H      0.102367
@<TRIPOS>BOND
     1    1    2 1   
     2    2    3 2   
     3    2    5 1   
     4    3    4 1   
     5    3   32 1   
     6    4    6 2   
     7    4   33 1   
     8    5    6 1   
     9    6    7 1   
    10    7    8 2   
    11    7    9 1   
    12    8   11 1   
    13    9   10 1   
    14   10   11 2   
    15   10   34 1   
    16   11   12 1   
    17   12   13 1   
    18   12   19 1   
    19   12   35 1   
    20   13   14 1   
    21   13   17 1   
    22   14   15 1   
    23   14   18 1   
    24   14   36 1   
    25   15   16 1   
    26   15   41 1   
    27   15   42 1   
    28   16   17 1   
    29   16   43 1   
    30   16   44 1   
    31   17   37 1   
    32   17   38 1   
    33   18   19 1   
    34   18   22 1   
    35   18   39 1   
    36   19   20 1   
    37   19   40 1   
    38   20   21 2   
    39   20   24 1   
    40   22   23 2   
    41   22   24 1   
    42   24   25 1   
    43   25   26 1   
    44   25   45 1   
    45   25   46 1   
    46   26   27 1   
    47   26   47 1   
    48   26   48 1   
    49   27   28 1   
    50   27   49 1   
    51   27   50 1   
    52   28   29 1   
    53   28   30 1   
    54   28   31 1   
    55   29   51 1   
    56   29   52 1   
    57   29   53 1   
    58   30   54 1   
    59   30   55 1   
    60   30   56 1   
    61   31   57 1   
    62   31   58 1   
    63   31   59 1   
@<TRIPOS>SUBSTRUCTURE
     1 Y5H         1 TEMP              0 ****  ****    0 ROOT
