@<TRIPOS>MOLECULE
Y69
   55    54     1     0     0
SMALL
bcc


@<TRIPOS>ATOM
      1 OAB         0.6250    1.3120   -0.8780 o         1 Y69     -0.528100
      2 CAC         1.5730    0.5470   -0.7020 c         1 Y69      0.564900
      3 CAE         2.4350    0.5850    0.5220 c3        1 Y69     -0.204400
      4 CAF         3.0470   -0.7660    0.8190 c3        1 Y69     -0.076400
      5 CAG         3.9360   -0.7040    2.0430 c3        1 Y69     -0.078400
      6 CAH         4.5480   -2.0550    2.3450 c3        1 Y69     -0.079400
      7 CAI         5.4370   -1.9930    3.5680 c3        1 Y69     -0.079400
      8 CAJ         6.0480   -3.3440    3.8710 c3        1 Y69     -0.079400
      9 CAK         6.9370   -3.2820    5.0950 c3        1 Y69     -0.078400
     10 CAL         7.5470   -4.6330    5.3990 c3        1 Y69     -0.078400
     11 CAM         8.4340   -4.5670    6.6220 c3        1 Y69     -0.083400
     12 CAN         9.0360   -5.9300    6.9150 c3        1 Y69      0.132400
     13 OAT         9.8490   -5.7750    8.0770 os        1 Y69     -0.427600
     14 CAP        10.4900   -6.9920    8.4520 c3        1 Y69      0.126400
     15 CAR        11.1840   -6.7230    9.7830 c3        1 Y69      0.127400
     16 OAU        10.4740   -7.4710   10.7680 os        1 Y69     -0.429600
     17 CAQ        10.9210   -7.1820   12.0910 c3        1 Y69      0.127400
     18 CAO        10.2120   -8.1700   13.0120 c3        1 Y69      0.126400
     19 OAS        11.2160   -9.0560   13.5030 os        1 Y69     -0.428600
     20 CAD        10.6650  -10.1230   14.2720 c3        1 Y69      0.131400
     21 CAA        11.8260  -10.9670   14.7460 c3        1 Y69     -0.097100
     22 H1          1.8510   -0.2180   -1.4620 h4        1 Y69     -0.006800
     23 H2          1.8330    0.9390    1.4010 hc        1 Y69      0.074200
     24 H3          3.2460    1.3440    0.3490 hc        1 Y69      0.074200
     25 H4          2.2330   -1.5210    0.9840 hc        1 Y69      0.043700
     26 H5          3.6470   -1.1130   -0.0630 hc        1 Y69      0.043700
     27 H6          3.3360   -0.3560    2.9260 hc        1 Y69      0.042700
     28 H7          4.7500    0.0510    1.8790 hc        1 Y69      0.042700
     29 H8          5.1460   -2.4020    1.4620 hc        1 Y69      0.040700
     30 H9          3.7330   -2.8080    2.5090 hc        1 Y69      0.040700
     31 H10         6.2520   -1.2400    3.4040 hc        1 Y69      0.041200
     32 H11         4.8380   -1.6440    4.4510 hc        1 Y69      0.041200
     33 H12         6.6460   -3.6930    2.9890 hc        1 Y69      0.040200
     34 H13         5.2330   -4.0970    4.0360 hc        1 Y69      0.040200
     35 H14         6.3390   -2.9320    5.9770 hc        1 Y69      0.042200
     36 H15         7.7530   -2.5300    4.9290 hc        1 Y69      0.042200
     37 H16         6.7300   -5.3850    5.5650 hc        1 Y69      0.040200
     38 H17         8.1450   -4.9840    4.5160 hc        1 Y69      0.040200
     39 H18         7.8440   -4.2240    7.5120 hc        1 Y69      0.054700
     40 H19         9.2580   -3.8240    6.4640 hc        1 Y69      0.054700
     41 H20         9.6690   -6.2840    6.0580 h1        1 Y69      0.025700
     42 H21         8.2340   -6.6900    7.1140 h1        1 Y69      0.025700
     43 H22         9.7340   -7.8150    8.5560 h1        1 Y69      0.042200
     44 H23        11.2420   -7.2700    7.6660 h1        1 Y69      0.042200
     45 H24        11.1580   -5.6290   10.0320 h1        1 Y69      0.043700
     46 H25        12.2490   -7.0760    9.7500 h1        1 Y69      0.043700
     47 H26        10.6390   -6.1280   12.3530 h1        1 Y69      0.043200
     48 H27        12.0350   -7.3020   12.1600 h1        1 Y69      0.043200
     49 H28         9.7390   -7.6330   13.8750 h1        1 Y69      0.041700
     50 H29         9.4270   -8.7450   12.4510 h1        1 Y69      0.041700
     51 H30        10.0910   -9.7020   15.1410 h1        1 Y69      0.024700
     52 H31         9.9640  -10.7230   13.6320 h1        1 Y69      0.024700
     53 H32        12.3980  -11.3650   13.8740 hc        1 Y69      0.045033
     54 H33        12.5200  -10.3570   15.3720 hc        1 Y69      0.045033
     55 H34        11.4390  -11.8200   15.3510 hc        1 Y69      0.045033
@<TRIPOS>BOND
     1    1    2 2   
     2    2    3 1   
     3    2   22 1   
     4    3    4 1   
     5    3   23 1   
     6    3   24 1   
     7    4    5 1   
     8    4   25 1   
     9    4   26 1   
    10    5    6 1   
    11    5   27 1   
    12    5   28 1   
    13    6    7 1   
    14    6   29 1   
    15    6   30 1   
    16    7    8 1   
    17    7   31 1   
    18    7   32 1   
    19    8    9 1   
    20    8   33 1   
    21    8   34 1   
    22    9   10 1   
    23    9   35 1   
    24    9   36 1   
    25   10   11 1   
    26   10   37 1   
    27   10   38 1   
    28   11   12 1   
    29   11   39 1   
    30   11   40 1   
    31   12   13 1   
    32   12   41 1   
    33   12   42 1   
    34   13   14 1   
    35   14   15 1   
    36   14   43 1   
    37   14   44 1   
    38   15   16 1   
    39   15   45 1   
    40   15   46 1   
    41   16   17 1   
    42   17   18 1   
    43   17   47 1   
    44   17   48 1   
    45   18   19 1   
    46   18   49 1   
    47   18   50 1   
    48   19   20 1   
    49   20   21 1   
    50   20   51 1   
    51   20   52 1   
    52   21   53 1   
    53   21   54 1   
    54   21   55 1   
@<TRIPOS>SUBSTRUCTURE
     1 Y69         1 TEMP              0 ****  ****    0 ROOT
