@<TRIPOS>MOLECULE
Y6M
   23    24     1     0     0
SMALL
bcc


@<TRIPOS>ATOM
      1 C01         0.0500    0.0180    0.0050 c3        1 Y6M     -0.091400
      2 C02         1.5620    0.0040   -0.0250 c3        1 Y6M     -0.023100
      3 C03         2.1250    0.0430    1.3500 ca        1 Y6M     -0.168300
      4 C04         3.3600   -0.5460    1.6240 ca        1 Y6M     -0.063000
      5 C05         3.9000   -0.5390    2.9030 ca        1 Y6M     -0.191000
      6 C06         3.1700    0.0730    3.9350 ca        1 Y6M      0.155100
      7 C07         1.9310    0.6730    3.6980 ca        1 Y6M     -0.267000
      8 C08         1.3990    0.6810    2.3880 ca        1 Y6M      0.187600
      9 N09         0.2150    1.3880    2.1310 nu        1 Y6M     -0.751600
     10 C10        -0.4550    1.2010    0.8460 c3        1 Y6M      0.393300
     11 O11        -1.8510    0.9720    1.0380 oh        1 Y6M     -0.607800
     12 O12         3.7400    0.0420    5.1880 oh        1 Y6M     -0.498100
     13 H01        -0.3640    0.1210   -1.0290 hc        1 Y6M      0.064200
     14 H01A       -0.3450   -0.9380    0.4380 hc        1 Y6M      0.064200
     15 H02         1.9380    0.8910   -0.6040 hc        1 Y6M      0.052200
     16 H02A        1.9130   -0.9170   -0.5620 hc        1 Y6M      0.052200
     17 H04         3.9150   -1.0320    0.8060 ha        1 Y6M      0.133000
     18 H05         4.8720   -1.0000    3.1210 ha        1 Y6M      0.150000
     19 H07         1.3840    1.1440    4.5270 ha        1 Y6M      0.133000
     20 HN09       -0.4210    1.3880    2.9050 hn        1 Y6M      0.400800
     21 HO12        3.1490    0.5060    5.7980 ho        1 Y6M      0.418000
     22 HC10       -0.3010    2.1650    0.2720 h2        1 Y6M      0.053700
     23 HO11       -2.2650    1.8220    1.2260 ho        1 Y6M      0.407000
@<TRIPOS>BOND
     1    1    2 1   
     2    1   10 1   
     3    1   13 1   
     4    1   14 1   
     5    2    3 1   
     6    2   15 1   
     7    2   16 1   
     8    3    4 ar  
     9    3    8 ar  
    10    4    5 ar  
    11    4   17 1   
    12    5    6 ar  
    13    5   18 1   
    14    6    7 ar  
    15    6   12 1   
    16    7    8 ar  
    17    7   19 1   
    18    8    9 1   
    19    9   10 1   
    20    9   20 1   
    21   10   11 1   
    22   10   22 1   
    23   11   23 1   
    24   12   21 1   
@<TRIPOS>SUBSTRUCTURE
     1 Y6M         1 TEMP              0 ****  ****    0 ROOT
