@<TRIPOS>MOLECULE
Y6M
   23    24     1     0     0
SMALL
bcc


@<TRIPOS>ATOM
      1 C01         0.0450    0.0220    0.0080 c3        1 Y6M     -0.091400
      2 C02         1.5570    0.0040   -0.0250 c3        1 Y6M     -0.023100
      3 C03         2.1230    0.0410    1.3480 ca        1 Y6M     -0.168300
      4 C04         3.3570   -0.5520    1.6190 ca        1 Y6M     -0.063000
      5 C05         3.9000   -0.5460    2.8980 ca        1 Y6M     -0.191000
      6 C06         3.1740    0.0670    3.9310 ca        1 Y6M      0.155100
      7 C07         1.9360    0.6710    3.6970 ca        1 Y6M     -0.267000
      8 C08         1.4010    0.6810    2.3880 ca        1 Y6M      0.187600
      9 N09         0.2180    1.3920    2.1340 nh        1 Y6M     -0.751600
     10 C10        -0.4540    1.2070    0.8500 c3        1 Y6M      0.393300
     11 O11        -1.8510    0.9810    1.0450 oh        1 Y6M     -0.607800
     12 O12         3.7460    0.0340    5.1830 oh        1 Y6M     -0.498100
     13 H01        -0.3520   -0.9320    0.4410 hc        1 Y6M      0.064200
     14 H01A       -0.3710    0.1270   -1.0260 hc        1 Y6M      0.064200
     15 H02         1.9040   -0.9180   -0.5640 hc        1 Y6M      0.052200
     16 H02A        1.9340    0.8900   -0.6050 hc        1 Y6M      0.052200
     17 H04         3.9090   -1.0390    0.8000 ha        1 Y6M      0.133000
     18 H05         4.8700   -1.0110    3.1130 ha        1 Y6M      0.150000
     19 H07         1.3920    1.1430    4.5270 ha        1 Y6M      0.133000
     20 HN09       -0.4150    1.3930    2.9090 hn        1 Y6M      0.400800
     21 HO12        3.1570    0.4990    5.7940 ho        1 Y6M      0.418000
     22 HC10       -0.2990    2.1710    0.2750 h2        1 Y6M      0.053700
     23 HO11       -2.2630    1.8330    1.2340 ho        1 Y6M      0.407000
@<TRIPOS>BOND
     1    1    2 1   
     2    1   10 1   
     3    1   13 1   
     4    1   14 1   
     5    2    3 1   
     6    2   15 1   
     7    2   16 1   
     8    3    4 ar  
     9    3    8 ar  
    10    4    5 ar  
    11    4   17 1   
    12    5    6 ar  
    13    5   18 1   
    14    6    7 ar  
    15    6   12 1   
    16    7    8 ar  
    17    7   19 1   
    18    8    9 1   
    19    9   10 1   
    20    9   20 1   
    21   10   11 1   
    22   10   22 1   
    23   11   23 1   
    24   12   21 1   
@<TRIPOS>SUBSTRUCTURE
     1 Y6M         1 TEMP              0 ****  ****    0 ROOT
