@<TRIPOS>MOLECULE
Y70
   31    33     1     0     0
SMALL
bcc


@<TRIPOS>ATOM
      1 C1          0.1590   -0.1380   -0.1810 ca        1 Y70     -0.187000
      2 C2          1.5310   -0.2320   -0.0880 ca        1 Y70     -0.068000
      3 C3          2.2060   -0.1880    1.1550 ca        1 Y70     -0.114000
      4 C4          1.4370   -0.0510    2.2810 ca        1 Y70     -0.078600
      5 C5          0.0190    0.0470    2.2130 ca        1 Y70     -0.263600
      6 C6         -0.6600    0.0160    0.9900 ca        1 Y70      0.263600
      7 C7          1.8210    0.0150    3.7280 c         1 Y70      0.728100
      8 N8          0.6050    0.1600    4.4730 n         1 Y70     -0.523400
      9 C9         -0.5160    0.1670    3.5920 c         1 Y70      0.746100
     10 N10        -2.0190    0.1750    0.9130 nv        1 Y70     -0.851200
     11 O11        -1.7000    0.2610    3.9380 o         1 Y70     -0.611500
     12 C12         0.5860    0.1450    5.9110 c3        1 Y70      0.056700
     13 O13         2.9430   -0.0240    4.2330 o         1 Y70     -0.562500
     14 C14         0.2210    1.4820    6.5700 c3        1 Y70     -0.093400
     15 C15        -0.2960   -1.0000    6.4600 c         1 Y70      0.689500
     16 N16        -1.4980   -0.7010    7.0870 ns        1 Y70     -0.587500
     17 C17        -2.0330    0.5870    7.2060 c         1 Y70      0.715500
     18 C18        -1.2650    1.7380    6.6040 c3        1 Y70     -0.158400
     19 O19         0.0750   -2.1810    6.3710 o         1 Y70     -0.599500
     20 O20        -3.1180    0.7340    7.7900 o         1 Y70     -0.606500
     21 H1         -0.3270   -0.1760   -1.1690 ha        1 Y70      0.142000
     22 H2          2.1300   -0.3470   -1.0070 ha        1 Y70      0.143000
     23 H3          3.3010   -0.2660    1.2030 ha        1 Y70      0.160000
     24 H101       -2.5430    0.1550    1.7580 hn        1 Y70      0.440300
     25 H102       -2.4790   -0.0500    0.0670 hn        1 Y70      0.440300
     26 H12         1.6460   -0.1140    6.2390 h1        1 Y70      0.115700
     27 H141        0.7340    2.3260    6.0380 hc        1 Y70      0.068200
     28 H142        0.6230    1.4560    7.6190 hc        1 Y70      0.068200
     29 H181       -1.6650    1.8940    5.5640 hc        1 Y70      0.094700
     30 H182       -1.4870    2.6600    7.2030 hc        1 Y70      0.094700
     31 H16        -2.0380   -1.4640    7.4440 hn        1 Y70      0.337500
@<TRIPOS>BOND
     1    1    2 ar  
     2    1    6 ar  
     3    1   21 1   
     4    2    3 ar  
     5    2   22 1   
     6    3    4 ar  
     7    3   23 1   
     8    4    5 ar  
     9    4    7 1   
    10    5    6 ar  
    11    5    9 1   
    12    6   10 1   
    13    7    8 1   
    14    7   13 2   
    15    8    9 1   
    16    8   12 1   
    17    9   11 2   
    18   10   24 1   
    19   10   25 1   
    20   12   14 1   
    21   12   15 1   
    22   12   26 1   
    23   14   18 1   
    24   14   27 1   
    25   14   28 1   
    26   15   16 1   
    27   15   19 2   
    28   16   17 1   
    29   16   31 1   
    30   17   18 1   
    31   17   20 2   
    32   18   29 1   
    33   18   30 1   
@<TRIPOS>SUBSTRUCTURE
     1 Y70         1 TEMP              0 ****  ****    0 ROOT
