@<TRIPOS>MOLECULE
Y70
   32    34     1     0     0
SMALL
bcc


@<TRIPOS>ATOM
      1 C1          0.1720   -0.1610   -0.2090 ca        1 Y70     -0.094000
      2 C2          1.5580   -0.2560   -0.1170 ca        1 Y70     -0.082000
      3 C3          2.2310   -0.1880    1.1190 ca        1 Y70     -0.007000
      4 C4          1.4680   -0.0180    2.2590 ca        1 Y70     -0.107600
      5 C5          0.0590    0.0880    2.1830 ca        1 Y70     -0.128600
      6 C6         -0.5990    0.0130    0.9640 ca        1 Y70     -0.004400
      7 C7          1.8460    0.0730    3.7120 c         1 Y70      0.725100
      8 N8          0.6190    0.2540    4.4500 n         1 Y70     -0.484400
      9 C9         -0.4810    0.2590    3.5790 c         1 Y70      0.730100
     10 N10        -2.0560    0.1050    0.9170 n4        1 Y70     -0.714000
     11 O11        -1.6860    0.3950    3.8360 o         1 Y70     -0.606500
     12 C12         0.5790    0.1680    5.8960 c3        1 Y70      0.041700
     13 O13         2.9630    0.0250    4.2110 o         1 Y70     -0.482500
     14 C14         0.2060    1.4700    6.6110 c3        1 Y70     -0.094400
     15 C15        -0.3070   -1.0160    6.3540 c         1 Y70      0.682500
     16 N16        -1.4820   -0.7650    7.0400 n         1 Y70     -0.586500
     17 C17        -2.0230    0.5120    7.2520 c         1 Y70      0.705500
     18 C18        -1.2820    1.7010    6.6900 c3        1 Y70     -0.159400
     19 O19         0.0480   -2.1790    6.1080 o         1 Y70     -0.591500
     20 O20        -3.0950    0.6120    7.8620 o         1 Y70     -0.569500
     21 H1         -0.3110   -0.2240   -1.1990 ha        1 Y70      0.170000
     22 H2          2.1490   -0.3920   -1.0410 ha        1 Y70      0.186000
     23 H3          3.3310   -0.2730    1.1710 ha        1 Y70      0.198000
     24 H101       -2.3360    0.9010    0.3340 hn        1 Y70      0.478467
     25 H102       -2.4300    0.2350    1.8780 hn        1 Y70      0.478467
     26 H12         1.6370   -0.1060    6.2180 h1        1 Y70      0.130700
     27 H141        0.6970    2.3470    6.1120 hc        1 Y70      0.082200
     28 H142        0.6300    1.4030    7.6510 hc        1 Y70      0.082200
     29 H181       -1.7110    1.9100    5.6720 hc        1 Y70      0.095700
     30 H182       -1.5000    2.5890    7.3430 hc        1 Y70      0.095700
     31 H16        -1.9870   -1.5520    7.4000 hn        1 Y70      0.350500
     32 H103       -2.4430   -0.7590    0.5200 hn        1 Y70      0.478467
@<TRIPOS>BOND
     1    1    2 ar  
     2    1    6 ar  
     3    1   21 1   
     4    2    3 ar  
     5    2   22 1   
     6    3    4 ar  
     7    3   23 1   
     8    4    5 ar  
     9    4    7 1   
    10    5    6 ar  
    11    5    9 1   
    12    6   10 1   
    13    7    8 1   
    14    7   13 2   
    15    8    9 1   
    16    8   12 1   
    17    9   11 2   
    18   10   24 1   
    19   10   25 1   
    20   10   32 1   
    21   12   14 1   
    22   12   15 1   
    23   12   26 1   
    24   14   18 1   
    25   14   27 1   
    26   14   28 1   
    27   15   16 1   
    28   15   19 2   
    29   16   17 1   
    30   16   31 1   
    31   17   18 1   
    32   17   20 2   
    33   18   29 1   
    34   18   30 1   
@<TRIPOS>SUBSTRUCTURE
     1 Y70         1 TEMP              0 ****  ****    0 ROOT
