@<TRIPOS>MOLECULE
Y7N
   58    61     1     0     0
SMALL
bcc


@<TRIPOS>ATOM
      1 C1         -0.1270   -0.4870   -0.5790 ca        1 Y7N     -0.133000
      2 C2          1.1920   -0.7040   -0.9700 ca        1 Y7N     -0.111000
      3 C3         -0.4530   -0.3060    0.7710 ca        1 Y7N     -0.098000
      4 C4         -2.4010    1.2490    2.9430 ca        1 Y7N     -0.136000
      5 C5          2.2190   -0.7500   -0.0190 ca        1 Y7N     -0.120000
      6 C6         -3.7600    1.4670    2.6510 ca        1 Y7N     -0.078000
      7 C7          0.5580   -0.3470    1.7220 ca        1 Y7N     -0.074800
      8 C8         -1.9560    0.1340    3.6550 ca        1 Y7N      0.003200
      9 C9         -2.8740   -0.8490    4.1210 ca        1 Y7N     -0.121600
     10 C10         1.9010   -0.5740    1.3180 ca        1 Y7N     -0.078300
     11 C11        -4.6440    0.5110    3.1030 ca        1 Y7N      0.042100
     12 C12        -4.2100   -0.6350    3.8250 ca        1 Y7N      0.120100
     13 C13         0.4900   -0.1970    3.1700 ce        1 Y7N     -0.057400
     14 C14        -0.5460   -0.0040    3.9940 cf        1 Y7N     -0.122200
     15 C15        -2.4220   -2.0260    4.8680 c         1 Y7N      0.683700
     16 C17         2.8260   -0.5950    2.4850 c3        1 Y7N     -0.041100
     17 C18        -6.4770   -0.7420    3.6120 c3        1 Y7N      0.319200
     18 C19         1.9210   -0.3170    3.7240 c3        1 Y7N      0.118900
     19 C20         1.6230   -2.1340    7.0530 c3        1 Y7N     -0.163400
     20 C21         1.8210   -1.6740    8.4820 c3        1 Y7N     -0.074400
     21 C22         1.3060   -2.7060    9.4620 c3        1 Y7N     -0.078400
     22 C23         1.4490   -2.1850   10.8810 c3        1 Y7N     -0.111400
     23 C24         0.8810   -3.2080   11.8540 c3        1 Y7N      0.099800
     24 N26         2.0500   -1.3250    4.7510 n         1 Y7N     -0.536900
     25 N25         0.9600   -2.7480   13.2740 n4        1 Y7N     -0.839600
     26 O31        -1.5210   -2.1300    5.7130 o         1 Y7N     -0.594000
     27 O27        -3.1040   -3.1710    4.5830 oh        1 Y7N     -0.578100
     28 O28         2.0360    0.1810    6.4940 o         1 Y7N     -0.609100
     29 O29        -6.0260    0.4700    2.9640 os        1 Y7N     -0.323900
     30 O30        -5.3100   -1.4070    4.1600 os        1 Y7N     -0.317900
     31 H1         -0.9250   -0.4550   -1.3350 ha        1 Y7N      0.139000
     32 H2          1.4330   -0.8410   -2.0350 ha        1 Y7N      0.139000
     33 H3         -1.4980   -0.1360    1.0690 ha        1 Y7N      0.141000
     34 H5          3.2590   -0.9220   -0.3320 ha        1 Y7N      0.140000
     35 H14        -0.3600    0.0490    5.0880 ha        1 Y7N      0.155000
     36 H171        3.6000    0.2090    2.4020 hc        1 Y7N      0.069200
     37 H172        3.3580   -1.5760    2.5540 hc        1 Y7N      0.069200
     38 H19         2.2110    0.6780    4.1750 h1        1 Y7N      0.104700
     39 H201        0.5550   -2.4480    6.8880 hc        1 Y7N      0.080200
     40 H202        2.2850   -3.0110    6.8350 hc        1 Y7N      0.080200
     41 H26         1.7920   -2.2470    4.4810 hn        1 Y7N      0.304500
     42 H181       -7.1560   -0.4670    4.4560 h2        1 Y7N      0.082700
     43 H182       -6.9380   -1.4110    2.8440 h2        1 Y7N      0.082700
     44 H211        2.9100   -1.4770    8.6650 hc        1 Y7N      0.067200
     45 H212        1.2820   -0.6990    8.6310 hc        1 Y7N      0.067200
     46 H221        0.2280   -2.9280    9.2450 hc        1 Y7N      0.056700
     47 H222        1.8800   -3.6630    9.3470 hc        1 Y7N      0.056700
     48 H231        2.5330   -1.9920   11.0980 hc        1 Y7N      0.072700
     49 H232        0.9000   -1.2090   10.9710 hc        1 Y7N      0.072700
     50 H241        1.4530   -4.1780   11.7760 hx        1 Y7N      0.113200
     51 H242       -0.2050   -3.4060   11.6190 hx        1 Y7N      0.113200
     52 H251        0.5700   -3.4600   13.8990 hn        1 Y7N      0.461133
     53 H252        1.9370   -2.5740   13.5330 hn        1 Y7N      0.461133
     54 C16         1.9100   -0.9930    6.0900 c         1 Y7N      0.657100
     55 H4         -1.6630    1.9920    2.5990 ha        1 Y7N      0.160000
     56 H262       -2.7540   -3.8990    5.1230 ho        1 Y7N      0.440000
     57 H253        0.4340   -1.8750   13.3900 hn        1 Y7N      0.461133
     58 H6         -4.0930    2.3530    2.0930 ha        1 Y7N      0.168000
@<TRIPOS>BOND
     1    1    2 ar  
     2    1    3 ar  
     3    1   31 1   
     4    2    5 ar  
     5    2   32 1   
     6    3    7 ar  
     7    3   33 1   
     8    4    6 ar  
     9    4    8 ar  
    10    4   55 1   
    11    5   10 ar  
    12    5   34 1   
    13    6   11 ar  
    14    6   58 1   
    15    7   10 ar  
    16    7   13 1   
    17    8    9 ar  
    18    8   14 1   
    19    9   12 ar  
    20    9   15 1   
    21   10   16 1   
    22   11   12 ar  
    23   11   29 1   
    24   12   30 1   
    25   13   14 2   
    26   13   18 1   
    27   14   35 1   
    28   15   26 2   
    29   15   27 1   
    30   16   18 1   
    31   16   36 1   
    32   16   37 1   
    33   17   29 1   
    34   17   30 1   
    35   17   42 1   
    36   17   43 1   
    37   18   24 1   
    38   18   38 1   
    39   19   20 1   
    40   19   39 1   
    41   19   40 1   
    42   19   54 1   
    43   20   21 1   
    44   20   44 1   
    45   20   45 1   
    46   21   22 1   
    47   21   46 1   
    48   21   47 1   
    49   22   23 1   
    50   22   48 1   
    51   22   49 1   
    52   23   25 1   
    53   23   50 1   
    54   23   51 1   
    55   24   41 1   
    56   24   54 1   
    57   25   52 1   
    58   25   53 1   
    59   25   57 1   
    60   27   56 1   
    61   28   54 2   
@<TRIPOS>SUBSTRUCTURE
     1 Y7N         1 TEMP              0 ****  ****    0 ROOT
