@<TRIPOS>MOLECULE
Y7N
   56    59     1     0     0
SMALL
bcc


@<TRIPOS>ATOM
      1 C1         -3.2530   -4.1270   -0.3900 ca        1 Y7N     -0.139000
      2 C2         -2.4690   -5.2760   -0.3840 ca        1 Y7N     -0.144000
      3 C3         -2.6680   -2.8560   -0.3180 ca        1 Y7N     -0.112000
      4 C4         -2.8080   -0.3040    1.3940 ca        1 Y7N     -0.137000
      5 C5         -1.0730   -5.1810   -0.3270 ca        1 Y7N     -0.130000
      6 C6         -3.9790    0.2950    1.8830 ca        1 Y7N     -0.153000
      7 C7         -1.2860   -2.7500   -0.2270 ca        1 Y7N     -0.026800
      8 C8         -1.9460    0.3480    0.5050 ca        1 Y7N     -0.065800
      9 C9         -2.1930    1.6810    0.0720 ca        1 Y7N     -0.060600
     10 C10        -0.4890   -3.9280   -0.2600 ca        1 Y7N     -0.088300
     11 C11        -4.2340    1.5760    1.4380 ca        1 Y7N      0.044100
     12 C12        -3.3560    2.2550    0.5540 ca        1 Y7N      0.059100
     13 C13        -0.4330   -1.5670   -0.1700 ce        1 Y7N     -0.131400
     14 C14        -0.7030   -0.2770    0.0800 cf        1 Y7N     -0.045200
     15 C15        -1.2080    2.4280   -0.8270 c         1 Y7N      0.923200
     16 C17         0.9620   -3.5910   -0.2520 c3        1 Y7N     -0.042100
     17 C18        -5.0940    3.6440    1.0490 c3        1 Y7N      0.317200
     18 C19         0.9990   -2.0430   -0.4580 c3        1 Y7N      0.135900
     19 C20         4.0090    0.0500    0.5460 c3        1 Y7N     -0.158400
     20 C21         5.4010    0.2070   -0.0260 c3        1 Y7N     -0.070400
     21 C22         6.1360    1.3430    0.6520 c3        1 Y7N     -0.081400
     22 C23         7.5210    1.5190    0.0670 c3        1 Y7N     -0.082400
     23 C24         8.2270    2.7000    0.7310 c3        1 Y7N      0.153800
     24 N26         2.0030   -1.3790    0.3400 n         1 Y7N     -0.548900
     25 N25         9.5690    2.9240    0.2420 n3        1 Y7N     -0.915800
     26 O31        -1.5940    2.7720   -1.9720 o         1 Y7N     -0.811300
     27 O27        -0.0530    2.6330   -0.3540 o         1 Y7N     -0.811300
     28 O28         3.6540   -1.5370   -1.2520 o         1 Y7N     -0.617100
     29 O29        -5.3090    2.4040    1.7580 os        1 Y7N     -0.355900
     30 O30        -3.8630    3.5350    0.3130 os        1 Y7N     -0.307900
     31 H1         -4.3480   -4.2100   -0.4580 ha        1 Y7N      0.122000
     32 H2         -2.9440   -6.2660   -0.4350 ha        1 Y7N      0.117000
     33 H3         -3.2990   -1.9540   -0.3510 ha        1 Y7N      0.155000
     34 H5         -0.4530   -6.0880   -0.3450 ha        1 Y7N      0.122000
     35 H6         -4.6460   -0.2250    2.5790 ha        1 Y7N      0.133000
     36 H14         0.1120    0.4770   -0.0440 ha        1 Y7N      0.186000
     37 H171        1.4320   -3.8940    0.7170 hc        1 Y7N      0.057700
     38 H172        1.5130   -4.1000   -1.0790 hc        1 Y7N      0.057700
     39 H19         1.2240   -1.8500   -1.5510 h1        1 Y7N      0.084700
     40 H201        3.4500    1.0230    0.4660 hc        1 Y7N      0.071700
     41 H202        4.0710   -0.2220    1.6320 hc        1 Y7N      0.071700
     42 H26         1.6570   -0.8320    1.0960 hn        1 Y7N      0.308500
     43 H181       -5.9360    3.7920    0.3280 h2        1 Y7N      0.052200
     44 H182       -4.9950    4.4680    1.7980 h2        1 Y7N      0.052200
     45 H211        5.9700   -0.7510    0.0990 hc        1 Y7N      0.055700
     46 H212        5.3270    0.4000   -1.1300 hc        1 Y7N      0.055700
     47 H221        5.5510    2.2930    0.5320 hc        1 Y7N      0.041200
     48 H222        6.2150    1.1390    1.7530 hc        1 Y7N      0.041200
     49 H231        8.1180    0.5820    0.2170 hc        1 Y7N      0.046200
     50 H232        7.4410    1.6910   -1.0380 hc        1 Y7N      0.046200
     51 H241        7.5690    3.6120    0.6080 h1        1 Y7N      0.025700
     52 H242        8.3070    2.5010    1.8380 h1        1 Y7N      0.025700
     53 H251        9.6020    2.8580   -0.7560 hn        1 Y7N      0.343300
     54 H252        9.8880    3.8310    0.5180 hn        1 Y7N      0.343300
     55 C16         3.2200   -1.0040   -0.2100 c         1 Y7N      0.655100
     56 H4         -2.5550   -1.3190    1.7390 ha        1 Y7N      0.130000
@<TRIPOS>BOND
     1    1    2 ar  
     2    1    3 ar  
     3    1   31 1   
     4    2    5 ar  
     5    2   32 1   
     6    3    7 ar  
     7    3   33 1   
     8    4    6 ar  
     9    4    8 ar  
    10    4   56 1   
    11    5   10 ar  
    12    5   34 1   
    13    6   11 ar  
    14    6   35 1   
    15    7   10 ar  
    16    7   13 1   
    17    8    9 ar  
    18    8   14 1   
    19    9   12 ar  
    20    9   15 1   
    21   10   16 1   
    22   11   12 ar  
    23   11   29 1   
    24   12   30 1   
    25   13   14 2   
    26   13   18 1   
    27   14   36 1   
    28   15   26 1   
    29   15   27 1   
    30   16   18 1   
    31   16   37 1   
    32   16   38 1   
    33   17   29 1   
    34   17   30 1   
    35   17   43 1   
    36   17   44 1   
    37   18   24 1   
    38   18   39 1   
    39   19   20 1   
    40   19   40 1   
    41   19   41 1   
    42   19   55 1   
    43   20   21 1   
    44   20   45 1   
    45   20   46 1   
    46   21   22 1   
    47   21   47 1   
    48   21   48 1   
    49   22   23 1   
    50   22   49 1   
    51   22   50 1   
    52   23   25 1   
    53   23   51 1   
    54   23   52 1   
    55   24   42 1   
    56   24   55 1   
    57   25   53 1   
    58   25   54 1   
    59   28   55 2   
@<TRIPOS>SUBSTRUCTURE
     1 Y7N         1 TEMP              0 ****  ****    0 ROOT
