@<TRIPOS>MOLECULE
Y7Y
   41    42     1     0     0
SMALL
bcc


@<TRIPOS>ATOM
      1 CAU         0.1090    0.0660   -0.2810 c3        1 Y7Y      0.125700
      2 OAT         1.5160   -0.0390   -0.0570 os        1 Y7Y     -0.441900
      3 CAR         1.9840    0.4100    1.1490 c         1 Y7Y      0.628100
      4 OAS         1.1700    0.8640    1.9550 o         1 Y7Y     -0.540000
      5 CAQ         3.4690    0.2820    1.2740 c3        1 Y7Y     -0.127400
      6 CAP         3.8710    0.0200    2.7110 c3        1 Y7Y     -0.079400
      7 CAO         5.3770    0.0600    2.8600 c3        1 Y7Y     -0.081400
      8 CAM         5.7820   -0.2250    4.2940 c3        1 Y7Y     -0.072400
      9 CAC         7.2850   -0.2280    4.4440 c3        1 Y7Y     -0.012600
     10 SAB         7.9780   -1.6500    3.6160 ss        1 Y7Y     -0.284200
     11 CAA         9.4330   -1.7150    4.6110 c3        1 Y7Y     -0.033300
     12 CAE         9.1310   -1.0930    5.9690 c3        1 Y7Y      0.107700
     13 CAD         7.8050   -0.2200    5.8830 c3        1 Y7Y      0.056700
     14 NAF         6.9300   -0.7370    6.9320 n         1 Y7Y     -0.499900
     15 CAG         7.5260   -1.8790    7.5450 c         1 Y7Y      0.794500
     16 OAN         6.9940   -2.5750    8.4190 o         1 Y7Y     -0.570500
     17 NAH         8.8510   -2.0500    7.0400 n         1 Y7Y     -0.501400
     18 CAV         9.8210   -2.9230    7.5090 c         1 Y7Y      0.766100
     19 OAW        10.9670   -3.0440    7.0460 o         1 Y7Y     -0.577000
     20 OAX         9.4320   -3.6970    8.5740 os        1 Y7Y     -0.392900
     21 CAY        10.4280   -4.6120    9.0480 c3        1 Y7Y      0.131700
     22 H1         -0.2050    1.1360   -0.2310 h1        1 Y7Y      0.051367
     23 H2         -0.4440   -0.5310    0.4840 h1        1 Y7Y      0.051367
     24 H3         -0.0280   -0.3550   -1.3070 h1        1 Y7Y      0.051367
     25 H4          3.9210    1.2440    0.9100 hc        1 Y7Y      0.080200
     26 H5          3.8340   -0.5420    0.6050 hc        1 Y7Y      0.080200
     27 H6          3.3970    0.7880    3.3780 hc        1 Y7Y      0.060200
     28 H7          3.4830   -0.9830    3.0320 hc        1 Y7Y      0.060200
     29 H8          5.7600    1.0680    2.5520 hc        1 Y7Y      0.052200
     30 H9          5.8490   -0.7000    2.1800 hc        1 Y7Y      0.052200
     31 H10         5.3400    0.5610    4.9630 hc        1 Y7Y      0.058200
     32 H11         5.3570   -1.2180    4.6020 hc        1 Y7Y      0.058200
     33 H12         7.6940    0.6910    3.9410 h1        1 Y7Y      0.083700
     34 H13         9.7690   -2.7790    4.6950 h1        1 Y7Y      0.097700
     35 H14        10.2590   -1.1430    4.1230 h1        1 Y7Y      0.097700
     36 H15         9.9980   -0.4450    6.2840 h1        1 Y7Y      0.089700
     37 H16         8.0500    0.8440    6.1710 h1        1 Y7Y      0.090700
     38 H17         5.9620   -0.8320    6.7160 hn        1 Y7Y      0.318500
     39 H18        10.7070   -5.3270    8.2380 h1        1 Y7Y      0.057033
     40 H19         9.9060   -5.1260    9.8940 h1        1 Y7Y      0.057033
     41 H20        11.3270   -4.0510    9.3960 h1        1 Y7Y      0.057033
@<TRIPOS>BOND
     1    1    2 1   
     2    1   22 1   
     3    1   23 1   
     4    1   24 1   
     5    2    3 1   
     6    3    4 2   
     7    3    5 1   
     8    5    6 1   
     9    5   25 1   
    10    5   26 1   
    11    6    7 1   
    12    6   27 1   
    13    6   28 1   
    14    7    8 1   
    15    7   29 1   
    16    7   30 1   
    17    8    9 1   
    18    8   31 1   
    19    8   32 1   
    20    9   10 1   
    21    9   13 1   
    22    9   33 1   
    23   10   11 1   
    24   11   12 1   
    25   11   34 1   
    26   11   35 1   
    27   12   13 1   
    28   12   17 1   
    29   12   36 1   
    30   13   14 1   
    31   13   37 1   
    32   14   15 1   
    33   14   38 1   
    34   15   16 2   
    35   15   17 1   
    36   17   18 1   
    37   18   19 2   
    38   18   20 1   
    39   20   21 1   
    40   21   39 1   
    41   21   40 1   
    42   21   41 1   
@<TRIPOS>SUBSTRUCTURE
     1 Y7Y         1 TEMP              0 ****  ****    0 ROOT
