@<TRIPOS>MOLECULE
Y7Y
   41    42     1     0     0
SMALL
bcc


@<TRIPOS>ATOM
      1 CAU         0.1110    0.0540   -0.2850 c3        1 Y7Y      0.125700
      2 OAT         1.5180   -0.0420   -0.0590 os        1 Y7Y     -0.441900
      3 CAR         1.9800    0.4020    1.1500 c         1 Y7Y      0.628100
      4 OAS         1.1620    0.8450    1.9580 o         1 Y7Y     -0.540000
      5 CAQ         3.4660    0.2840    1.2780 c3        1 Y7Y     -0.127400
      6 CAP         3.8680    0.0150    2.7130 c3        1 Y7Y     -0.079400
      7 CAO         5.3730    0.0640    2.8650 c3        1 Y7Y     -0.081400
      8 CAM         5.7770   -0.2270    4.2980 c3        1 Y7Y     -0.072400
      9 CAC         7.2800   -0.2210    4.4510 c3        1 Y7Y     -0.012600
     10 SAB         7.9830   -1.6330    3.6150 ss        1 Y7Y     -0.284200
     11 CAA         9.4370   -1.6950    4.6130 c3        1 Y7Y     -0.033300
     12 CAE         9.1290   -1.0830    5.9740 c3        1 Y7Y      0.107700
     13 CAD         7.7970   -0.2180    5.8910 c3        1 Y7Y      0.056700
     14 NAF         6.9240   -0.7480    6.9350 ns        1 Y7Y     -0.499900
     15 CAG         7.5250   -1.8910    7.5420 c         1 Y7Y      0.794500
     16 OAN         6.9970   -2.5950    8.4110 o         1 Y7Y     -0.570500
     17 NAH         8.8520   -2.0500    7.0380 n         1 Y7Y     -0.501400
     18 CAV         9.8280   -2.9180    7.5040 c         1 Y7Y      0.766100
     19 OAW        10.9750   -3.0300    7.0430 o         1 Y7Y     -0.577000
     20 OAX         9.4420   -3.7020    8.5630 os        1 Y7Y     -0.392900
     21 CAY        10.4420   -4.6130    9.0340 c3        1 Y7Y      0.131700
     22 H1         -0.0210   -0.3600   -1.3150 h1        1 Y7Y      0.051367
     23 H2         -0.4390   -0.5520    0.4740 h1        1 Y7Y      0.051367
     24 H3         -0.2120    1.1210   -0.2280 h1        1 Y7Y      0.051367
     25 H4          3.9110    1.2520    0.9210 hc        1 Y7Y      0.080200
     26 H5          3.8390   -0.5320    0.6040 hc        1 Y7Y      0.080200
     27 H6          3.4860   -0.9930    3.0260 hc        1 Y7Y      0.060200
     28 H7          3.3860    0.7750    3.3840 hc        1 Y7Y      0.060200
     29 H8          5.7500    1.0770    2.5640 hc        1 Y7Y      0.052200
     30 H9          5.8510   -0.6880    2.1810 hc        1 Y7Y      0.052200
     31 H10         5.3290    0.5520    4.9720 hc        1 Y7Y      0.058200
     32 H11         5.3590   -1.2250    4.5990 hc        1 Y7Y      0.058200
     33 H12         7.6840    0.7030    3.9550 h1        1 Y7Y      0.083700
     34 H13         9.7800   -2.7570    4.6910 h1        1 Y7Y      0.097700
     35 H14        10.2610   -1.1150    4.1300 h1        1 Y7Y      0.097700
     36 H15         9.9910   -0.4320    6.2950 h1        1 Y7Y      0.089700
     37 H16         8.0340    0.8450    6.1860 h1        1 Y7Y      0.090700
     38 H17         5.9560   -0.8480    6.7170 hn        1 Y7Y      0.318500
     39 H18        10.7280   -5.3210    8.2200 h1        1 Y7Y      0.057033
     40 H19        11.3370   -4.0480    9.3870 h1        1 Y7Y      0.057033
     41 H20         9.9220   -5.1360    9.8750 h1        1 Y7Y      0.057033
@<TRIPOS>BOND
     1    1    2 1   
     2    1   22 1   
     3    1   23 1   
     4    1   24 1   
     5    2    3 1   
     6    3    4 2   
     7    3    5 1   
     8    5    6 1   
     9    5   25 1   
    10    5   26 1   
    11    6    7 1   
    12    6   27 1   
    13    6   28 1   
    14    7    8 1   
    15    7   29 1   
    16    7   30 1   
    17    8    9 1   
    18    8   31 1   
    19    8   32 1   
    20    9   10 1   
    21    9   13 1   
    22    9   33 1   
    23   10   11 1   
    24   11   12 1   
    25   11   34 1   
    26   11   35 1   
    27   12   13 1   
    28   12   17 1   
    29   12   36 1   
    30   13   14 1   
    31   13   37 1   
    32   14   15 1   
    33   14   38 1   
    34   15   16 2   
    35   15   17 1   
    36   17   18 1   
    37   18   19 2   
    38   18   20 1   
    39   20   21 1   
    40   21   39 1   
    41   21   40 1   
    42   21   41 1   
@<TRIPOS>SUBSTRUCTURE
     1 Y7Y         1 TEMP              0 ****  ****    0 ROOT
