@<TRIPOS>MOLECULE
Y8L
   49    52     1     0     0
SMALL
bcc


@<TRIPOS>ATOM
      1 C17         0.4150   -0.0880   -0.2150 c3        1 Y8L      0.180300
      2 C18         1.7260   -0.6920    0.3310 c3        1 Y8L      0.129800
      3 N19         1.9610   -0.3550    1.7200 n3        1 Y8L     -0.818200
      4 C20         0.8230   -0.5990    2.5820 c3        1 Y8L      0.129800
      5 C21        -0.4910   -0.0170    2.0160 c3        1 Y8L      0.180300
      6 N16        -0.7560   -0.3090    0.6200 nh        1 Y8L     -0.627400
      7 C12        -1.5170   -1.4710    0.3100 ce        1 Y8L      0.087000
      8 C13        -1.7260   -2.5390    1.2880 ce        1 Y8L     -0.088000
      9 C14        -2.4820   -3.6160    1.0130 cf        1 Y8L     -0.268600
     10 C11        -2.1310   -1.5830   -0.8990 c2        1 Y8L     -0.180200
     11 C10        -3.0030   -2.7060   -1.2930 c3        1 Y8L     -0.096500
     12 C9         -3.1570   -3.8150   -0.2760 cf        1 Y8L      0.531600
     13 N7         -3.8620   -4.8500   -0.6190 ne        1 Y8L     -0.643700
     14 C4         -4.0920   -5.9380    0.2830 ca        1 Y8L      0.843000
     15 N5         -3.3520   -7.0860    0.0780 nb        1 Y8L     -0.714000
     16 N3         -5.1070   -5.8020    1.2160 nb        1 Y8L     -0.711000
     17 C2         -5.4050   -6.9010    1.9280 ca        1 Y8L      0.447200
     18 C1         -4.7370   -8.1240    1.7740 ca        1 Y8L     -0.391600
     19 C6         -3.6880   -8.1720    0.8190 ca        1 Y8L      0.563100
     20 C15        -2.9610   -9.4160    0.6640 cc        1 Y8L     -0.251200
     21 S23        -3.1180  -10.6360    1.8580 ss        1 Y8L     -0.064200
     22 C24        -2.0190  -11.7110    1.0140 c         1 Y8L      0.672100
     23 O28        -1.6560  -12.8470    1.3510 o         1 Y8L     -0.584500
     24 N25        -1.5750  -11.0790   -0.1700 n         1 Y8L     -0.376000
     25 C29        -0.6650  -11.7030   -1.0840 c3        1 Y8L      0.076300
     26 C26        -2.1080   -9.7960   -0.3550 cd        1 Y8L      0.096400
     27 C27        -1.7660   -8.9750   -1.5410 c3        1 Y8L     -0.053900
     28 H171        0.5370    1.0290   -0.3010 h1        1 Y8L      0.062450
     29 H172        0.2370   -0.5070   -1.2430 h1        1 Y8L      0.062450
     30 H181        1.7050   -1.8080    0.1590 h1        1 Y8L      0.033700
     31 H182        2.5820   -0.2700   -0.2680 h1        1 Y8L      0.033700
     32 H19         2.7660   -0.8450    2.0630 hn        1 Y8L      0.365800
     33 H201        1.0320   -0.0930    3.5670 h1        1 Y8L      0.033700
     34 H202        0.6750   -1.6990    2.7900 h1        1 Y8L      0.033700
     35 H211       -0.4410    1.1080    2.0870 h1        1 Y8L      0.062450
     36 H212       -1.3460   -0.3650    2.6560 h1        1 Y8L      0.062450
     37 H13        -1.2360   -2.4550    2.2720 ha        1 Y8L      0.138000
     38 H11        -2.0170   -0.8080   -1.6750 ha        1 Y8L      0.140000
     39 H14        -2.6180   -4.4070    1.7700 ha        1 Y8L      0.144000
     40 H101       -2.6110   -3.1430   -2.2560 hc        1 Y8L      0.087200
     41 H102       -4.0280   -2.2890   -1.5200 hc        1 Y8L      0.087200
     42 H2         -6.2240   -6.7870    2.6630 h4        1 Y8L      0.030100
     43 H1         -5.0130   -9.0070    2.3650 ha        1 Y8L      0.161000
     44 H291       -0.3600  -12.7020   -0.6690 h1        1 Y8L      0.059367
     45 H292       -1.1590  -11.8550   -2.0820 h1        1 Y8L      0.059367
     46 H293        0.2480  -11.0640   -1.2200 h1        1 Y8L      0.059367
     47 H271       -1.1590   -8.0910   -1.2160 hc        1 Y8L      0.071367
     48 H272       -1.1860   -9.5440   -2.3080 hc        1 Y8L      0.071367
     49 H273       -2.7070   -8.5980   -2.0180 hc        1 Y8L      0.071367
@<TRIPOS>BOND
     1    1    2 1   
     2    1    6 1   
     3    1   28 1   
     4    1   29 1   
     5    2    3 1   
     6    2   30 1   
     7    2   31 1   
     8    3    4 1   
     9    3   32 1   
    10    4    5 1   
    11    4   33 1   
    12    4   34 1   
    13    5    6 1   
    14    5   35 1   
    15    5   36 1   
    16    6    7 1   
    17    7    8 1   
    18    7   10 2   
    19    8    9 2   
    20    8   37 1   
    21    9   12 1   
    22    9   39 1   
    23   10   11 1   
    24   10   38 1   
    25   11   12 1   
    26   11   40 1   
    27   11   41 1   
    28   12   13 2   
    29   13   14 1   
    30   14   15 ar  
    31   14   16 ar  
    32   15   19 ar  
    33   16   17 ar  
    34   17   18 ar  
    35   17   42 1   
    36   18   19 ar  
    37   18   43 1   
    38   19   20 1   
    39   20   21 1   
    40   20   26 2   
    41   21   22 1   
    42   22   23 2   
    43   22   24 1   
    44   24   25 1   
    45   24   26 1   
    46   25   44 1   
    47   25   45 1   
    48   25   46 1   
    49   26   27 1   
    50   27   47 1   
    51   27   48 1   
    52   27   49 1   
@<TRIPOS>SUBSTRUCTURE
     1 Y8L         1 TEMP              0 ****  ****    0 ROOT
