@<TRIPOS>MOLECULE
Y8L
   49    52     1     0     0
SMALL
bcc


@<TRIPOS>ATOM
      1 C17        -6.2870   -0.7400    0.7200 c3        1 Y8L      0.180300
      2 C18        -6.0720   -2.2270    0.3640 c3        1 Y8L      0.129800
      3 N19        -6.4310   -2.5300   -1.0070 n3        1 Y8L     -0.818200
      4 C20        -5.8510   -1.6260   -1.9780 c3        1 Y8L      0.129800
      5 C21        -6.0430   -0.1400   -1.6000 c3        1 Y8L      0.180300
      6 N16        -5.7200    0.2060   -0.2300 nh        1 Y8L     -0.627400
      7 C12        -4.3960    0.6400    0.0580 ce        1 Y8L      0.087000
      8 C13        -3.2900    0.4150   -0.8730 ce        1 Y8L     -0.088000
      9 C14        -2.0480    0.8650   -0.6240 cf        1 Y8L     -0.268600
     10 C11        -4.1390    1.3460    1.1930 c2        1 Y8L     -0.180200
     11 C10        -2.8230    1.9080    1.5490 c3        1 Y8L     -0.096500
     12 C9         -1.6930    1.6130    0.5880 cf        1 Y8L      0.531600
     13 N7         -0.5080    2.0340    0.9070 ne        1 Y8L     -0.643700
     14 C4          0.6210    1.8320    0.0500 ca        1 Y8L      0.843000
     15 N5          1.5030    0.8310    0.4060 nb        1 Y8L     -0.714000
     16 N3          0.8030    2.7180   -0.9990 nb        1 Y8L     -0.711000
     17 C2          1.9580    2.6010   -1.6750 ca        1 Y8L      0.447200
     18 C1          2.9340    1.6400   -1.3740 ca        1 Y8L     -0.391600
     19 C6          2.6570    0.7500   -0.3050 ca        1 Y8L      0.563100
     20 C15         3.6350   -0.2730    0.0050 cc        1 Y8L     -0.251200
     21 S23         4.8770   -0.6190   -1.1260 ss        1 Y8L     -0.064200
     22 C24         5.5710   -1.8610   -0.1000 c         1 Y8L      0.672100
     23 O28         6.5620   -2.5680   -0.3270 o         1 Y8L     -0.584500
     24 N25         4.8110   -1.9550    1.0880 n         1 Y8L     -0.376000
     25 C29         5.1260   -2.8810    2.1350 c3        1 Y8L      0.076300
     26 C26         3.7310   -1.0620    1.1350 cd        1 Y8L      0.096400
     27 C27         2.8190   -1.0060    2.3030 c3        1 Y8L     -0.053900
     28 H171       -7.3940   -0.5300    0.7540 h1        1 Y8L      0.062450
     29 H172       -5.8590   -0.5590    1.7430 h1        1 Y8L      0.062450
     30 H181       -5.0010   -2.4990    0.5970 h1        1 Y8L      0.033700
     31 H182       -6.7360   -2.8450    1.0310 h1        1 Y8L      0.033700
     32 H19        -6.1840   -3.4770   -1.2270 hn        1 Y8L      0.365800
     33 H201       -4.7490   -1.8210   -2.1370 h1        1 Y8L      0.033700
     34 H202       -6.3720   -1.8060   -2.9600 h1        1 Y8L      0.033700
     35 H211       -5.4500    0.4940   -2.3130 h1        1 Y8L      0.062450
     36 H212       -7.1330    0.1200   -1.7320 h1        1 Y8L      0.062450
     37 H13        -3.4880   -0.1520   -1.7980 ha        1 Y8L      0.138000
     38 H11        -4.9320    1.5540    1.9310 ha        1 Y8L      0.140000
     39 H14        -1.2340    0.6750   -1.3450 ha        1 Y8L      0.144000
     40 H101       -2.9330    3.0300    1.6330 hc        1 Y8L      0.087200
     41 H102       -2.5400    1.5340    2.5750 hc        1 Y8L      0.087200
     42 H2          2.1010    3.3190   -2.5050 h4        1 Y8L      0.030100
     43 H1          3.8720    1.5790   -1.9400 ha        1 Y8L      0.161000
     44 H291        6.0040   -3.5050    1.8160 h1        1 Y8L      0.059367
     45 H292        5.3890   -2.3280    3.0770 h1        1 Y8L      0.059367
     46 H293        4.2480   -3.5520    2.3360 h1        1 Y8L      0.059367
     47 H271        1.8060   -1.3750    1.9980 hc        1 Y8L      0.071367
     48 H272        3.1790   -1.6210    3.1630 hc        1 Y8L      0.071367
     49 H273        2.7170    0.0550    2.6460 hc        1 Y8L      0.071367
@<TRIPOS>BOND
     1    1    2 1   
     2    1    6 1   
     3    1   28 1   
     4    1   29 1   
     5    2    3 1   
     6    2   30 1   
     7    2   31 1   
     8    3    4 1   
     9    3   32 1   
    10    4    5 1   
    11    4   33 1   
    12    4   34 1   
    13    5    6 1   
    14    5   35 1   
    15    5   36 1   
    16    6    7 1   
    17    7    8 1   
    18    7   10 2   
    19    8    9 2   
    20    8   37 1   
    21    9   12 1   
    22    9   39 1   
    23   10   11 1   
    24   10   38 1   
    25   11   12 1   
    26   11   40 1   
    27   11   41 1   
    28   12   13 2   
    29   13   14 1   
    30   14   15 ar  
    31   14   16 ar  
    32   15   19 ar  
    33   16   17 ar  
    34   17   18 ar  
    35   17   42 1   
    36   18   19 ar  
    37   18   43 1   
    38   19   20 1   
    39   20   21 1   
    40   20   26 2   
    41   21   22 1   
    42   22   23 2   
    43   22   24 1   
    44   24   25 1   
    45   24   26 1   
    46   25   44 1   
    47   25   45 1   
    48   25   46 1   
    49   26   27 1   
    50   27   47 1   
    51   27   48 1   
    52   27   49 1   
@<TRIPOS>SUBSTRUCTURE
     1 Y8L         1 TEMP              0 ****  ****    0 ROOT
