@<TRIPOS>MOLECULE
Y8L
   49    52     1     0     0
SMALL
bcc


@<TRIPOS>ATOM
      1 C17         0.4210   -0.0960   -0.2040 c3        1 Y8L      0.180300
      2 C18         1.7280   -0.7040    0.3500 c3        1 Y8L      0.129800
      3 N19         1.9560   -0.3670    1.7400 n7        1 Y8L     -0.818200
      4 C20         0.8120   -0.6070    2.5960 c3        1 Y8L      0.129800
      5 C21        -0.4970   -0.0210    2.0220 c3        1 Y8L      0.180300
      6 N16        -0.7550   -0.3130    0.6250 nh        1 Y8L     -0.627400
      7 C12        -1.5180   -1.4730    0.3120 ce        1 Y8L      0.087000
      8 C13        -1.7360   -2.5400    1.2880 ce        1 Y8L     -0.088000
      9 C14        -2.4930   -3.6150    1.0090 cf        1 Y8L     -0.268600
     10 C11        -2.1260   -1.5840   -0.9010 c2        1 Y8L     -0.180200
     11 C10        -2.9990   -2.7040   -1.2990 c3        1 Y8L     -0.096500
     12 C9         -3.1590   -3.8140   -0.2850 cf        1 Y8L      0.531600
     13 N7         -3.8600   -4.8490   -0.6320 ne        1 Y8L     -0.643700
     14 C4         -4.0960   -5.9380    0.2670 ca        1 Y8L      0.843000
     15 N5         -3.3510   -7.0830    0.0680 nb        1 Y8L     -0.714000
     16 N3         -5.1190   -5.8040    1.1910 nb        1 Y8L     -0.711000
     17 C2         -5.4210   -6.9040    1.9000 ca        1 Y8L      0.447200
     18 C1         -4.7480   -8.1260    1.7520 ca        1 Y8L     -0.391600
     19 C6         -3.6910   -8.1710    0.8070 ca        1 Y8L      0.563100
     20 C15        -2.9590   -9.4130    0.6580 cc        1 Y8L     -0.251200
     21 S23        -3.1250  -10.6340    1.8510 ss        1 Y8L     -0.064200
     22 C24        -2.0150  -11.7060    1.0170 c         1 Y8L      0.672100
     23 O28        -1.6530  -12.8410    1.3570 o         1 Y8L     -0.584500
     24 N25        -1.5610  -11.0720   -0.1630 n         1 Y8L     -0.376000
     25 C29        -0.6410  -11.6940   -1.0680 c3        1 Y8L      0.076300
     26 C26        -2.0960   -9.7910   -0.3520 cd        1 Y8L      0.096400
     27 C27        -1.7450   -8.9690   -1.5350 c3        1 Y8L     -0.053900
     28 H171        0.2480   -0.5150   -1.2320 h1        1 Y8L      0.062450
     29 H172        0.5480    1.0210   -0.2890 h1        1 Y8L      0.062450
     30 H181        2.5880   -0.2860   -0.2440 h1        1 Y8L      0.033700
     31 H182        1.7040   -1.8210    0.1780 h1        1 Y8L      0.033700
     32 H19         2.7570   -0.8600    2.0890 hn        1 Y8L      0.365800
     33 H201        0.6590   -1.7070    2.8040 h1        1 Y8L      0.033700
     34 H202        1.0170   -0.1020    3.5820 h1        1 Y8L      0.033700
     35 H211       -1.3570   -0.3660    2.6580 h1        1 Y8L      0.062450
     36 H212       -0.4430    1.1040    2.0930 h1        1 Y8L      0.062450
     37 H13        -1.2520   -2.4560    2.2760 ha        1 Y8L      0.138000
     38 H11        -2.0040   -0.8090   -1.6770 ha        1 Y8L      0.140000
     39 H14        -2.6350   -4.4050    1.7660 ha        1 Y8L      0.144000
     40 H101       -2.6050   -3.1400   -2.2620 hc        1 Y8L      0.087200
     41 H102       -4.0220   -2.2840   -1.5290 hc        1 Y8L      0.087200
     42 H2         -6.2460   -6.7920    2.6280 h4        1 Y8L      0.030100
     43 H1         -5.0280   -9.0080    2.3410 ha        1 Y8L      0.161000
     44 H291        0.2720  -11.0530   -1.1940 h1        1 Y8L      0.059367
     45 H292       -1.1250  -11.8470   -2.0710 h1        1 Y8L      0.059367
     46 H293       -0.3380  -12.6930   -0.6500 h1        1 Y8L      0.059367
     47 H271       -1.1430   -8.0830   -1.2040 hc        1 Y8L      0.071367
     48 H272       -2.6820   -8.5940   -2.0210 hc        1 Y8L      0.071367
     49 H273       -1.1550   -9.5350   -2.2970 hc        1 Y8L      0.071367
@<TRIPOS>BOND
     1    1    2 1   
     2    1    6 1   
     3    1   28 1   
     4    1   29 1   
     5    2    3 1   
     6    2   30 1   
     7    2   31 1   
     8    3    4 1   
     9    3   32 1   
    10    4    5 1   
    11    4   33 1   
    12    4   34 1   
    13    5    6 1   
    14    5   35 1   
    15    5   36 1   
    16    6    7 1   
    17    7    8 1   
    18    7   10 2   
    19    8    9 2   
    20    8   37 1   
    21    9   12 1   
    22    9   39 1   
    23   10   11 1   
    24   10   38 1   
    25   11   12 1   
    26   11   40 1   
    27   11   41 1   
    28   12   13 2   
    29   13   14 1   
    30   14   15 ar  
    31   14   16 ar  
    32   15   19 ar  
    33   16   17 ar  
    34   17   18 ar  
    35   17   42 1   
    36   18   19 ar  
    37   18   43 1   
    38   19   20 1   
    39   20   21 1   
    40   20   26 2   
    41   21   22 1   
    42   22   23 2   
    43   22   24 1   
    44   24   25 1   
    45   24   26 1   
    46   25   44 1   
    47   25   45 1   
    48   25   46 1   
    49   26   27 1   
    50   27   47 1   
    51   27   48 1   
    52   27   49 1   
@<TRIPOS>SUBSTRUCTURE
     1 Y8L         1 TEMP              0 ****  ****    0 ROOT
