@<TRIPOS>MOLECULE
Y9Z
   56    58     1     0     0
SMALL
bcc


@<TRIPOS>ATOM
      1 N           1.7350    1.2560    0.7210 ns        1 Y9Z     -0.504400
      2 C           3.1020    1.4000    1.1130 c         1 Y9Z      0.646000
      3 O           3.8830    1.8080    0.2490 o         1 Y9Z     -0.549500
      4 P           2.9860    3.2890    9.6980 p5        1 Y9Z      1.627800
      5 P1          5.6040    2.8860    7.8060 p5        1 Y9Z      1.622800
      6 C1          0.7760    0.7920    1.6350 cc        1 Y9Z      0.414800
      7 N1         -0.6400    0.7030    1.1620 nz        1 Y9Z     -0.781600
      8 O1          2.6880   -1.9780    7.1790 oh        1 Y9Z     -0.594800
      9 C2          2.2730    0.5500    3.3260 cd        1 Y9Z     -0.036200
     10 N2          0.9740    0.4160    2.9000 nd        1 Y9Z     -0.472100
     11 O2          1.5600   -0.4720    9.0450 oh        1 Y9Z     -0.630800
     12 C3          3.3650    1.0360    2.4980 cc        1 Y9Z      0.307800
     13 N3          4.5250    1.0890    3.2330 nc        1 Y9Z     -0.613000
     14 O3          1.8490    3.4280    8.5150 os        1 Y9Z     -0.591200
     15 C4          4.1780    0.6610    4.4890 cd        1 Y9Z      0.519400
     16 N4          2.8330    0.2970    4.5930 na        1 Y9Z     -0.151900
     17 O4          4.3210    3.0920    8.7870 os        1 Y9Z     -0.841800
     18 C5          2.0340   -0.1790    5.7190 c3        1 Y9Z      0.207800
     19 N5          5.5240    5.8230    9.4210 ny        1 Y9Z     -0.737800
     20 O5          5.2820    4.2410    6.8960 os        1 Y9Z     -0.595200
     21 C6          2.8440   -0.5950    6.9930 c3        1 Y9Z      0.120100
     22 O6          6.3640    7.8300   10.2910 o         1 Y9Z     -0.509100
     23 C7          2.2810    0.3010    8.1110 c3        1 Y9Z      0.097100
     24 O7          5.3900    1.6890    6.9770 o         1 Y9Z     -0.866500
     25 C8          1.3490    1.3130    7.4140 c3        1 Y9Z      0.071100
     26 O8          6.7520    3.3310    8.6250 o         1 Y9Z     -0.866500
     27 C9          1.9820    2.7150    7.3280 c3        1 Y9Z      0.187400
     28 O9          3.2240    4.6290   10.3060 o         1 Y9Z     -0.853500
     29 C10         6.1090    5.3460    7.0130 c3        1 Y9Z      0.191400
     30 O10         2.6650    2.0330   10.3890 o         1 Y9Z     -0.853500
     31 C11         5.6110    6.3810    8.0520 c3        1 Y9Z      0.082800
     32 O11         1.0880    0.8220    6.0860 os        1 Y9Z     -0.420600
     33 C12         5.8610    6.7330   10.5310 c         1 Y9Z      0.571100
     34 C13         5.5210    6.2080   11.8910 c3        1 Y9Z     -0.197100
     35 H1          1.4860    1.5310   -0.2020 hn        1 Y9Z      0.332500
     36 H2         -0.9650    1.6350    0.8870 hn        1 Y9Z      0.470133
     37 H3         -0.6980    0.0610    0.3660 hn        1 Y9Z      0.470133
     38 H4          1.9850   -2.1270    7.8280 ho        1 Y9Z      0.434000
     39 H5          1.6930   -0.0330    9.9050 ho        1 Y9Z      0.472000
     40 H6          4.8890    0.6440    5.3540 h5        1 Y9Z      0.180100
     41 H7          1.4300   -1.0550    5.3310 h2        1 Y9Z      0.092700
     42 H8          4.5160    5.4530    9.6080 hn        1 Y9Z      0.527300
     43 H9          3.9510   -0.4120    6.8820 h1        1 Y9Z      0.129700
     44 H10         3.1190    0.8470    8.6360 h1        1 Y9Z      0.122700
     45 H12         0.3460    1.3600    7.9140 h1        1 Y9Z      0.098700
     46 H13         3.0710    2.6270    7.0460 h1        1 Y9Z      0.042200
     47 H14         1.4380    3.2970    6.5330 h1        1 Y9Z      0.042200
     48 H15         6.1040    5.8770    6.0200 h1        1 Y9Z      0.053700
     49 H16         7.1580    5.0260    7.2720 h1        1 Y9Z      0.053700
     50 H18         4.5850    6.7390    7.7600 hx        1 Y9Z      0.083700
     51 H19         6.3220    7.2540    8.0460 hx        1 Y9Z      0.083700
     52 H20         5.6220    7.0320   12.6370 hc        1 Y9Z      0.104700
     53 H21         4.4680    5.8060   11.9040 hc        1 Y9Z      0.104700
     54 H22         6.2180    5.3750   12.1580 hc        1 Y9Z      0.104700
     55 H131       -1.2320    0.3510    1.9290 hn        1 Y9Z      0.470133
     56 H52         6.1370    4.9630    9.4620 hn        1 Y9Z      0.527300
@<TRIPOS>BOND
     1    1    2 1   
     2    1    6 1   
     3    1   35 1   
     4    2    3 2   
     5    2   12 1   
     6    4   14 1   
     7    4   17 1   
     8    4   28 1   
     9    4   30 1   
    10    5   17 1   
    11    5   20 1   
    12    5   24 1   
    13    5   26 1   
    14    6    7 1   
    15    6   10 2   
    16    7   36 1   
    17    7   37 1   
    18    7   55 1   
    19    8   21 1   
    20    8   38 1   
    21    9   10 1   
    22    9   12 2   
    23    9   16 1   
    24   11   23 1   
    25   11   39 1   
    26   12   13 1   
    27   13   15 2   
    28   14   27 1   
    29   15   16 1   
    30   15   40 1   
    31   16   18 1   
    32   18   21 1   
    33   18   32 1   
    34   18   41 1   
    35   19   31 1   
    36   19   33 1   
    37   19   42 1   
    38   19   56 1   
    39   20   29 1   
    40   21   23 1   
    41   21   43 1   
    42   22   33 2   
    43   23   25 1   
    44   23   44 1   
    45   25   27 1   
    46   25   32 1   
    47   25   45 1   
    48   27   46 1   
    49   27   47 1   
    50   29   31 1   
    51   29   48 1   
    52   29   49 1   
    53   31   50 1   
    54   31   51 1   
    55   33   34 1   
    56   34   52 1   
    57   34   53 1   
    58   34   54 1   
@<TRIPOS>SUBSTRUCTURE
     1 Y9Z         1 TEMP              0 ****  ****    0 ROOT
