@<TRIPOS>MOLECULE
YA1
   86    88     1     0     0
SMALL
bcc


@<TRIPOS>ATOM
      1 O2          0.4000    1.1370   -0.2110 oh        1 YA1     -0.594300
      2 C3          1.7600    0.7840    0.0060 c3        1 YA1      0.183800
      3 C2          2.1970    0.9620    1.4300 c2        1 YA1     -0.193400
      4 C9          1.4210    1.4480    2.3990 c2        1 YA1     -0.199000
      5 C1          3.6100    0.5130    1.6820 c3        1 YA1      0.183800
      6 O1          4.5580    1.3560    1.0330 oh        1 YA1     -0.594300
      7 C6          3.8480   -0.9080    1.1690 c3        1 YA1     -0.034200
      8 C4          1.8940   -0.6840   -0.4110 c3        1 YA1     -0.034200
      9 C5          3.2840   -1.1650   -0.1880 c2        1 YA1     -0.109400
     10 C10         4.0050   -1.8250   -1.1120 ce        1 YA1     -0.120000
     11 C11         3.5340   -2.1970   -2.4290 ce        1 YA1     -0.151000
     12 C12         4.2990   -2.2900   -3.5290 c2        1 YA1     -0.076400
     13 C13         5.7490   -1.9320   -3.5880 c3        1 YA1     -0.045200
     14 C14         6.5970   -2.9450   -4.3380 c3        1 YA1     -0.073400
     15 C15         5.9940   -3.4140   -5.6510 c3        1 YA1     -0.067400
     16 C17         3.7710   -2.6790   -4.8630 c3        1 YA1     -0.037500
     17 C16         4.5610   -3.8830   -5.4500 c3        1 YA1     -0.040000
     18 C23         4.5110   -5.0760   -4.5110 c3        1 YA1     -0.082100
     19 C18         2.3140   -3.0750   -5.0440 c3        1 YA1     -0.073400
     20 C19         2.2970   -3.8870   -6.3410 c3        1 YA1     -0.079400
     21 C20         3.7600   -4.1640   -6.7440 c3        1 YA1     -0.055700
     22 C21         3.9290   -5.5460   -7.3670 c3        1 YA1     -0.050700
     23 C22         5.3770   -5.8420   -7.7060 c3        1 YA1     -0.090100
     24 C24         3.0370   -5.7010   -8.6110 c3        1 YA1     -0.062700
     25 C31         2.7190   -7.1710   -8.8640 c3        1 YA1     -0.078400
     26 C32         1.5740   -7.6620   -8.0020 c3        1 YA1     -0.080400
     27 C33         1.3230   -9.1400   -8.2130 c3        1 YA1     -0.080400
     28 C34         0.1740   -9.6320   -7.3720 c3        1 YA1     -0.093100
     29 C25         3.6720   -5.0650   -9.8410 c3        1 YA1     -0.075400
     30 C26         2.6490   -4.7400  -10.9080 c3        1 YA1     -0.064400
     31 C27         3.2410   -3.9400  -12.0740 c3        1 YA1      0.147800
     32 C29         4.4080   -4.6700  -12.7280 c3        1 YA1     -0.123100
     33 C28         2.1530   -3.6720  -13.1110 c3        1 YA1     -0.123100
     34 O3          3.6890   -2.7020  -11.5180 oh        1 YA1     -0.597800
     35 H1          0.3260    2.0800   -0.0280 ho        1 YA1      0.399500
     36 H2          2.4230    1.4240   -0.6470 h1        1 YA1      0.044700
     37 H3          1.7710    1.5670    3.4320 ha        1 YA1      0.119500
     38 H4          0.3770    1.7410    2.2220 ha        1 YA1      0.119500
     39 H5          3.8240    0.5370    2.7920 h1        1 YA1      0.044700
     40 H6          4.3230    2.2640    1.2550 ho        1 YA1      0.399500
     41 H7          3.3660   -1.6180    1.8940 hc        1 YA1      0.062450
     42 H8          4.9550   -1.0980    1.1770 hc        1 YA1      0.062450
     43 H9          1.1780   -1.3040    0.1910 hc        1 YA1      0.062450
     44 H10         1.5930   -0.7690   -1.4880 hc        1 YA1      0.062450
     45 H11         5.0360   -2.1380   -0.8660 ha        1 YA1      0.124000
     46 H12         2.4550   -2.4290   -2.5010 ha        1 YA1      0.127000
     47 H13         6.1710   -1.8040   -2.5570 hc        1 YA1      0.049200
     48 H14         5.8300   -0.9340   -4.1020 hc        1 YA1      0.049200
     49 H15         7.6010   -2.4870   -4.5430 hc        1 YA1      0.039200
     50 H16         6.7700   -3.8370   -3.6780 hc        1 YA1      0.039200
     51 H17         6.6230   -4.2440   -6.0650 hc        1 YA1      0.042700
     52 H18         6.0110   -2.5760   -6.3960 hc        1 YA1      0.042700
     53 H19         3.9570   -1.7920   -5.5430 hc        1 YA1      0.056700
     54 H20         5.2110   -5.8760   -4.8550 hc        1 YA1      0.036700
     55 H21         3.4770   -5.4970   -4.4730 hc        1 YA1      0.036700
     56 H22         4.8010   -4.7720   -3.4760 hc        1 YA1      0.036700
     57 H23         1.9570   -3.7000   -4.1880 hc        1 YA1      0.044200
     58 H24         1.6530   -2.1770   -5.1130 hc        1 YA1      0.044200
     59 H25         1.7780   -3.3190   -7.1520 hc        1 YA1      0.042700
     60 H26         1.7440   -4.8470   -6.1850 hc        1 YA1      0.042700
     61 H27         4.0740   -3.4000   -7.5080 hc        1 YA1      0.053700
     62 H28         3.5860   -6.3110   -6.6120 hc        1 YA1      0.049700
     63 H29         5.4470   -6.7180   -8.3960 hc        1 YA1      0.034033
     64 H30         5.8570   -4.9640   -8.2030 hc        1 YA1      0.034033
     65 H31         5.9540   -6.0860   -6.7820 hc        1 YA1      0.034033
     66 H32         2.0620   -5.1700   -8.4140 hc        1 YA1      0.051700
     67 H33         3.6300   -7.7970   -8.6710 hc        1 YA1      0.039700
     68 H34         2.4460   -7.3140   -9.9430 hc        1 YA1      0.039700
     69 H35         1.8010   -7.4710   -6.9200 hc        1 YA1      0.040200
     70 H36         0.6440   -7.0860   -8.2480 hc        1 YA1      0.040200
     71 H37         1.1060   -9.3310   -9.2970 hc        1 YA1      0.037700
     72 H38         2.2510   -9.7170   -7.9570 hc        1 YA1      0.037700
     73 H39        -0.7660   -9.0870   -7.6320 hc        1 YA1      0.032367
     74 H40         0.3820   -9.4720   -6.2870 hc        1 YA1      0.032367
     75 H41         0.0070  -10.7230   -7.5420 hc        1 YA1      0.032367
     76 H42         4.4510   -5.7550  -10.2600 hc        1 YA1      0.050200
     77 H43         4.1910   -4.1120   -9.5480 hc        1 YA1      0.050200
     78 H44         1.8180   -4.1350  -10.4580 hc        1 YA1      0.047200
     79 H45         2.2050   -5.6820  -11.3250 hc        1 YA1      0.047200
     80 H46         4.1130   -5.7160  -12.9780 hc        1 YA1      0.042200
     81 H47         4.7150   -4.1470  -13.6650 hc        1 YA1      0.042200
     82 H48         5.2810   -4.6930  -12.0330 hc        1 YA1      0.042200
     83 H49         1.7690   -4.6350  -13.5210 hc        1 YA1      0.042200
     84 H50         1.3090   -3.1130  -12.6410 hc        1 YA1      0.042200
     85 H51         2.5610   -3.0600  -13.9500 hc        1 YA1      0.042200
     86 H52         4.0590   -2.1900  -12.2460 ho        1 YA1      0.396000
@<TRIPOS>BOND
     1    1    2 1   
     2    1   35 1   
     3    2    3 1   
     4    2    8 1   
     5    2   36 1   
     6    3    4 2   
     7    3    5 1   
     8    4   37 1   
     9    4   38 1   
    10    5    6 1   
    11    5    7 1   
    12    5   39 1   
    13    6   40 1   
    14    7    9 1   
    15    7   41 1   
    16    7   42 1   
    17    8    9 1   
    18    8   43 1   
    19    8   44 1   
    20    9   10 2   
    21   10   11 1   
    22   10   45 1   
    23   11   12 2   
    24   11   46 1   
    25   12   13 1   
    26   12   16 1   
    27   13   14 1   
    28   13   47 1   
    29   13   48 1   
    30   14   15 1   
    31   14   49 1   
    32   14   50 1   
    33   15   17 1   
    34   15   51 1   
    35   15   52 1   
    36   16   17 1   
    37   16   19 1   
    38   16   53 1   
    39   17   18 1   
    40   17   21 1   
    41   18   54 1   
    42   18   55 1   
    43   18   56 1   
    44   19   20 1   
    45   19   57 1   
    46   19   58 1   
    47   20   21 1   
    48   20   59 1   
    49   20   60 1   
    50   21   22 1   
    51   21   61 1   
    52   22   23 1   
    53   22   24 1   
    54   22   62 1   
    55   23   63 1   
    56   23   64 1   
    57   23   65 1   
    58   24   25 1   
    59   24   29 1   
    60   24   66 1   
    61   25   26 1   
    62   25   67 1   
    63   25   68 1   
    64   26   27 1   
    65   26   69 1   
    66   26   70 1   
    67   27   28 1   
    68   27   71 1   
    69   27   72 1   
    70   28   73 1   
    71   28   74 1   
    72   28   75 1   
    73   29   30 1   
    74   29   76 1   
    75   29   77 1   
    76   30   31 1   
    77   30   78 1   
    78   30   79 1   
    79   31   32 1   
    80   31   33 1   
    81   31   34 1   
    82   32   80 1   
    83   32   81 1   
    84   32   82 1   
    85   33   83 1   
    86   33   84 1   
    87   33   85 1   
    88   34   86 1   
@<TRIPOS>SUBSTRUCTURE
     1 YA1         1 TEMP              0 ****  ****    0 ROOT
