@<TRIPOS>MOLECULE
YA2
   89    91     1     0     0
SMALL
bcc


@<TRIPOS>ATOM
      1 O31        -0.0270    0.5270   -0.2660 oh        1 YA2     -0.601800
      2 C26         1.3330    0.1270   -0.0730 c3        1 YA2      0.152800
      3 C29         1.5680   -0.1290    1.4190 c3        1 YA2     -0.107900
      4 C30         2.9170   -0.7100    1.7450 c3        1 YA2     -0.093100
      5 C27         1.6290   -1.1180   -0.9240 c3        1 YA2     -0.107900
      6 C28         0.8380   -2.3370   -0.5290 c3        1 YA2     -0.093100
      7 C25         2.1810    1.2910   -0.6160 c3        1 YA2     -0.061400
      8 C20         1.8770    2.6390    0.0260 c3        1 YA2     -0.062700
      9 C21         2.8800    2.9710    1.1280 c3        1 YA2     -0.082400
     10 C22         2.2600    3.8300    2.2120 c3        1 YA2     -0.080400
     11 C23         3.2880    4.2390    3.2450 c3        1 YA2     -0.080400
     12 C24         2.6730    5.0740    4.3380 c3        1 YA2     -0.092100
     13 C18         1.8360    3.7760   -1.0110 c3        1 YA2     -0.049700
     14 C19         3.0390    3.7170   -1.9330 c3        1 YA2     -0.090100
     15 C17         0.5260    3.7570   -1.7920 c3        1 YA2     -0.052700
     16 C16        -0.7060    3.8450   -0.8690 c3        1 YA2     -0.081400
     17 C15        -1.7750    4.6640   -1.5960 c3        1 YA2     -0.073400
     18 C13         0.3100    4.9010   -2.8110 c3        1 YA2     -0.042000
     19 C14        -1.2310    4.8380   -3.0070 c3        1 YA2     -0.037500
     20 C35         0.7350    6.2350   -2.2210 c3        1 YA2     -0.082100
     21 C12         0.9410    4.6970   -4.1800 c3        1 YA2     -0.067400
     22 C11         0.4610    5.7540   -5.1600 c3        1 YA2     -0.073400
     23 C10        -1.0490    5.9080   -5.2230 c3        1 YA2     -0.045200
     24 C9         -1.7060    5.9420   -3.8810 c2        1 YA2     -0.075400
     25 C8         -2.6690    6.8080   -3.5240 ce        1 YA2     -0.152000
     26 C7         -3.1580    7.8970   -4.3410 ce        1 YA2     -0.119000
     27 C1         -4.4150    8.3770   -4.3250 c2        1 YA2     -0.110400
     28 C2         -4.7830    9.5600   -5.1530 c3        1 YA2     -0.034200
     29 C6         -5.5020    7.8160   -3.4780 c3        1 YA2     -0.034200
     30 C5         -6.7630    7.5720   -4.3140 c3        1 YA2      0.183800
     31 O33        -7.7460    7.0740   -3.4160 oh        1 YA2     -0.594300
     32 C4         -7.1800    8.8350   -5.0080 c2        1 YA2     -0.193400
     33 C32        -8.3670    9.4210   -4.8490 c2        1 YA2     -0.199000
     34 C3         -6.1130    9.4110   -5.8960 c3        1 YA2      0.183800
     35 O34        -5.8660    8.5850   -7.0310 oh        1 YA2     -0.594300
     36 H1         -0.5810   -0.1890    0.0660 ho        1 YA2      0.397000
     37 H2          0.7670   -0.8240    1.7910 hc        1 YA2      0.048950
     38 H3          1.4310    0.8450    1.9620 hc        1 YA2      0.048950
     39 H4          3.7400   -0.1040    1.2920 hc        1 YA2      0.035200
     40 H5          3.0040   -1.7570    1.3640 hc        1 YA2      0.035200
     41 H6          3.0650   -0.7280    2.8530 hc        1 YA2      0.035200
     42 H7          1.4010   -0.8670   -1.9940 hc        1 YA2      0.048950
     43 H8          2.7250   -1.3400   -0.8530 hc        1 YA2      0.048950
     44 H9          1.0570   -2.6370    0.5240 hc        1 YA2      0.035200
     45 H10         1.1010   -3.1930   -1.1980 hc        1 YA2      0.035200
     46 H11        -0.2600   -2.1510   -0.6230 hc        1 YA2      0.035200
     47 H12         3.2620    1.0290   -0.4850 hc        1 YA2      0.049200
     48 H13         1.9790    1.3530   -1.7190 hc        1 YA2      0.049200
     49 H14         0.8560    2.5670    0.5020 hc        1 YA2      0.072700
     50 H15         3.2600    2.0220    1.5930 hc        1 YA2      0.040200
     51 H16         3.7690    3.5000    0.6940 hc        1 YA2      0.040200
     52 H17         1.8020    4.7470    1.7560 hc        1 YA2      0.040700
     53 H18         1.4320    3.2610    2.7120 hc        1 YA2      0.040700
     54 H19         3.7560    3.3210    3.6910 hc        1 YA2      0.037700
     55 H20         4.1110    4.8170    2.7470 hc        1 YA2      0.037700
     56 H21         1.8690    4.5040    4.8640 hc        1 YA2      0.032367
     57 H22         2.2220    6.0050    3.9160 hc        1 YA2      0.032367
     58 H23         3.4470    5.3650    5.0880 hc        1 YA2      0.032367
     59 H24         1.8830    4.7450   -0.4350 hc        1 YA2      0.049700
     60 H25         3.2820    4.7360   -2.3220 hc        1 YA2      0.032700
     61 H26         2.8440    3.0470   -2.8060 hc        1 YA2      0.032700
     62 H27         3.9360    3.3290   -1.3920 hc        1 YA2      0.032700
     63 H28         0.4750    2.7840   -2.3560 hc        1 YA2      0.053700
     64 H29        -1.0770    2.8150   -0.6370 hc        1 YA2      0.049700
     65 H30        -0.4380    4.3420    0.0970 hc        1 YA2      0.049700
     66 H31        -2.7600    4.1390   -1.6030 hc        1 YA2      0.042700
     67 H32        -1.9160    5.6540   -1.0940 hc        1 YA2      0.042700
     68 H33        -1.4580    3.8790   -3.5650 hc        1 YA2      0.056700
     69 H34         1.8480    6.3270   -2.2270 hc        1 YA2      0.036367
     70 H35         0.3050    7.0800   -2.8130 hc        1 YA2      0.036367
     71 H36         0.3730    6.3280   -1.1690 hc        1 YA2      0.036367
     72 H37         2.0580    4.7520   -4.1060 hc        1 YA2      0.041200
     73 H38         0.6780    3.6760   -4.5630 hc        1 YA2      0.041200
     74 H39         0.9180    6.7410   -4.8820 hc        1 YA2      0.038700
     75 H40         0.8360    5.4940   -6.1850 hc        1 YA2      0.038700
     76 H41        -1.2900    6.8340   -5.8090 hc        1 YA2      0.049200
     77 H42        -1.4840    5.0390   -5.7900 hc        1 YA2      0.049200
     78 H43        -3.1350    6.7150   -2.5260 ha        1 YA2      0.127000
     79 H44        -2.4130    8.3680   -5.0100 ha        1 YA2      0.124000
     80 H45        -3.9850    9.7730   -5.9130 hc        1 YA2      0.062450
     81 H46        -4.8690   10.4550   -4.4780 hc        1 YA2      0.062450
     82 H47        -5.2020    6.8450   -3.0070 hc        1 YA2      0.062450
     83 H48        -5.7450    8.5350   -2.6500 hc        1 YA2      0.062450
     84 H49        -6.5450    6.7940   -5.1040 h1        1 YA2      0.044700
     85 H50        -8.5150    6.8420   -3.9490 ho        1 YA2      0.399500
     86 H51        -9.1330    9.0200   -4.1710 ha        1 YA2      0.119500
     87 H52        -8.6430   10.3460   -5.3730 ha        1 YA2      0.119500
     88 H53        -6.4350   10.4280   -6.2680 h1        1 YA2      0.044700
     89 H54        -6.7240    8.3830   -7.4220 ho        1 YA2      0.399500
@<TRIPOS>BOND
     1    1    2 1   
     2    1   36 1   
     3    2    3 1   
     4    2    5 1   
     5    2    7 1   
     6    3    4 1   
     7    3   37 1   
     8    3   38 1   
     9    4   39 1   
    10    4   40 1   
    11    4   41 1   
    12    5    6 1   
    13    5   42 1   
    14    5   43 1   
    15    6   44 1   
    16    6   45 1   
    17    6   46 1   
    18    7    8 1   
    19    7   47 1   
    20    7   48 1   
    21    8    9 1   
    22    8   13 1   
    23    8   49 1   
    24    9   10 1   
    25    9   50 1   
    26    9   51 1   
    27   10   11 1   
    28   10   52 1   
    29   10   53 1   
    30   11   12 1   
    31   11   54 1   
    32   11   55 1   
    33   12   56 1   
    34   12   57 1   
    35   12   58 1   
    36   13   14 1   
    37   13   15 1   
    38   13   59 1   
    39   14   60 1   
    40   14   61 1   
    41   14   62 1   
    42   15   16 1   
    43   15   18 1   
    44   15   63 1   
    45   16   17 1   
    46   16   64 1   
    47   16   65 1   
    48   17   19 1   
    49   17   66 1   
    50   17   67 1   
    51   18   19 1   
    52   18   20 1   
    53   18   21 1   
    54   19   24 1   
    55   19   68 1   
    56   20   69 1   
    57   20   70 1   
    58   20   71 1   
    59   21   22 1   
    60   21   72 1   
    61   21   73 1   
    62   22   23 1   
    63   22   74 1   
    64   22   75 1   
    65   23   24 1   
    66   23   76 1   
    67   23   77 1   
    68   24   25 2   
    69   25   26 1   
    70   25   78 1   
    71   26   27 2   
    72   26   79 1   
    73   27   28 1   
    74   27   29 1   
    75   28   34 1   
    76   28   80 1   
    77   28   81 1   
    78   29   30 1   
    79   29   82 1   
    80   29   83 1   
    81   30   31 1   
    82   30   32 1   
    83   30   84 1   
    84   31   85 1   
    85   32   33 2   
    86   32   34 1   
    87   33   86 1   
    88   33   87 1   
    89   34   35 1   
    90   34   88 1   
    91   35   89 1   
@<TRIPOS>SUBSTRUCTURE
     1 YA2         1 TEMP              0 ****  ****    0 ROOT
