@<TRIPOS>MOLECULE
YAK
   59    63     1     0     0
SMALL
bcc


@<TRIPOS>ATOM
      1 F34         8.5900    2.6040   -1.9610 f         1 YAK     -0.138900
      2 C11         7.6230    2.1140   -1.1500 ca        1 YAK      0.132900
      3 C5          7.9130    1.0440   -0.2820 ca        1 YAK     -0.169000
      4 C6          6.3320    2.6760   -1.1790 ca        1 YAK     -0.169000
      5 C2          5.3470    2.1650   -0.3410 ca        1 YAK     -0.091500
      6 C8          5.6310    1.1030    0.5260 ca        1 YAK     -0.135300
      7 C1          6.9120    0.5470    0.5470 ca        1 YAK     -0.091500
      8 C23         4.5580    0.5900    1.4440 c3        1 YAK      0.144300
      9 N26         3.5830   -0.2700    0.8050 n         1 YAK     -0.463800
     10 C21         3.9620   -1.6480    0.6080 c3        1 YAK      0.111700
     11 C19         3.7670   -2.5550    1.8450 c3        1 YAK     -0.099400
     12 C17         3.6070   -3.9670    1.3080 c3        1 YAK     -0.082400
     13 C20         3.2410   -2.3820   -0.5490 c3        1 YAK     -0.050500
     14 C18         3.3220   -3.8680   -0.1850 c3        1 YAK     -0.073400
     15 C14         1.8310   -1.9000   -0.7330 c2        1 YAK      0.242900
     16 O33         1.0830   -2.8010   -1.4160 oh        1 YAK     -0.477100
     17 C16         2.3940    0.2580    0.3220 c         1 YAK      0.742700
     18 O28         2.1830    1.4870    0.4330 o         1 YAK     -0.669500
     19 C13         1.4250   -0.6650   -0.3160 ce        1 YAK     -0.389800
     20 C15         0.0160   -0.2060   -0.4380 ce        1 YAK      0.779500
     21 N24        -0.9340   -1.0630   -0.0960 nf        1 YAK     -0.692100
     22 C9         -2.2840   -0.6960   -0.1480 ca        1 YAK      0.250400
     23 C3         -3.2440   -1.6160    0.3420 ca        1 YAK     -0.112000
     24 N25        -0.2230    1.0850   -0.9060 nh        1 YAK     -0.838100
     25 S35        -1.6980    1.7050   -1.3100 sy        1 YAK      1.521200
     26 O29        -1.8290    1.7270   -2.7040 o         1 YAK     -0.641800
     27 O30        -1.8870    2.9430   -0.6840 o         1 YAK     -0.641800
     28 C12        -2.7280    0.5470   -0.6580 ca        1 YAK     -0.407500
     29 C7         -4.0940    0.8490   -0.6440 ca        1 YAK     -0.044000
     30 C10        -5.0450   -0.0560   -0.1500 ca        1 YAK      0.122600
     31 C4         -4.5910   -1.3100    0.3350 ca        1 YAK     -0.099000
     32 N27        -6.4100    0.2750   -0.1570 nh        1 YAK     -0.783500
     33 S36        -7.5340   -0.1170    0.9570 s6        1 YAK      1.470900
     34 O31        -8.7890    0.2640    0.4440 o         1 YAK     -0.649300
     35 O32        -7.3920   -1.4510    1.3810 o         1 YAK     -0.649300
     36 C22        -7.1590    0.8920    2.2680 c3        1 YAK     -0.374300
     37 H5          8.9250    0.6150   -0.2670 ha        1 YAK      0.151000
     38 H6          6.1170    3.5120   -1.8600 ha        1 YAK      0.151000
     39 H2          4.3300    2.5950   -0.3520 ha        1 YAK      0.147500
     40 H1          7.1390   -0.2880    1.2270 ha        1 YAK      0.147500
     41 H23         5.0310    0.0050    2.2850 h1        1 YAK      0.072700
     42 H23A        4.0100    1.4730    1.8880 h1        1 YAK      0.072700
     43 H21         5.0690   -1.6520    0.3540 h1        1 YAK      0.066700
     44 H19         4.6480   -2.4710    2.5260 hc        1 YAK      0.057700
     45 H19A        2.8590   -2.2530    2.4260 hc        1 YAK      0.057700
     46 H17         4.5370   -4.5640    1.4850 hc        1 YAK      0.051700
     47 H17A        2.7710   -4.4930    1.8340 hc        1 YAK      0.051700
     48 H20         3.7770   -2.1930   -1.5200 hc        1 YAK      0.092700
     49 H18         4.1490   -4.3430   -0.7720 hc        1 YAK      0.064700
     50 H18A        2.3760   -4.4010   -0.4510 hc        1 YAK      0.064700
     51 HO33        0.1650   -2.4960   -1.5070 ho        1 YAK      0.459000
     52 H3         -2.9130   -2.5920    0.7350 ha        1 YAK      0.160000
     53 HN25        0.5880    1.6750   -0.9170 hn        1 YAK      0.492800
     54 H7         -4.4160    1.8300   -1.0390 ha        1 YAK      0.150000
     55 H4         -5.3140   -2.0560    0.7170 ha        1 YAK      0.180000
     56 HN27       -6.6690    0.8410   -0.9370 hn        1 YAK      0.461800
     57 H22        -7.3290    1.9760    2.0550 h1        1 YAK      0.120700
     58 H22A       -7.8060    0.6440    3.1480 h1        1 YAK      0.120700
     59 H22B       -6.1050    0.8020    2.6280 h1        1 YAK      0.120700
@<TRIPOS>BOND
     1    1    2 1   
     2    2    3 ar  
     3    2    4 ar  
     4    3    7 ar  
     5    3   37 1   
     6    4    5 ar  
     7    4   38 1   
     8    5    6 ar  
     9    5   39 1   
    10    6    7 ar  
    11    6    8 1   
    12    7   40 1   
    13    8    9 1   
    14    8   41 1   
    15    8   42 1   
    16    9   10 1   
    17    9   17 1   
    18   10   11 1   
    19   10   13 1   
    20   10   43 1   
    21   11   12 1   
    22   11   44 1   
    23   11   45 1   
    24   12   14 1   
    25   12   46 1   
    26   12   47 1   
    27   13   14 1   
    28   13   15 1   
    29   13   48 1   
    30   14   49 1   
    31   14   50 1   
    32   15   16 1   
    33   15   19 2   
    34   16   51 1   
    35   17   18 2   
    36   17   19 1   
    37   19   20 1   
    38   20   21 2   
    39   20   24 1   
    40   21   22 1   
    41   22   23 ar  
    42   22   28 ar  
    43   23   31 ar  
    44   23   52 1   
    45   24   25 1   
    46   24   53 1   
    47   25   26 2   
    48   25   27 2   
    49   25   28 1   
    50   28   29 ar  
    51   29   30 ar  
    52   29   54 1   
    53   30   31 ar  
    54   30   32 1   
    55   31   55 1   
    56   32   33 1   
    57   32   56 1   
    58   33   34 2   
    59   33   35 2   
    60   33   36 1   
    61   36   57 1   
    62   36   58 1   
    63   36   59 1   
@<TRIPOS>SUBSTRUCTURE
     1 YAK         1 TEMP              0 ****  ****    0 ROOT
