@<TRIPOS>MOLECULE
YAK
   59    63     1     0     0
SMALL
bcc


@<TRIPOS>ATOM
      1 F34        -0.1630    0.8740    1.9270 f         1 YAK     -0.138900
      2 C11         1.0620    0.6600    1.3920 ca        1 YAK      0.132900
      3 C5          2.0590    0.0250    2.1560 ca        1 YAK     -0.169500
      4 C6          1.3340    1.0740    0.0730 ca        1 YAK     -0.169500
      5 C2          2.5950    0.8490   -0.4660 ca        1 YAK     -0.091500
      6 C8          3.5890    0.2160    0.2890 ca        1 YAK     -0.135300
      7 C1          3.3150   -0.1890    1.5980 ca        1 YAK     -0.091500
      8 C23         4.9350   -0.0440   -0.3270 c3        1 YAK      0.143300
      9 N26         5.8000    1.1180   -0.3810 n         1 YAK     -0.467800
     10 C21         6.5290    1.4350    0.8230 c3        1 YAK      0.122700
     11 C19         7.7750    0.5510    1.0640 c3        1 YAK     -0.101400
     12 C17         8.6630    1.3570    1.9940 c3        1 YAK     -0.077400
     13 C20         7.0300    2.8970    0.9580 c3        1 YAK     -0.085500
     14 C18         8.3480    2.8240    1.7410 c3        1 YAK     -0.085400
     15 C14         7.2050    3.5920   -0.3550 c2        1 YAK      0.202900
     16 O33         7.8420    4.8000   -0.3710 oh        1 YAK     -0.460100
     17 C16         5.8460    1.8980   -1.5270 c         1 YAK      0.735700
     18 O28         5.1410    1.5940   -2.5150 o         1 YAK     -0.658500
     19 C13         6.7130    3.0980   -1.5220 ce        1 YAK     -0.318800
     20 C15         7.0080    3.7390   -2.8320 ce        1 YAK      0.780500
     21 N24         8.2740    3.9350   -3.1480 nf        1 YAK     -0.638100
     22 C9          8.6120    4.5350   -4.3690 ca        1 YAK      0.252400
     23 C3          9.9860    4.6270   -4.7060 ca        1 YAK     -0.110000
     24 N25         5.9180    4.0870   -3.6360 nu        1 YAK     -0.844100
     25 S35         5.9960    5.0360   -4.9780 sy        1 YAK      1.522200
     26 O29         5.5530    6.3300   -4.6770 o         1 YAK     -0.645300
     27 O30         5.3120    4.4230   -6.0360 o         1 YAK     -0.645300
     28 C12         7.6530    5.0470   -5.2730 ca        1 YAK     -0.405500
     29 C7          8.0760    5.6110   -6.4820 ca        1 YAK     -0.043000
     30 C10         9.4340    5.6940   -6.8210 ca        1 YAK      0.116600
     31 C4         10.3900    5.1990   -5.8970 ca        1 YAK     -0.100000
     32 N27         9.8280    6.2740   -8.0400 nu        1 YAK     -0.784500
     33 S36        11.0490    5.8020   -9.0080 s6        1 YAK      1.470900
     34 O31        11.1780    6.7650  -10.0300 o         1 YAK     -0.650800
     35 O32        12.2070    5.4990   -8.2680 o         1 YAK     -0.650800
     36 C22        10.4760    4.3610   -9.6970 c3        1 YAK     -0.373300
     37 H5          1.8350   -0.2970    3.1830 ha        1 YAK      0.151500
     38 H6          0.5480    1.5680   -0.5160 ha        1 YAK      0.151500
     39 H2          2.8240    1.1670   -1.4980 ha        1 YAK      0.147000
     40 H1          4.0940   -0.6880    2.1950 ha        1 YAK      0.147000
     41 H23         4.7820   -0.4180   -1.3830 h1        1 YAK      0.072700
     42 H23A        5.4690   -0.8470    0.2600 h1        1 YAK      0.072700
     43 H21         5.8180    1.2570    1.6900 h1        1 YAK      0.063700
     44 H19         8.3070    0.3340    0.1040 hc        1 YAK      0.061200
     45 H19A        7.4790   -0.4250    1.5200 hc        1 YAK      0.061200
     46 H17         8.4510    1.0940    3.0610 hc        1 YAK      0.054700
     47 H17A        9.7440    1.1410    1.8020 hc        1 YAK      0.054700
     48 H20         6.2700    3.4860    1.5450 hc        1 YAK      0.085700
     49 H18         8.2520    3.3800    2.7070 hc        1 YAK      0.056700
     50 H18A        9.1840    3.2940    1.1610 hc        1 YAK      0.056700
     51 HO33        8.1230    5.0200    0.5330 ho        1 YAK      0.433000
     52 H3         10.7450    4.2410   -4.0050 ha        1 YAK      0.160000
     53 HN25        5.0640    3.6330   -3.3790 hn        1 YAK      0.484800
     54 H7          7.3070    5.9980   -7.1760 ha        1 YAK      0.148000
     55 H4         11.4710    5.2640   -6.1250 ha        1 YAK      0.178000
     56 HN27        9.2440    7.0340   -8.3160 hn        1 YAK      0.461800
     57 H22         9.6140    4.5160  -10.3910 h1        1 YAK      0.120033
     58 H22A       10.1490    3.5960   -8.9500 h1        1 YAK      0.120033
     59 H22B       11.2800    3.8730  -10.3050 h1        1 YAK      0.120033
@<TRIPOS>BOND
     1    1    2 1   
     2    2    3 ar  
     3    2    4 ar  
     4    3    7 ar  
     5    3   37 1   
     6    4    5 ar  
     7    4   38 1   
     8    5    6 ar  
     9    5   39 1   
    10    6    7 ar  
    11    6    8 1   
    12    7   40 1   
    13    8    9 1   
    14    8   41 1   
    15    8   42 1   
    16    9   10 1   
    17    9   17 1   
    18   10   11 1   
    19   10   13 1   
    20   10   43 1   
    21   11   12 1   
    22   11   44 1   
    23   11   45 1   
    24   12   14 1   
    25   12   46 1   
    26   12   47 1   
    27   13   14 1   
    28   13   15 1   
    29   13   48 1   
    30   14   49 1   
    31   14   50 1   
    32   15   16 1   
    33   15   19 2   
    34   16   51 1   
    35   17   18 2   
    36   17   19 1   
    37   19   20 1   
    38   20   21 2   
    39   20   24 1   
    40   21   22 1   
    41   22   23 ar  
    42   22   28 ar  
    43   23   31 ar  
    44   23   52 1   
    45   24   25 1   
    46   24   53 1   
    47   25   26 2   
    48   25   27 2   
    49   25   28 1   
    50   28   29 ar  
    51   29   30 ar  
    52   29   54 1   
    53   30   31 ar  
    54   30   32 1   
    55   31   55 1   
    56   32   33 1   
    57   32   56 1   
    58   33   34 2   
    59   33   35 2   
    60   33   36 1   
    61   36   57 1   
    62   36   58 1   
    63   36   59 1   
@<TRIPOS>SUBSTRUCTURE
     1 YAK         1 TEMP              0 ****  ****    0 ROOT
