@<TRIPOS>MOLECULE
YAM
   55    57     1     0     0
SMALL
bcc


@<TRIPOS>ATOM
      1 C35        -0.1930   -0.8350    0.4880 c3        1 YAM     -0.091000
      2 C34         2.3080   -1.7300   -1.7160 c3        1 YAM     -0.956000
      3 N2         -1.4890    6.0850    0.1370 n2        1 YAM     -0.270000
      4 C7         -2.2150    5.0890    0.5400 c1        1 YAM     -0.082000
      5 C6         -1.6550    3.6950    0.7360 c3        1 YAM     -0.250000
      6 C13         2.4040    1.0770    1.7040 c2        1 YAM     -0.062000
      7 C20         2.0100   -0.1540    1.2490 c2        1 YAM      0.165000
      8 C21        -0.6670   10.6130   -2.0920 c3        1 YAM     -0.033000
      9 C8         -2.2440    3.0730    2.0310 c3        1 YAM      0.456000
     10 C18         4.5580    0.7340    2.8800 c2        1 YAM     -0.167000
     11 C16         1.0350    8.8600   -1.9670 c2        1 YAM     -0.311000
     12 C19         2.8080   -2.3170    2.4040 c1        1 YAM      0.175000
     13 O33         2.5860    0.7730   -1.5470 o         1 YAM     -0.921000
     14 S31         1.6000   -0.2230   -1.4190 s6        1 YAM      2.811000
     15 O32         0.4620   -0.0880   -2.2380 o         1 YAM     -0.921000
     16 N30         1.1110   -0.3240    0.1560 n3        1 YAM     -0.791000
     17 C17         3.3330    1.2560    2.8120 c2        1 YAM     -0.159000
     18 N1          2.4530   -1.3220    1.8650 n2        1 YAM     -0.328000
     19 N10         0.5060    2.5270    1.0900 n7        1 YAM     -0.270000
     20 C5         -0.1290    3.6560    0.6800 c2        1 YAM      0.214000
     21 F29        -2.1230    1.6960    2.0650 f         1 YAM     -0.161000
     22 F28        -1.6320    3.4780    3.1900 f         1 YAM     -0.161000
     23 F27        -3.5770    3.2870    2.2250 f         1 YAM     -0.161000
     24 N4          0.5810    4.7010    0.2010 n2        1 YAM     -0.356000
     25 C3         -0.1150    5.8810   -0.0940 c2        1 YAM      0.276000
     26 N9          0.6760    6.8730   -0.6550 n7        1 YAM     -0.224000
     27 C11         0.2860    8.1660   -1.0100 c2        1 YAM      0.204000
     28 C14        -0.7980    8.8580   -0.3220 c2        1 YAM     -0.161000
     29 C22        -1.2010   10.0550   -0.7890 c2        1 YAM     -0.063000
     30 C23        -2.0330   11.1040   -0.1380 c3        1 YAM     -0.167000
     31 C15         0.6590   10.1050   -2.4920 c1        1 YAM     -0.074000
     32 N25        -0.9210   12.0440   -2.0560 ns        1 YAM     -0.334000
     33 C24        -1.6370   12.3820   -0.8990 c2        1 YAM      0.292000
     34 O26        -1.9360   13.5350   -0.5690 o         1 YAM     -0.327000
     35 H35        -0.8750   -0.7100   -0.3980 h1        1 YAM      0.099667
     36 H35A       -0.6320   -0.2740    1.3570 h1        1 YAM      0.099667
     37 H35B       -0.1460   -1.9240    0.7640 h1        1 YAM      0.099667
     38 H34         1.6160   -2.5940   -1.5660 h1        1 YAM      0.163667
     39 H34A        2.6510   -1.7960   -2.7820 h1        1 YAM      0.163667
     40 H34B        3.2140   -1.9350   -1.0930 h1        1 YAM      0.163667
     41 H7         -2.0600    3.0960   -0.1360 hc        1 YAM      0.189000
     42 H18         2.9480    1.9110    3.6160 ha        1 YAM      0.144000
     43 H16         1.9720    8.4300   -2.3610 ha        1 YAM      0.151000
     44 H19         4.9870    0.0970    2.0940 ha        1 YAM      0.125500
     45 H17         5.2190    0.9250    3.7360 ha        1 YAM      0.125500
     46 H12         2.4130    3.2340    1.6270 h1        1 YAM      0.140500
     47 H12A        2.3160    2.4060    0.0050 h1        1 YAM      0.140500
     48 HN10       -0.0470    1.7820    1.4600 hn        1 YAM      0.258000
     49 HN9         1.6120    6.6180   -0.9190 hn        1 YAM      0.265000
     50 H14        -1.2200    8.4360    0.6050 ha        1 YAM      0.184000
     51 H23        -3.1300   10.9130   -0.2570 hc        1 YAM      0.142000
     52 H23A       -1.8070   11.2210    0.9510 hc        1 YAM      0.142000
     53 H15        -1.3150   10.1770   -2.9390 h1        1 YAM      0.171000
     54 HN25       -0.2570   12.6580   -2.4640 hn        1 YAM      0.250000
     55 C12         1.9440    2.3650    1.0760 c3        1 YAM     -0.009000
@<TRIPOS>BOND
     1    1   16 1   
     2    1   35 1   
     3    1   36 1   
     4    1   37 1   
     5    2   14 1   
     6    2   38 1   
     7    2   39 1   
     8    2   40 1   
     9    3    4 1   
    10    3   25 1   
    11    4    5 1   
    12    5    9 1   
    13    5   20 1   
    14    5   41 1   
    15    6    7 1   
    16    6   17 1   
    17    6   55 1   
    18    7   16 1   
    19    7   18 1   
    20    8   29 1   
    21    8   31 1   
    22    8   32 1   
    23    8   53 1   
    24    9   21 1   
    25    9   22 1   
    26    9   23 1   
    27   10   17 1   
    28   10   44 1   
    29   10   45 1   
    30   11   27 1   
    31   11   31 1   
    32   11   43 1   
    33   12   18 1   
    34   13   14 1   
    35   14   15 1   
    36   14   16 1   
    37   17   42 1   
    38   19   20 1   
    39   19   48 1   
    40   19   55 1   
    41   20   24 1   
    42   24   25 1   
    43   25   26 1   
    44   26   27 1   
    45   26   49 1   
    46   27   28 1   
    47   28   29 1   
    48   28   50 1   
    49   29   30 1   
    50   30   33 1   
    51   30   51 1   
    52   30   52 1   
    53   32   33 1   
    54   32   54 1   
    55   33   34 1   
    56   46   55 1   
    57   47   55 1   
@<TRIPOS>SUBSTRUCTURE
     1 YAM         1 TEMP              0 ****  ****    0 ROOT
