@<TRIPOS>MOLECULE
YAM
   55    58     1     0     0
SMALL
bcc


@<TRIPOS>ATOM
      1 C35        -4.3310    0.5120   -1.8770 c3        1 YAM      0.195100
      2 C34        -5.5170   -2.7310   -1.5250 c3        1 YAM     -0.372300
      3 N2          2.3710    1.1160   -0.2050 nb        1 YAM     -0.768000
      4 C7          1.5390    2.0260   -0.7110 ca        1 YAM      0.542200
      5 C6          0.1500    2.0350   -0.4930 ca        1 YAM     -0.549900
      6 C13        -3.8360    0.0630    1.4950 ca        1 YAM     -0.187600
      7 C20        -4.7350   -0.1620    0.4130 ca        1 YAM      0.621200
      8 C21         6.5540   -1.6950    0.0530 ca        1 YAM      0.058600
      9 C8         -0.7170    3.1120   -1.0860 c3        1 YAM      0.716200
     10 C18        -5.7470    0.5440    2.8920 ca        1 YAM     -0.239300
     11 C16         4.2770   -2.3720    0.3580 ca        1 YAM     -0.120000
     12 C19        -6.5630    0.3000    1.7700 ca        1 YAM      0.415200
     13 O33        -3.3540   -2.7710   -0.2280 o         1 YAM     -0.646300
     14 S31        -3.9670   -2.0850   -1.2970 s6        1 YAM      1.454900
     15 O32        -3.2890   -2.1240   -2.5330 o         1 YAM     -0.646300
     16 N30        -4.2420   -0.5180   -0.8760 nh        1 YAM     -0.791200
     17 C17        -4.3700    0.4200    2.7400 ca        1 YAM     -0.072000
     18 N1         -6.0920   -0.0420    0.5650 nb        1 YAM     -0.685000
     19 N10        -1.7400    0.9520    0.6020 nh        1 YAM     -0.859900
     20 C5         -0.3920    0.9810    0.3230 ca        1 YAM      0.782200
     21 F29        -1.7260    2.6540   -1.9060 f         1 YAM     -0.244633
     22 F28        -1.3960    3.8780   -0.1650 f         1 YAM     -0.244633
     23 F27        -0.0550    4.0330   -1.8610 f         1 YAM     -0.244633
     24 N4          0.4310    0.0180    0.8530 nb        1 YAM     -0.824000
     25 C3          1.7830    0.1260    0.5880 ca        1 YAM      0.931900
     26 N9          2.6040   -0.8170    1.2250 nh        1 YAM     -0.703300
     27 C11         3.9260   -1.0770    0.7880 ca        1 YAM      0.091600
     28 C14         4.9150   -0.0610    0.8520 ca        1 YAM     -0.046000
     29 C22         6.2040   -0.3720    0.4840 ca        1 YAM     -0.143300
     30 C23         7.4340    0.4820    0.4430 c3        1 YAM     -0.101100
     31 C15         5.5870   -2.6950   -0.0040 ca        1 YAM     -0.156000
     32 N25         7.9210   -1.7550   -0.2560 n         1 YAM     -0.481100
     33 C24         8.5140   -0.4920   -0.0550 c         1 YAM      0.699500
     34 O26         9.7090   -0.2530   -0.2560 o         1 YAM     -0.599500
     35 H35        -3.8400    1.4550   -1.5150 h1        1 YAM      0.058700
     36 H35A       -3.7930    0.1690   -2.8040 h1        1 YAM      0.058700
     37 H35B       -5.4000    0.7450   -2.1310 h1        1 YAM      0.058700
     38 H34        -6.1840   -2.6390   -0.6330 h1        1 YAM      0.120700
     39 H34A       -6.0690   -2.2670   -2.3790 h1        1 YAM      0.120700
     40 H34B       -5.4540   -3.8260   -1.7530 h1        1 YAM      0.120700
     41 H7          2.0090    2.8090   -1.3410 h4        1 YAM      0.042100
     42 H18        -6.1940    0.8250    3.8550 ha        1 YAM      0.154000
     43 H16         3.5130   -3.1650    0.3050 ha        1 YAM      0.139000
     44 H19        -7.6630    0.3840    1.8410 h4        1 YAM      0.031100
     45 H17        -3.6960    0.6010    3.5920 ha        1 YAM      0.152000
     46 H12        -1.8810   -0.1280    2.3880 h1        1 YAM      0.081700
     47 H12A       -2.1370   -1.1190    0.8840 h1        1 YAM      0.081700
     48 HN10       -2.3340    1.5460    0.0680 hn        1 YAM      0.449800
     49 HN9         2.1280   -1.6120    1.6050 hn        1 YAM      0.446800
     50 H14         4.6590    0.9560    1.1840 ha        1 YAM      0.160000
     51 H23         7.3360    1.3360   -0.2720 hc        1 YAM      0.096700
     52 H23A        7.7160    0.8770    1.4500 hc        1 YAM      0.096700
     53 H15         5.8330   -3.7140   -0.3320 ha        1 YAM      0.144000
     54 HN25        8.3820   -2.5570   -0.5980 hn        1 YAM      0.341500
     55 C12        -2.3520   -0.1130    1.3600 c3        1 YAM      0.261100
@<TRIPOS>BOND
     1    1   16 1   
     2    1   35 1   
     3    1   36 1   
     4    1   37 1   
     5    2   14 1   
     6    2   38 1   
     7    2   39 1   
     8    2   40 1   
     9    3    4 ar  
    10    3   25 ar  
    11    4    5 ar  
    12    4   41 1   
    13    5    9 1   
    14    5   20 ar  
    15    6    7 ar  
    16    6   17 ar  
    17    6   55 1   
    18    7   16 1   
    19    7   18 ar  
    20    8   29 ar  
    21    8   31 ar  
    22    8   32 1   
    23    9   21 1   
    24    9   22 1   
    25    9   23 1   
    26   10   12 ar  
    27   10   17 ar  
    28   10   42 1   
    29   11   27 ar  
    30   11   31 ar  
    31   11   43 1   
    32   12   18 ar  
    33   12   44 1   
    34   13   14 2   
    35   14   15 2   
    36   14   16 1   
    37   17   45 1   
    38   19   20 1   
    39   19   48 1   
    40   19   55 1   
    41   20   24 ar  
    42   24   25 ar  
    43   25   26 1   
    44   26   27 1   
    45   26   49 1   
    46   27   28 ar  
    47   28   29 ar  
    48   28   50 1   
    49   29   30 1   
    50   30   33 1   
    51   30   51 1   
    52   30   52 1   
    53   31   53 1   
    54   32   33 1   
    55   32   54 1   
    56   33   34 2   
    57   46   55 1   
    58   47   55 1   
@<TRIPOS>SUBSTRUCTURE
     1 YAM         1 TEMP              0 ****  ****    0 ROOT
