@<TRIPOS>MOLECULE
YAM
   58    58     1     0     0
SMALL
bcc


@<TRIPOS>ATOM
      1 C35        33.5250 -148.8860  203.2400 c2        1 YAM      0.057000
      2 C34       250.7400 -612.5630 -728.2170 c3        1 YAM     -1.157000
      3 N2         31.5200 -143.7500  201.5240 n2        1 YAM     -0.242000
      4 C7         30.2060 -143.5690  201.3340 c1        1 YAM      0.086000
      5 C6         29.2450 -144.7070  201.6580 c3        1 YAM     -0.309000
      6 C13        29.9730 -149.2310  202.7890 c2        1 YAM     -0.052000
      7 C20        31.2840 -149.5170  202.5370 c2        1 YAM     -0.113000
      8 C21      -151.4620  521.0810  -86.7230 c3        1 YAM      0.081000
      9 C8         28.0270 -144.1590  202.4630 c3        1 YAM      0.463000
     10 C18        28.6840 -150.3030  200.8880 c1        1 YAM      0.013000
     11 C16      -153.7250  522.3610  -86.5790 c2        1 YAM     -0.087000
     12 C19        31.9050 -151.9040  202.4490 c1        1 YAM     -0.080000
     13 O33       249.6990 -612.6860 -725.9420 o         1 YAM     -0.354400
     14 S31       250.8110 -612.4260 -726.6440 s4        1 YAM      2.066800
     15 O32       251.9810 -612.0570 -726.1020 o         1 YAM     -0.354400
     16 N30        32.3200 -148.5720  202.8850 n3        1 YAM     -0.074000
     17 C17        28.8810 -150.1300  202.3100 c3        1 YAM     -0.247000
     18 N1         31.7050 -150.7500  201.8970 n3        1 YAM     -0.163000
     19 N10        29.0830 -146.9130  202.7910 n3        1 YAM     -0.280000
     20 C5         29.8920 -145.9270  202.3130 c2        1 YAM      0.221000
     21 F29        26.9370 -145.0000  202.3910 f         1 YAM     -0.144333
     22 F28        28.2680 -144.0390  203.8080 f         1 YAM     -0.144333
     23 F27        27.5640 -142.9500  202.0470 f         1 YAM     -0.144333
     24 N4         31.2410 -146.0180  202.3890 n2        1 YAM     -0.436000
     25 C3         31.9760 -144.9120  201.9960 c2        1 YAM      0.146000
     26 N9       -154.7310  523.3590  -88.5110 n2        1 YAM     -0.122000
     27 C11      -153.6800  522.8060  -88.0540 c2        1 YAM      0.065000
     28 C14      -152.3700  522.5340  -88.6970 c2        1 YAM     -0.160000
     29 C22      -151.3690  521.8560  -88.1290 c2        1 YAM     -0.062000
     30 C23      -149.9160  521.8540  -88.4540 c3        1 YAM     -0.158000
     31 C15      -152.6340  521.7560  -86.2500 c1        1 YAM      0.223000
     32 N25      -150.1700  521.2610  -86.1300 n         1 YAM     -0.377000
     33 C24      -149.2110  521.5940  -87.1200 c2        1 YAM      0.307000
     34 O26      -148.0070  521.6660  -86.8980 o         1 YAM     -0.224000
     35 H35        33.8710 -149.9380  203.3280 h4        1 YAM      0.199500
     36 H35A       31.7780 -152.0470  203.5380 ha        1 YAM      0.087000
     37 H35B       34.2590 -148.0820  203.4710 h4        1 YAM      0.199500
     38 H34       250.0020 -611.8780 -728.7540 h1        1 YAM      0.266333
     39 H34A      251.7080 -612.3710 -728.7840 h1        1 YAM      0.266333
     40 H34B      250.4110 -613.5770 -728.6240 h1        1 YAM      0.266333
     41 H7         28.8560 -145.0080  200.6330 hc        1 YAM      0.211000
     42 H18        27.8810 -149.7900  202.7240 hc        1 YAM      0.186500
     43 H16      -154.6360  522.5870  -85.9900 ha        1 YAM      0.279000
     44 H19        31.8130 -150.6600  200.9010 hn        1 YAM      0.275000
     45 H17        29.4020 -149.8350  200.1990 ha        1 YAM      0.049000
     46 H12        29.0200 -151.1800  202.7250 hc        1 YAM      0.186500
     47 H12A       28.6400 -148.3590  204.2230 h1        1 YAM      0.133500
     48 HN10       30.3200 -147.6960  204.3110 h1        1 YAM      0.133500
     49 HN9        33.0780 -145.0370  202.1050 h5        1 YAM      0.190000
     50 H14      -152.2380  522.9780  -89.7050 ha        1 YAM      0.208000
     51 H23      -149.6460  521.0410  -89.1810 hc        1 YAM      0.173500
     52 H23A     -149.5830  522.8380  -88.8800 hc        1 YAM      0.173500
     53 H15      -151.7010  519.9810  -86.8950 h1        1 YAM      0.174000
     54 HN25     -149.9250  520.7670  -85.3020 hn        1 YAM      0.276000
     55 H301       32.0160 -147.5680  202.7980 hn        1 YAM      0.336000
     56 H102       28.0920 -146.7910  202.6890 hn        1 YAM      0.281000
     57 H92      -154.7560  523.6770  -89.4580 hn        1 YAM      0.229000
     58 C12        29.5210 -148.0310  203.5860 c3        1 YAM     -0.025000
@<TRIPOS>BOND
     1    1   16 1   
     2    1   35 1   
     3    1   37 1   
     4    2   14 1   
     5    2   38 1   
     6    2   39 1   
     7    2   40 1   
     8    3    4 1   
     9    3   25 1   
    10    4    5 1   
    11    5    9 1   
    12    5   20 1   
    13    5   41 1   
    14    6    7 1   
    15    6   17 1   
    16    6   58 1   
    17    7   16 1   
    18    7   18 1   
    19    8   29 1   
    20    8   31 1   
    21    8   32 1   
    22    8   53 1   
    23    9   21 1   
    24    9   22 1   
    25    9   23 1   
    26   10   17 1   
    27   10   45 1   
    28   11   27 1   
    29   11   31 1   
    30   11   43 1   
    31   12   18 1   
    32   12   36 1   
    33   13   14 1   
    34   14   15 1   
    35   16   55 1   
    36   17   42 1   
    37   17   46 1   
    38   18   44 1   
    39   19   20 1   
    40   19   56 1   
    41   19   58 1   
    42   20   24 1   
    43   24   25 1   
    44   25   49 1   
    45   26   27 1   
    46   26   57 1   
    47   27   28 1   
    48   28   29 1   
    49   28   50 1   
    50   29   30 1   
    51   30   33 1   
    52   30   51 1   
    53   30   52 1   
    54   32   33 1   
    55   32   54 1   
    56   33   34 1   
    57   47   58 1   
    58   48   58 1   
@<TRIPOS>SUBSTRUCTURE
     1 YAM         1 TEMP              0 ****  ****    0 ROOT
