@<TRIPOS>MOLECULE
YAN
   12    12     1     0     0
SMALL
bcc


@<TRIPOS>ATOM
      1 CL1         4.1580   -2.3850    2.8510 cl        1 YAN     -0.070400
      2 CAG         2.8830   -1.6540    2.0030 ca        1 YAN      0.017400
      3 CAE         2.9220   -1.6310    0.6040 ca        1 YAN     -0.117000
      4 CAC         1.8860   -1.0360   -0.1110 ca        1 YAN     -0.121000
      5 CAD         0.8070   -0.4630    0.5620 ca        1 YAN     -0.121000
      6 CAF         0.7610   -0.4820    1.9540 ca        1 YAN     -0.117000
      7 CAH         1.7980   -1.0780    2.6810 ca        1 YAN      0.017400
      8 CL2         1.7170   -1.0870    4.3750 cl        1 YAN     -0.070400
      9 HAE         3.7730   -2.0830    0.0720 ha        1 YAN      0.151000
     10 HAC         1.9210   -1.0200   -1.2110 ha        1 YAN      0.141000
     11 HAD        -0.0110    0.0060   -0.0040 ha        1 YAN      0.141000
     12 HAF        -0.0910   -0.0290    2.4860 ha        1 YAN      0.151000
@<TRIPOS>BOND
     1    1    2 1   
     2    2    3 ar  
     3    2    7 ar  
     4    3    4 ar  
     5    3    9 1   
     6    4    5 ar  
     7    4   10 1   
     8    5    6 ar  
     9    5   11 1   
    10    6    7 ar  
    11    6   12 1   
    12    7    8 1   
@<TRIPOS>SUBSTRUCTURE
     1 YAN         1 TEMP              0 ****  ****    0 ROOT
