@<TRIPOS>MOLECULE
YAP
   59    57     1     0     0
SMALL
bcc


@<TRIPOS>ATOM
      1 C           1.3370   -0.9870    1.3130 c2        1 YAP      0.331000
      2 N           3.3740    0.2320    0.6500 n4        1 YAP     -0.072000
      3 O           0.9350   -0.0250    1.9860 o         1 YAP     -0.381000
      4 P          -0.7280   -1.9460    2.4170 p5        1 YAP      1.882000
      5 N1         -9.6820   -7.7960    6.3670 n2        1 YAP     -0.149000
      6 C2         -9.8050   -7.6370    5.0130 c2        1 YAP     -0.072000
      7 N3         -8.8640   -7.2610    4.1140 n2        1 YAP     -0.056000
      8 C4         -7.6470   -7.0140    4.6500 c2        1 YAP     -0.036000
      9 C5         -7.3570   -7.1410    6.1130 c2        1 YAP     -0.148000
     10 C6         -8.4660   -7.5470    6.8930 c2        1 YAP     -0.061000
     11 N6         -8.2490   -7.6990    8.3440 n4        1 YAP      0.001000
     12 N7         -6.0510   -6.8300    6.3760 n2        1 YAP     -0.180000
     13 C8         -5.5170   -6.5200    5.1470 c2        1 YAP     -0.093000
     14 N9         -6.4200   -6.6120    4.0840 na        1 YAP      0.094000
     15 CA          2.5790   -1.0160    0.4400 c3        1 YAP     -0.069000
     16 CB          3.3700   -2.2980    0.7070 c3        1 YAP     -0.215000
     17 CG          4.4980   -2.5320   -0.2210 c2        1 YAP      0.195000
     18 CZ          3.8220    2.8170   -1.5660 c2        1 YAP      0.038000
     19 C1'        -6.1970   -6.3730    2.7500 c2        1 YAP     -0.357000
     20 O1P        -1.7870   -1.2320    1.7160 o         1 YAP     -0.717500
     21 C2'        -4.9940   -5.9740    2.2430 c1        1 YAP      0.070000
     22 O2'        -4.7960   -2.9860   -0.0520 oh        1 YAP     -0.434000
     23 O2P        -0.1860   -2.0680    3.7540 o         1 YAP     -0.717500
     24 C3'        -3.9650   -5.5860    1.7340 c1        1 YAP     -0.468000
     25 O3'        -2.4000   -2.7970   -0.7360 oh        1 YAP     -0.434000
     26 O3P         0.6030   -2.0820    1.3540 os        1 YAP     -0.626000
     27 C4'        -2.7650   -5.2040    1.0630 c3        1 YAP      0.170000
     28 O4'        -1.6810   -6.1010    1.1790 oh        1 YAP     -0.300000
     29 C5'        -2.3890   -3.8090    1.5190 c2        1 YAP      0.317000
     30 O5'        -1.2320   -3.5770    1.9980 os        1 YAP     -0.504000
     31 CD1         1.6160    3.1730   -0.2260 c2        1 YAP     -0.099000
     32 CD2         5.0030   -1.6070   -1.0200 c1        1 YAP     -0.634000
     33 CE1         2.7160    2.9440   -0.8750 c1        1 YAP     -0.307000
     34 CE2         5.5530   -0.7910   -1.8370 c1        1 YAP      0.237000
     35 HN          1.5790    3.8340    0.6570 ha        1 YAP      0.146000
     36 HNA         3.6870    0.2950    1.6220 hn        1 YAP      0.272667
     37 HN6        -7.5140   -8.4010    8.4840 hn        1 YAP      0.258667
     38 HN6A       -9.1070   -7.9890    8.8230 hn        1 YAP      0.258667
     39 HA          2.6290   -3.1530    0.6200 hc        1 YAP      0.176500
     40 HB          2.2370   -1.0170   -0.6440 hx        1 YAP      0.187000
     41 HBA         3.7540   -2.3280    1.7660 hc        1 YAP      0.176500
     42 H1'        -1.6630   -6.4370    2.0840 ho        1 YAP      0.219000
     43 H2'        -7.0510   -6.5530    2.0800 h4        1 YAP      0.186000
     44 HO2'       -5.1090   -3.8240    0.3090 ho        1 YAP      0.220750
     45 H3'        -5.5660   -2.4110   -0.0240 ho        1 YAP      0.220750
     46 HO3'       -2.7350   -1.9430   -0.4300 ho        1 YAP      0.220750
     47 H4'        -3.0940   -3.1200   -1.3210 ho        1 YAP      0.220750
     48 H5'        -2.9410   -5.1120   -0.0610 h1        1 YAP      0.174000
     49 H5'A       -3.1430   -2.9850    1.4430 h4        1 YAP      0.209000
     50 HD1         0.6480    2.7390   -0.5250 ha        1 YAP      0.146000
     51 HD2         4.9170   -3.5620   -0.1980 ha        1 YAP      0.169000
     52 HE1         4.1930    0.2370    0.0130 hn        1 YAP      0.272667
     53 HE2         4.1140    3.4790   -2.3970 h4        1 YAP      0.173000
     54 OH          4.7090    1.8080   -1.2270 oh        1 YAP     -0.341000
     55 HOH         5.2950    1.6470   -1.9850 ho        1 YAP      0.265000
     56 H8         -4.4730   -6.2260    4.9890 h5        1 YAP      0.217000
     57 HN3         2.7890    1.0620    0.4400 hn        1 YAP      0.272667
     58 H63        -7.9270   -6.7980    8.7140 hn        1 YAP      0.258667
     59 H2        -10.8170   -7.8480    4.6060 h5        1 YAP      0.213000
@<TRIPOS>BOND
     1    1    3 1   
     2    1   15 1   
     3    1   26 1   
     4    2   15 1   
     5    2   36 1   
     6    2   52 1   
     7    2   57 1   
     8    4   20 1   
     9    4   23 1   
    10    4   26 1   
    11    4   30 1   
    12    5    6 1   
    13    5   10 1   
    14    6    7 1   
    15    6   59 1   
    16    7    8 1   
    17    8    9 1   
    18    8   14 1   
    19    9   10 1   
    20    9   12 1   
    21   10   11 1   
    22   11   37 1   
    23   11   38 1   
    24   11   58 1   
    25   12   13 1   
    26   13   14 1   
    27   13   56 1   
    28   14   19 1   
    29   15   16 1   
    30   15   40 1   
    31   16   17 1   
    32   16   39 1   
    33   16   41 1   
    34   17   32 1   
    35   17   51 1   
    36   18   33 1   
    37   18   53 1   
    38   18   54 1   
    39   19   21 1   
    40   19   43 1   
    41   21   24 1   
    42   22   44 1   
    43   22   45 1   
    44   24   27 1   
    45   25   46 1   
    46   25   47 1   
    47   27   28 1   
    48   27   29 1   
    49   27   48 1   
    50   28   42 1   
    51   29   30 1   
    52   29   49 1   
    53   31   33 1   
    54   31   35 1   
    55   31   50 1   
    56   32   34 1   
    57   54   55 1   
@<TRIPOS>SUBSTRUCTURE
     1 YAP         1 TEMP              0 ****  ****    0 ROOT
