@<TRIPOS>MOLECULE
YAP
   57    60     1     0     0
SMALL
bcc


@<TRIPOS>ATOM
      1 C           3.0120   -1.7600   -1.9090 c         1 YAP      0.629100
      2 N           5.3390   -2.1290   -1.1120 n3        1 YAP     -0.894800
      3 O           3.1560   -2.4040   -2.9620 o         1 YAP     -0.596000
      4 P           0.6600   -1.7160   -2.9020 p5        1 YAP      1.435800
      5 N1         -7.0830    2.6380   -0.2430 nb        1 YAP     -0.800000
      6 C2         -6.4360    2.4150    0.9350 ca        1 YAP      0.661900
      7 N3         -5.1990    1.9290    1.1750 nb        1 YAP     -0.723000
      8 C4         -4.5190    1.6290    0.0260 ca        1 YAP      0.438800
      9 C5         -5.0780    1.8120   -1.3110 ca        1 YAP     -0.213200
     10 C6         -6.4140    2.3190   -1.3990 ca        1 YAP      0.730200
     11 N6         -7.0300    2.4300   -2.6310 nh        1 YAP     -0.947500
     12 N7         -4.1360    1.4350   -2.2800 nc        1 YAP     -0.570100
     13 C8         -3.0560    1.0380   -1.5900 cd        1 YAP      0.452700
     14 N9         -3.2290    1.1200   -0.1830 na        1 YAP     -0.291000
     15 CA          4.0900   -1.4280   -0.8860 c3        1 YAP      0.117500
     16 CB          4.2520    0.1040   -0.8580 c3        1 YAP     -0.031100
     17 CG          4.8790    0.5800    0.4040 ca        1 YAP     -0.096300
     18 CZ          6.0460    1.5170    2.7610 ca        1 YAP      0.108100
     19 C1'        -2.2370    0.8850    0.8460 c3        1 YAP      0.257800
     20 O1P         0.3460   -3.1430   -2.7470 o         1 YAP     -0.790500
     21 C2'        -2.5880   -0.2970    1.8070 c3        1 YAP      0.074100
     22 O2'        -2.4190    0.2050    3.1200 oh        1 YAP     -0.594800
     23 O2P         0.9670   -0.8950   -4.0740 o         1 YAP     -0.790500
     24 C3'        -1.5390   -1.3930    1.4940 c3        1 YAP      0.079100
     25 O3'        -0.7520   -1.6550    2.6380 oh        1 YAP     -0.597800
     26 O3P         1.7770   -1.3430   -1.6620 os        1 YAP     -0.532500
     27 C4'        -0.7210   -0.8410    0.3130 c3        1 YAP      0.069100
     28 O4'        -0.9740    0.5750    0.2620 os        1 YAP     -0.387600
     29 C5'        -1.1090   -1.5470   -0.9940 c3        1 YAP      0.169400
     30 O5'        -0.5500   -0.9140   -2.0930 os        1 YAP     -0.559200
     31 CD1         6.2610    0.4640    0.6060 ca        1 YAP     -0.084000
     32 CD2         4.0890    1.1700    1.3980 ca        1 YAP     -0.084000
     33 CE1         6.8530    0.9260    1.7760 ca        1 YAP     -0.190500
     34 CE2         4.6630    1.6400    2.5760 ca        1 YAP     -0.190500
     35 HN          5.1630   -3.1160   -1.1480 hn        1 YAP      0.352800
     36 HNA         5.7310   -1.8520   -1.9930 hn        1 YAP      0.352800
     37 HN6        -7.8580    2.9690   -2.7010 hn        1 YAP      0.430300
     38 HN6A       -6.4400    2.3850   -3.4280 hn        1 YAP      0.430300
     39 HA          3.6930   -1.7600    0.1210 h1        1 YAP      0.084700
     40 HB          4.8640    0.4420   -1.7360 hc        1 YAP      0.070700
     41 HBA         3.2260    0.5530   -0.9700 hc        1 YAP      0.070700
     42 H1'        -2.0890    1.8430    1.4300 h2        1 YAP      0.107700
     43 H2'        -3.6350   -0.6710    1.6740 h1        1 YAP      0.073700
     44 HO2'       -2.4350   -0.5600    3.7110 ho        1 YAP      0.416000
     45 H3'        -2.0200   -2.3770    1.2480 h1        1 YAP      0.099700
     46 HO3'       -0.2320   -0.8600    2.8150 ho        1 YAP      0.412000
     47 H4'         0.3900   -0.9130    0.4800 h1        1 YAP      0.107700
     48 H5'        -0.7730   -2.6220   -0.9360 h1        1 YAP      0.046200
     49 H5'A       -2.2320   -1.5100   -1.1030 h1        1 YAP      0.046200
     50 HD1         6.8830   -0.0110   -0.1690 ha        1 YAP      0.144000
     51 HD2         3.0020    1.2650    1.2460 ha        1 YAP      0.144000
     52 HE1         7.9340    0.8350    1.9420 ha        1 YAP      0.134000
     53 HE2         4.0380    2.1030    3.3530 ha        1 YAP      0.134000
     54 OH          6.6850    1.9620    3.9000 oh        1 YAP     -0.509100
     55 H2         -7.0240    2.6810    1.8390 h5        1 YAP      0.039100
     56 HOH         6.0100    2.3270    4.4890 ho        1 YAP      0.412000
     57 H8         -2.1010    0.6650   -2.0180 h5        1 YAP      0.142800
@<TRIPOS>BOND
     1    1    3 2   
     2    1   15 1   
     3    1   26 1   
     4    2   15 1   
     5    2   35 1   
     6    2   36 1   
     7    4   20 1   
     8    4   23 1   
     9    4   26 1   
    10    4   30 1   
    11    5    6 ar  
    12    5   10 ar  
    13    6    7 ar  
    14    6   55 1   
    15    7    8 ar  
    16    8    9 ar  
    17    8   14 1   
    18    9   10 ar  
    19    9   12 1   
    20   10   11 1   
    21   11   37 1   
    22   11   38 1   
    23   12   13 2   
    24   13   14 1   
    25   13   57 1   
    26   14   19 1   
    27   15   16 1   
    28   15   39 1   
    29   16   17 1   
    30   16   40 1   
    31   16   41 1   
    32   17   31 ar  
    33   17   32 ar  
    34   18   33 ar  
    35   18   34 ar  
    36   18   54 1   
    37   19   21 1   
    38   19   28 1   
    39   19   42 1   
    40   21   22 1   
    41   21   24 1   
    42   21   43 1   
    43   22   44 1   
    44   24   25 1   
    45   24   27 1   
    46   24   45 1   
    47   25   46 1   
    48   27   28 1   
    49   27   29 1   
    50   27   47 1   
    51   29   30 1   
    52   29   48 1   
    53   29   49 1   
    54   31   33 ar  
    55   31   50 1   
    56   32   34 ar  
    57   32   51 1   
    58   33   52 1   
    59   34   53 1   
    60   54   56 1   
@<TRIPOS>SUBSTRUCTURE
     1 YAP         1 TEMP              0 ****  ****    0 ROOT
