@<TRIPOS>MOLECULE
YAP
   58    72     1     0     0
SMALL
bcc


@<TRIPOS>ATOM
      1 C           0.0000    0.0000    0.0000 c2        1 YAP      0.449000
      2 N           1.9970    1.2000   -0.6940 nz        1 YAP      0.836000
      3 O          -0.6040    1.0310   -0.1830 o         1 YAP     -0.242000
      4 P          -2.2800   -1.0590    0.1980 p5        1 YAP      1.362000
      5 N1         -6.4220   -8.7720    6.1540 n2        1 YAP     -0.135000
      6 C2         -6.5030   -9.0410    4.8630 c2        1 YAP      0.000000
      7 N3         -6.1330   -8.1820    3.9370 n2        1 YAP     -0.065000
      8 C4         -5.6560   -6.9890    4.2730 c2        1 YAP     -0.117000
      9 C5         -5.5500   -6.6530    5.6340 c2        1 YAP     -0.258000
     10 C6         -5.9580   -7.6040    6.5850 c3        1 YAP      0.056000
     11 N6         -5.8770   -7.3310    7.9390 n8        1 YAP     -0.014000
     12 N7         -5.0410   -5.3990    5.6970 n2        1 YAP     -0.065000
     13 C8         -4.8320   -4.9550    4.4920 c2        1 YAP     -0.240000
     14 N9         -5.1960   -5.8980    3.5780 na        1 YAP      0.346000
     15 CA          1.5070    0.0000    0.0000 DU        1 YAP     -0.565000
     16 CB          2.0170    0.0000    1.4420 c3        1 YAP     -0.551000
     17 CG          3.5180   -0.1240    1.4450 c3        1 YAP     -0.072000
     18 CZ          6.2760   -0.3510    1.4500 c3        1 YAP      0.711000
     19 C1'        -5.1110   -5.7720    2.1210 DU        1 YAP     -0.149000
     20 O1P        -2.7750   -0.1570    1.4360 o         1 YAP     -0.552000
     21 C2'        -6.4660   -5.2960    1.5350 DU        1 YAP     -0.414000
     22 O2'        -7.3320   -6.4060    1.2890 oh        1 YAP     -0.474000
     23 O2P        -2.7350   -0.4480   -1.0710 o         1 YAP     -0.552000
     24 C3'        -6.0280   -4.6320    0.2070 DU        1 YAP     -0.552000
     25 O3'        -6.1970   -5.5380   -0.8850 oh        1 YAP     -0.502000
     26 O3P        -0.6710   -1.1430    0.2070 os        1 YAP     -0.557000
     27 C4'        -4.5360   -4.3130    0.4170 DU        1 YAP     -0.130000
     28 O4'        -4.1960   -4.7160    1.7550 os        1 YAP     -0.002000
     29 C5'        -4.2950   -2.8110    0.2510 c3        1 YAP     -0.052000
     30 O5'        -2.8950   -2.5410    0.3320 os        1 YAP     -0.647000
     31 CD1         4.3050    1.0120    1.4100 c3        1 YAP     -0.252000
     32 CD2         4.1080   -1.3740    1.4860 c2        1 YAP     -0.295000
     33 CE1         5.6820    0.9020    1.4130 c2        1 YAP     -0.074000
     34 CE2         5.4840   -1.4900    1.4890 c2        1 YAP     -0.061000
     35 HN          2.9040    0.8080   -0.5300 hn        1 YAP      0.049667
     36 HNA         1.4660    1.3430   -1.5290 hn        1 YAP      0.049667
     37 HN6        -5.2900   -6.7730    7.3510 DU        1 YAP      0.095000
     38 HN6A       -6.6530   -6.9110    8.4120 hn        1 YAP      0.088000
     39 HA          0.9650   -0.6260    0.6990 hx        1 YAP      0.494000
     40 HB          1.9430   -0.4480    0.4580 DU        1 YAP      0.205000
     41 HBA         1.5840   -0.8370    1.9770 hc        1 YAP      0.184000
     42 H1'        -4.3380   -5.0140    2.0990 ha        1 YAP      0.331000
     43 H2'        -5.6440   -6.0000    1.5990 DU        1 YAP      0.220000
     44 HO2'       -7.1530   -5.5750    1.6980 DU        1 YAP      0.332000
     45 H3'        -6.8590   -5.1900    0.6220 DU        1 YAP      0.452000
     46 HO3'       -6.3760   -4.7120   -0.4670 DU        1 YAP      0.343000
     47 H4'        -5.3200   -4.6060   -0.2700 DU        1 YAP      0.436000
     48 H5'        -4.1140   -3.8430   -0.0250 DU        1 YAP      0.128000
     49 H5'A       -4.6700   -2.4900   -0.7140 h1        1 YAP      0.108000
     50 HD1         3.2870    0.6460    1.3690 DU        1 YAP      0.367000
     51 HD2         4.0220   -0.2950    1.4530 ha        1 YAP      0.046000
     52 HE1         5.0650    0.0120    1.4420 DU        1 YAP     -0.003000
     53 HE2         5.7450   -0.4380    1.4720 ha        1 YAP     -0.511000
     54 OH          7.6300   -0.4630    1.4520 oh        1 YAP     -0.210000
     55 HOH         7.3000   -0.2730    0.5890 ho        1 YAP      0.229000
     56 H8         -4.3940   -3.9660    4.5560 h5        1 YAP      0.203000
     57 HN3         1.8970    1.9950   -0.0950 hn        1 YAP      0.049667
     58 H2         -6.8710  -10.0370    4.6480 h5        1 YAP      0.142000
@<TRIPOS>BOND
     1    1    3 1   
     2    1   15 1   
     3    1   26 1   
     4    2   15 1   
     5    2   35 1   
     6    2   36 1   
     7    2   57 1   
     8    4   20 1   
     9    4   23 1   
    10    4   26 1   
    11    4   30 1   
    12    5    6 1   
    13    5   10 1   
    14    6    7 1   
    15    6   58 1   
    16    7    8 1   
    17    8    9 1   
    18    8   14 1   
    19    9   10 1   
    20    9   12 1   
    21   10   11 1   
    22   10   37 1   
    23   11   37 1   
    24   11   38 1   
    25   12   13 1   
    26   13   14 1   
    27   13   56 1   
    28   14   19 1   
    29   15   16 1   
    30   15   39 1   
    31   15   40 1   
    32   16   17 1   
    33   16   40 1   
    34   16   41 1   
    35   17   31 1   
    36   17   32 1   
    37   17   50 1   
    38   18   33 1   
    39   18   34 1   
    40   18   52 1   
    41   18   54 1   
    42   19   21 1   
    43   19   28 1   
    44   19   42 1   
    45   19   43 1   
    46   21   22 1   
    47   21   24 1   
    48   21   43 1   
    49   21   44 1   
    50   21   45 1   
    51   22   44 1   
    52   24   25 1   
    53   24   27 1   
    54   24   45 1   
    55   24   46 1   
    56   24   47 1   
    57   25   46 1   
    58   27   28 1   
    59   27   29 1   
    60   27   47 1   
    61   27   48 1   
    62   29   30 1   
    63   29   48 1   
    64   29   49 1   
    65   31   33 1   
    66   31   50 1   
    67   31   52 1   
    68   32   34 1   
    69   32   51 1   
    70   33   52 1   
    71   34   53 1   
    72   54   55 1   
@<TRIPOS>SUBSTRUCTURE
     1 YAP         1 TEMP              0 ****  ****    0 ROOT
