@<TRIPOS>MOLECULE
YAU
   67    70     1     0     0
SMALL
bcc


@<TRIPOS>ATOM
      1 Cl1        -0.1290   -0.5800    1.1280 cl        1 YAU     -0.100400
      2 C26         1.5590   -0.3870    1.0440 ca        1 YAU      0.015400
      3 C25         2.3190   -0.4060    2.2170 ca        1 YAU     -0.125000
      4 C24         3.7010   -0.2480    2.1430 ca        1 YAU     -0.117500
      5 C27         2.1770   -0.2090   -0.1990 ca        1 YAU     -0.125000
      6 C28         3.5580   -0.0500   -0.2610 ca        1 YAU     -0.117500
      7 C23         4.3310   -0.0680    0.9070 ca        1 YAU     -0.080300
      8 C22         5.8040    0.1310    0.8340 c3        1 YAU     -0.038100
      9 C21         6.4750   -0.8150   -0.1650 c3        1 YAU      0.161100
     10 O3          6.4020   -0.1850   -1.4350 oh        1 YAU     -0.614800
     11 C20         7.9330   -1.0550    0.2320 c3        1 YAU     -0.187400
     12 C19         8.5730   -2.1060   -0.6520 c         1 YAU      0.661100
     13 O2          8.0510   -2.4610   -1.7310 o         1 YAU     -0.627100
     14 N           9.7390   -2.7080   -0.2160 n         1 YAU     -0.467800
     15 C2         10.5510   -2.1780    0.8610 c3        1 YAU      0.091000
     16 C3         10.5000   -3.5990   -1.0750 c3        1 YAU      0.090000
     17 C4         11.9810   -3.5290   -0.6290 c3        1 YAU     -0.035400
     18 C1         11.9860   -2.7190    0.6820 c3        1 YAU     -0.073700
     19 C          13.0080   -1.5930    0.6220 c3        1 YAU      0.132400
     20 O          12.9640   -0.9160    1.8690 oh        1 YAU     -0.605800
     21 C5         12.5780   -4.8860   -0.4620 ca        1 YAU     -0.051300
     22 C18        13.7100   -5.2280   -1.2040 ca        1 YAU     -0.146000
     23 C9         14.3120   -6.4980   -1.0690 ca        1 YAU      0.084600
     24 C8         13.7220   -7.4180   -0.1620 ca        1 YAU     -0.036600
     25 Cl         14.3790   -8.9770    0.0580 cl        1 YAU     -0.101400
     26 C7         12.5880   -7.0690    0.5710 ca        1 YAU     -0.094000
     27 C6         12.0180   -5.8100    0.4270 ca        1 YAU     -0.144000
     28 N1         15.4470   -6.8780   -1.7970 ns        1 YAU     -0.467100
     29 C10        16.2910   -6.0550   -2.5270 c         1 YAU      0.671100
     30 O1         16.1300   -4.8260   -2.6340 o         1 YAU     -0.593100
     31 C11        17.4920   -6.7250   -3.1860 c3        1 YAU     -0.110100
     32 C12        17.1730   -8.0150   -3.8500 ca        1 YAU     -0.116300
     33 C17        16.6860   -8.0300   -5.1630 ca        1 YAU     -0.099000
     34 C16        16.4020   -9.2310   -5.8010 ca        1 YAU     -0.161500
     35 C15        16.6090  -10.4450   -5.1180 ca        1 YAU      0.134900
     36 F          16.3360  -11.6200   -5.7320 f         1 YAU     -0.134900
     37 C14        17.1010  -10.4390   -3.7990 ca        1 YAU     -0.161500
     38 C13        17.3780   -9.2260   -3.1780 ca        1 YAU     -0.099000
     39 H25         1.8310   -0.5460    3.1930 ha        1 YAU      0.146000
     40 H27         1.5770   -0.1940   -1.1210 ha        1 YAU      0.146000
     41 H24         4.2970   -0.2630    3.0680 ha        1 YAU      0.147000
     42 H28         4.0610    0.0880   -1.2340 ha        1 YAU      0.147000
     43 H221        6.2610   -0.0210    1.8470 hc        1 YAU      0.062200
     44 H222        6.0120    1.1900    0.5190 hc        1 YAU      0.062200
     45 H21         5.9340   -1.8020   -0.2010 h1        1 YAU      0.056700
     46 H3          6.7050   -0.8320   -2.0900 ho        1 YAU      0.431000
     47 H201        7.9800   -1.3730    1.3060 hc        1 YAU      0.077200
     48 H202        8.5110   -0.1000    0.1180 hc        1 YAU      0.077200
     49 H21C       10.5500   -1.0520    0.8580 h1        1 YAU      0.053700
     50 H22C       10.1290   -2.5200    1.8460 h1        1 YAU      0.053700
     51 H31C       10.0940   -4.6420   -0.9650 h1        1 YAU      0.066200
     52 H32C       10.3890   -3.2950   -2.1520 h1        1 YAU      0.066200
     53 H1         12.2350   -3.3810    1.5530 hc        1 YAU      0.082700
     54 H4         12.5570   -2.9660   -1.4160 hc        1 YAU      0.070700
     55 HC1        14.0330   -2.0190    0.4460 h1        1 YAU      0.033200
     56 HC2        12.7630   -0.8730   -0.2050 h1        1 YAU      0.033200
     57 H          13.6960   -0.2880    1.8660 ho        1 YAU      0.406000
     58 H18        14.1390   -4.4890   -1.9030 ha        1 YAU      0.176000
     59 H6         11.1240   -5.5410    1.0110 ha        1 YAU      0.146000
     60 HA         15.6680   -7.8530   -1.7880 hn        1 YAU      0.333500
     61 H7         12.1430   -7.7980    1.2680 ha        1 YAU      0.151000
     62 H111       18.2750   -6.8720   -2.3930 hc        1 YAU      0.087200
     63 H112       17.9020   -5.9950   -3.9370 hc        1 YAU      0.087200
     64 H17        16.5270   -7.0800   -5.6970 ha        1 YAU      0.142500
     65 H13        17.7710   -9.2240   -2.1500 ha        1 YAU      0.142500
     66 H16        16.0180   -9.2450   -6.8320 ha        1 YAU      0.154500
     67 H14        17.2620  -11.3920   -3.2740 ha        1 YAU      0.154500
@<TRIPOS>BOND
     1    1    2 1   
     2    2    3 ar  
     3    2    5 ar  
     4    3    4 ar  
     5    3   39 1   
     6    4    7 ar  
     7    4   41 1   
     8    5    6 ar  
     9    5   40 1   
    10    6    7 ar  
    11    6   42 1   
    12    7    8 1   
    13    8    9 1   
    14    8   43 1   
    15    8   44 1   
    16    9   10 1   
    17    9   11 1   
    18    9   45 1   
    19   10   46 1   
    20   11   12 1   
    21   11   47 1   
    22   11   48 1   
    23   12   13 2   
    24   12   14 1   
    25   14   15 1   
    26   14   16 1   
    27   15   18 1   
    28   15   49 1   
    29   15   50 1   
    30   16   17 1   
    31   16   51 1   
    32   16   52 1   
    33   17   18 1   
    34   17   21 1   
    35   17   54 1   
    36   18   19 1   
    37   18   53 1   
    38   19   20 1   
    39   19   55 1   
    40   19   56 1   
    41   20   57 1   
    42   21   22 ar  
    43   21   27 ar  
    44   22   23 ar  
    45   22   58 1   
    46   23   24 ar  
    47   23   28 1   
    48   24   25 1   
    49   24   26 ar  
    50   26   27 ar  
    51   26   61 1   
    52   27   59 1   
    53   28   29 1   
    54   28   60 1   
    55   29   30 2   
    56   29   31 1   
    57   31   32 1   
    58   31   62 1   
    59   31   63 1   
    60   32   33 ar  
    61   32   38 ar  
    62   33   34 ar  
    63   33   64 1   
    64   34   35 ar  
    65   34   66 1   
    66   35   36 1   
    67   35   37 ar  
    68   37   38 ar  
    69   37   67 1   
    70   38   65 1   
@<TRIPOS>SUBSTRUCTURE
     1 YAU         1 TEMP              0 ****  ****    0 ROOT
