@<TRIPOS>MOLECULE
YAU
   67    70     1     0     0
SMALL
bcc


@<TRIPOS>ATOM
      1 CL1        -0.1220   -0.4870    0.9900 cl        1 YAU     -0.100400
      2 C26         1.5700   -0.3130    0.9460 ca        1 YAU      0.015400
      3 C25         2.3040   -0.3750    2.1330 ca        1 YAU     -0.125000
      4 C24         3.6900   -0.2320    2.0920 ca        1 YAU     -0.117500
      5 C27         2.2150   -0.1100   -0.2780 ca        1 YAU     -0.125000
      6 C28         3.6000    0.0330   -0.3080 ca        1 YAU     -0.117500
      7 C23         4.3480   -0.0270    0.8750 ca        1 YAU     -0.080300
      8 C22         5.8240    0.1550    0.8380 c3        1 YAU     -0.038100
      9 C21         6.5040   -0.7710   -0.1740 c3        1 YAU      0.161100
     10 O3          6.4660   -0.1050   -1.4270 oh        1 YAU     -0.614800
     11 C20         7.9500   -1.0420    0.2470 c3        1 YAU     -0.187400
     12 C19         8.5950   -2.0770   -0.6530 c         1 YAU      0.661100
     13 O2          8.0910   -2.3930   -1.7530 o         1 YAU     -0.627100
     14 N           9.7430   -2.7070   -0.2100 n         1 YAU     -0.467800
     15 C2         10.5390   -2.2180    0.8980 c3        1 YAU      0.091000
     16 C3         10.5100   -3.5830   -1.0770 c3        1 YAU      0.090000
     17 C4         11.9820   -3.5480   -0.5990 c3        1 YAU     -0.035400
     18 C1         11.9700   -2.7740    0.7350 c3        1 YAU     -0.073700
     19 C          13.0080   -1.6620    0.7280 c3        1 YAU      0.132400
     20 O          12.9460   -1.0190    1.9920 oh        1 YAU     -0.605800
     21 C5         12.5560   -4.9180   -0.4560 ca        1 YAU     -0.051300
     22 C18        13.6990   -5.2550   -1.1830 ca        1 YAU     -0.146000
     23 C9         14.2800   -6.5370   -1.0700 ca        1 YAU      0.084600
     24 C8         13.6570   -7.4730   -0.2020 ca        1 YAU     -0.036600
     25 CL         14.2870   -9.0470   -0.0120 cl        1 YAU     -0.101400
     26 C7         12.5110   -7.1290    0.5140 ca        1 YAU     -0.094000
     27 C6         11.9630   -5.8570    0.3940 ca        1 YAU     -0.144000
     28 N1         15.4260   -6.9140   -1.7840 n         1 YAU     -0.467100
     29 C10        16.2980   -6.0830   -2.4710 c         1 YAU      0.671100
     30 O1         16.1560   -4.8490   -2.5460 o         1 YAU     -0.593100
     31 C11        17.5030   -6.7520   -3.1220 c3        1 YAU     -0.110100
     32 C12        17.1810   -8.0180   -3.8280 ca        1 YAU     -0.116300
     33 C17        16.7240   -7.9900   -5.1520 ca        1 YAU     -0.099000
     34 C16        16.4370   -9.1690   -5.8300 ca        1 YAU     -0.161500
     35 C15        16.6110  -10.4040   -5.1770 ca        1 YAU      0.134900
     36 F          16.3360  -11.5570   -5.8290 f         1 YAU     -0.134900
     37 C14        17.0740  -10.4420   -3.8480 ca        1 YAU     -0.161500
     38 C13        17.3540   -9.2510   -3.1870 ca        1 YAU     -0.099000
     39 H25         1.7940   -0.5360    3.0950 ha        1 YAU      0.146000
     40 H27         1.6350   -0.0620   -1.2120 ha        1 YAU      0.146000
     41 H24         4.2660   -0.2810    3.0290 ha        1 YAU      0.147000
     42 H28         4.1240    0.1920   -1.2660 ha        1 YAU      0.147000
     43 H221        6.2580   -0.0320    1.8550 hc        1 YAU      0.062200
     44 H222        6.0520    1.2200    0.5570 hc        1 YAU      0.062200
     45 H21         5.9510   -1.7500   -0.2490 h1        1 YAU      0.056700
     46 H3          6.7740   -0.7370   -2.0920 ho        1 YAU      0.431000
     47 H201        7.9700   -1.3900    1.3120 hc        1 YAU      0.077200
     48 H202        8.5430   -0.0920    0.1720 hc        1 YAU      0.077200
     49 H21C       10.5530   -1.0930    0.9270 h1        1 YAU      0.053700
     50 H22C       10.0900   -2.5820    1.8640 h1        1 YAU      0.053700
     51 H31C       10.4270   -3.2480   -2.1480 h1        1 YAU      0.066200
     52 H32C       10.0880   -4.6240   -1.0060 h1        1 YAU      0.066200
     53 H1         12.1910   -3.4640    1.5920 hc        1 YAU      0.082700
     54 H4         12.5830   -2.9720   -1.3570 hc        1 YAU      0.070700
     55 HC1        14.0300   -2.0970    0.5620 h1        1 YAU      0.033200
     56 HC2        12.7910   -0.9160   -0.0840 h1        1 YAU      0.033200
     57 H          13.6870   -0.4020    2.0220 ho        1 YAU      0.406000
     58 H18        14.1540   -4.5040   -1.8510 ha        1 YAU      0.176000
     59 H6         11.0600   -5.5920    0.9650 ha        1 YAU      0.146000
     60 HA         15.6320   -7.8920   -1.7960 hn        1 YAU      0.333500
     61 H7         12.0410   -7.8690    1.1810 ha        1 YAU      0.151000
     62 H111       18.2660   -6.9330   -2.3160 hc        1 YAU      0.087200
     63 H112       17.9400   -6.0080   -3.8430 hc        1 YAU      0.087200
     64 H17        16.5900   -7.0230   -5.6630 ha        1 YAU      0.142500
     65 H13        17.7240   -9.2830   -2.1500 ha        1 YAU      0.142500
     66 H16        16.0770   -9.1480   -6.8690 ha        1 YAU      0.154500
     67 H14        17.2100  -11.4110   -3.3460 ha        1 YAU      0.154500
@<TRIPOS>BOND
     1    1    2 1   
     2    2    3 ar  
     3    2    5 ar  
     4    3    4 ar  
     5    3   39 1   
     6    4    7 ar  
     7    4   41 1   
     8    5    6 ar  
     9    5   40 1   
    10    6    7 ar  
    11    6   42 1   
    12    7    8 1   
    13    8    9 1   
    14    8   43 1   
    15    8   44 1   
    16    9   10 1   
    17    9   11 1   
    18    9   45 1   
    19   10   46 1   
    20   11   12 1   
    21   11   47 1   
    22   11   48 1   
    23   12   13 2   
    24   12   14 1   
    25   14   15 1   
    26   14   16 1   
    27   15   18 1   
    28   15   49 1   
    29   15   50 1   
    30   16   17 1   
    31   16   51 1   
    32   16   52 1   
    33   17   18 1   
    34   17   21 1   
    35   17   54 1   
    36   18   19 1   
    37   18   53 1   
    38   19   20 1   
    39   19   55 1   
    40   19   56 1   
    41   20   57 1   
    42   21   22 ar  
    43   21   27 ar  
    44   22   23 ar  
    45   22   58 1   
    46   23   24 ar  
    47   23   28 1   
    48   24   25 1   
    49   24   26 ar  
    50   26   27 ar  
    51   26   61 1   
    52   27   59 1   
    53   28   29 1   
    54   28   60 1   
    55   29   30 2   
    56   29   31 1   
    57   31   32 1   
    58   31   62 1   
    59   31   63 1   
    60   32   33 ar  
    61   32   38 ar  
    62   33   34 ar  
    63   33   64 1   
    64   34   35 ar  
    65   34   66 1   
    66   35   36 1   
    67   35   37 ar  
    68   37   38 ar  
    69   37   67 1   
    70   38   65 1   
@<TRIPOS>SUBSTRUCTURE
     1 YAU         1 TEMP              0 ****  ****    0 ROOT
