@<TRIPOS>MOLECULE
YBH
   69    72     1     0     0
SMALL
bcc


@<TRIPOS>ATOM
      1 O39         0.4910   -3.1630    0.8010 o         1 YBH     -0.505100
      2 C31         1.3990   -2.3660    0.5850 c         1 YBH      0.560900
      3 C17         1.5280   -1.0200    1.2960 c3        1 YBH     -0.012300
      4 C12         2.9470   -0.9300    1.8970 c3        1 YBH     -0.191400
      5 C6          3.8440   -0.1190    1.0070 c         1 YBH      0.621100
      6 O38         3.6120    1.2150    0.8670 oh        1 YBH     -0.581100
      7 O36         4.8070   -0.5390    0.3680 o         1 YBH     -0.482000
      8 N4          0.4810   -0.7810    2.2610 n         1 YBH     -0.549900
      9 C18         0.2410    0.4760    2.7570 c         1 YBH      0.666100
     10 O35         0.9970    1.4340    2.4770 o         1 YBH     -0.647100
     11 C8         -0.9390    0.6520    3.7220 c3        1 YBH     -0.041400
     12 C28        -2.1250   -0.1150    3.2890 cc        1 YBH     -0.165400
     13 S41        -3.2430    0.4100    2.1440 ss        1 YBH      0.029200
     14 C9         -2.4610   -1.3720    3.7630 cd        1 YBH     -0.143000
     15 C15        -3.6540   -1.8700    3.1550 cd        1 YBH     -0.149000
     16 C7         -4.1710   -0.9700    2.2490 cc        1 YBH     -0.149100
     17 C11        -1.2340    2.1390    3.8930 c3        1 YBH     -0.077400
     18 C25        -2.0040    2.4060    5.1700 c3        1 YBH     -0.077400
     19 C13        -2.2790    3.8910    5.3110 c3        1 YBH     -0.107400
     20 C14        -3.0210    4.1430    6.6160 c3        1 YBH      0.103800
     21 N3         -3.3090    5.5910    6.8370 n4        1 YBH     -0.677800
     22 C33        -4.0520    5.8690    8.1380 c         1 YBH      0.577700
     23 O37        -4.4570    4.8790    8.7320 o         1 YBH     -0.434100
     24 C16        -4.1770    7.2680    8.5200 ca        1 YBH     -0.243600
     25 C20        -4.6620    7.5210    9.8190 ca        1 YBH     -0.039500
     26 C21        -4.8140    8.8240   10.2760 ca        1 YBH     -0.150000
     27 C22        -4.4770    9.8900    9.4300 ca        1 YBH      0.216100
     28 C23        -4.0040    9.6500    8.1190 ca        1 YBH     -0.150000
     29 C24        -3.8590    8.3480    7.6740 ca        1 YBH     -0.039500
     30 O34        -4.6790   11.2190    9.7330 os        1 YBH     -0.350400
     31 C26        -4.4480   11.6700   11.0340 ca        1 YBH      0.485300
     32 C27        -5.1190   12.9280   11.3370 ca        1 YBH      0.323900
     33 N1         -4.9320   13.5240   12.4930 nb        1 YBH     -0.586000
     34 N2         -3.6240   11.0480   11.8670 nb        1 YBH     -0.680000
     35 C30        -3.4220   11.6710   13.0900 ca        1 YBH      0.309300
     36 C29        -4.0800   12.9160   13.4040 ca        1 YBH      0.276300
     37 C10        -3.8410   13.5210   14.6740 ca        1 YBH     -0.144300
     38 C32        -2.9960   12.9210   15.5760 ca        1 YBH     -0.114000
     39 C19        -2.3510   11.7030   15.2660 ca        1 YBH     -0.101000
     40 C5         -2.5530   11.0830   14.0560 ca        1 YBH     -0.171300
     41 H31         2.2110   -2.5520   -0.1520 h4        1 YBH      0.041200
     42 H17         1.4380   -0.2210    0.4890 h1        1 YBH      0.089700
     43 H121        2.9240   -0.4410    2.9080 hc        1 YBH      0.092200
     44 H122        3.3860   -1.9550    2.0250 hc        1 YBH      0.092200
     45 HN4         2.8460    1.4830    1.4030 ho        1 YBH      0.453000
     46 H8         -0.5830    0.2410    4.7150 hc        1 YBH      0.085700
     47 H9         -1.8950   -1.9340    4.5100 ha        1 YBH      0.159000
     48 H15        -4.0820   -2.8480    3.3910 ha        1 YBH      0.169000
     49 H7         -5.0710   -1.1220    1.6510 h4        1 YBH      0.184000
     50 H111       -0.2630    2.7040    3.9130 hc        1 YBH      0.070700
     51 H112       -1.8170    2.5090    3.0080 hc        1 YBH      0.070700
     52 H251       -1.4110    2.0460    6.0530 hc        1 YBH      0.060700
     53 H252       -2.9700    1.8360    5.1590 hc        1 YBH      0.060700
     54 H131       -2.8900    4.2410    4.4370 hc        1 YBH      0.065200
     55 H132       -1.3060    4.4520    5.2950 hc        1 YBH      0.065200
     56 H141       -2.4130    3.7770    7.4930 hx        1 YBH      0.115200
     57 H142       -4.0050    3.5900    6.6230 hx        1 YBH      0.115200
     58 HN3        -2.4260    6.1150    6.8500 hn        1 YBH      0.454800
     59 H20        -4.9290    6.6740   10.4760 ha        1 YBH      0.149000
     60 H21        -5.1960    9.0080   11.2940 ha        1 YBH      0.183500
     61 H23        -3.7620   10.5070    7.4690 ha        1 YBH      0.183500
     62 H24        -3.4980    8.1960    6.6460 ha        1 YBH      0.149000
     63 H27        -5.7870   13.3940   10.5930 h4        1 YBH      0.059100
     64 H10        -4.3430   14.4730   14.9160 ha        1 YBH      0.166000
     65 H32        -2.8110   13.3890   16.5560 ha        1 YBH      0.154000
     66 H19        -1.6780   11.2510   16.0120 ha        1 YBH      0.150000
     67 H5         -2.0450   10.1350   13.8170 ha        1 YBH      0.153000
     68 H42        -0.1590   -1.5240    2.4400 hn        1 YBH      0.346500
     69 H321       -3.8760    5.9450    6.0590 hn        1 YBH      0.454800
@<TRIPOS>BOND
     1    1    2 2   
     2    2    3 1   
     3    2   41 1   
     4    3    4 1   
     5    3    8 1   
     6    3   42 1   
     7    4    5 1   
     8    4   43 1   
     9    4   44 1   
    10    5    6 1   
    11    5    7 2   
    12    6   45 1   
    13    8    9 1   
    14    8   68 1   
    15    9   10 2   
    16    9   11 1   
    17   11   12 1   
    18   11   17 1   
    19   11   46 1   
    20   12   13 1   
    21   12   14 2   
    22   13   16 1   
    23   14   15 1   
    24   14   47 1   
    25   15   16 2   
    26   15   48 1   
    27   16   49 1   
    28   17   18 1   
    29   17   50 1   
    30   17   51 1   
    31   18   19 1   
    32   18   52 1   
    33   18   53 1   
    34   19   20 1   
    35   19   54 1   
    36   19   55 1   
    37   20   21 1   
    38   20   56 1   
    39   20   57 1   
    40   21   22 1   
    41   21   58 1   
    42   21   69 1   
    43   22   23 2   
    44   22   24 1   
    45   24   25 ar  
    46   24   29 ar  
    47   25   26 ar  
    48   25   59 1   
    49   26   27 ar  
    50   26   60 1   
    51   27   28 ar  
    52   27   30 1   
    53   28   29 ar  
    54   28   61 1   
    55   29   62 1   
    56   30   31 1   
    57   31   32 ar  
    58   31   34 ar  
    59   32   33 ar  
    60   32   63 1   
    61   33   36 ar  
    62   34   35 ar  
    63   35   36 ar  
    64   35   40 ar  
    65   36   37 ar  
    66   37   38 ar  
    67   37   64 1   
    68   38   39 ar  
    69   38   65 1   
    70   39   40 ar  
    71   39   66 1   
    72   40   67 1   
@<TRIPOS>SUBSTRUCTURE
     1 YBH         1 TEMP              0 ****  ****    0 ROOT
