@<TRIPOS>MOLECULE
YBH
   69    72     1     0     0
SMALL
bcc


@<TRIPOS>ATOM
      1 O39         0.3330   -1.9010   -0.0870 o         1 YBH     -0.506100
      2 C31         1.3760   -1.2550   -0.0290 c         1 YBH      0.546900
      3 C17         1.7960   -0.4420    1.1940 c3        1 YBH     -0.032300
      4 C12         3.0870   -1.0850    1.7340 c3        1 YBH     -0.180400
      5 C6          3.6440   -0.2970    2.8830 c         1 YBH      0.634100
      6 O38         3.2250   -0.5770    4.1530 oh        1 YBH     -0.578100
      7 O36         4.4790    0.6030    2.8220 o         1 YBH     -0.474000
      8 N4          0.7770   -0.3250    2.2140 ns        1 YBH     -0.549900
      9 C18         0.1740    0.9010    2.4710 c         1 YBH      0.656100
     10 O35         0.5930    1.9570    1.9620 o         1 YBH     -0.588100
     11 C8         -0.9570    0.9030    3.5090 c3        1 YBH     -0.045400
     12 C28        -1.9880   -0.1030    3.1840 cc        1 YBH     -0.165400
     13 S41        -3.2030    0.1010    2.0370 ss        1 YBH      0.047200
     14 C9         -2.0800   -1.3500    3.7810 cd        1 YBH     -0.148000
     15 C15        -3.1720   -2.1100    3.2620 cd        1 YBH     -0.152000
     16 C7         -3.8610   -1.4070    2.2960 cc        1 YBH     -0.151100
     17 C11        -1.5270    2.3120    3.6350 c3        1 YBH     -0.077400
     18 C25        -2.1990    2.5190    4.9770 c3        1 YBH     -0.076400
     19 C13        -2.6770    3.9540    5.1020 c3        1 YBH     -0.108400
     20 C14        -3.2890    4.1610    6.4800 c3        1 YBH      0.103800
     21 N3         -3.7250    5.5720    6.7020 ny        1 YBH     -0.677800
     22 C33        -4.3490    5.8020    8.0730 c         1 YBH      0.577700
     23 O37        -4.6640    4.7900    8.6840 o         1 YBH     -0.432100
     24 C16        -4.4750    7.1910    8.4920 ca        1 YBH     -0.242600
     25 C20        -4.7410    7.4120    9.8590 ca        1 YBH     -0.041000
     26 C21        -4.8750    8.7040   10.3520 ca        1 YBH     -0.149000
     27 C22        -4.7450    9.7880    9.4730 ca        1 YBH      0.214100
     28 C23        -4.4980    9.5790    8.0970 ca        1 YBH     -0.149000
     29 C24        -4.3670    8.2880    7.6170 ca        1 YBH     -0.041000
     30 O34        -4.9570   11.1050    9.8260 os        1 YBH     -0.350400
     31 C26        -4.5110   11.5630   11.0670 ca        1 YBH      0.486300
     32 C27        -5.1710   12.7880   11.5010 ca        1 YBH      0.323900
     33 N1         -4.8030   13.3890   12.6100 nb        1 YBH     -0.587000
     34 N2         -3.5220   10.9770   11.7280 nb        1 YBH     -0.681000
     35 C30        -3.1280   11.6060   12.9010 ca        1 YBH      0.309300
     36 C29        -3.7720   12.8180   13.3430 ca        1 YBH      0.275300
     37 C10        -3.3330   13.4300   14.5550 ca        1 YBH     -0.144300
     38 C32        -2.3110   12.8670   15.2800 ca        1 YBH     -0.115000
     39 C19        -1.6790   11.6810   14.8440 ca        1 YBH     -0.101000
     40 C5         -2.0710   11.0560   13.6840 ca        1 YBH     -0.171300
     41 H31         2.1040   -1.2100   -0.8680 h4        1 YBH      0.024200
     42 H17         2.0560    0.6030    0.8270 h1        1 YBH      0.127700
     43 H121        2.8990   -2.1440    2.0510 hc        1 YBH      0.085700
     44 H122        3.8480   -1.0950    0.9080 hc        1 YBH      0.085700
     45 HN4         2.5560   -1.2740    4.1340 ho        1 YBH      0.425000
     46 H8         -0.4750    0.6250    4.4950 hc        1 YBH      0.086700
     47 H9         -1.4100   -1.7240    4.5580 ha        1 YBH      0.154000
     48 H15        -3.4120   -3.1210    3.5990 ha        1 YBH      0.166000
     49 H7         -4.7270   -1.7750    1.7460 h4        1 YBH      0.183000
     50 H111       -2.2580    2.4980    2.8050 hc        1 YBH      0.070700
     51 H112       -0.6910    3.0550    3.5150 hc        1 YBH      0.070700
     52 H251       -1.4750    2.2900    5.8030 hc        1 YBH      0.059700
     53 H252       -3.0660    1.8150    5.0830 hc        1 YBH      0.059700
     54 H131       -1.8080    4.6470    4.9470 hc        1 YBH      0.065700
     55 H132       -3.4330    4.1670    4.3000 hc        1 YBH      0.065700
     56 H141       -2.5430    3.9040    7.2860 hx        1 YBH      0.115200
     57 H142       -4.1900    3.4940    6.6150 hx        1 YBH      0.115200
     58 HN3        -2.9170    6.1960    6.6030 hn        1 YBH      0.455300
     59 H20        -4.8480    6.5500   10.5410 ha        1 YBH      0.149000
     60 H21        -5.0820    8.8650   11.4220 ha        1 YBH      0.183000
     61 H23        -4.4200   10.4490    7.4250 ha        1 YBH      0.183000
     62 H24        -4.1910    8.1550    6.5390 ha        1 YBH      0.149000
     63 H27        -5.9850   13.2240   10.8960 h4        1 YBH      0.059100
     64 H10        -3.8240   14.3570   14.8950 ha        1 YBH      0.165000
     65 H32        -1.9700   13.3400   16.2150 ha        1 YBH      0.153000
     66 H19        -0.8610   11.2580   15.4490 ha        1 YBH      0.150000
     67 H5         -1.5740   10.1330   13.3460 ha        1 YBH      0.153000
     68 H42         0.2230   -1.1410    2.3660 hn        1 YBH      0.323500
     69 H321       -4.4130    5.8290    5.9860 hn        1 YBH      0.455300
@<TRIPOS>BOND
     1    1    2 2   
     2    2    3 1   
     3    2   41 1   
     4    3    4 1   
     5    3    8 1   
     6    3   42 1   
     7    4    5 1   
     8    4   43 1   
     9    4   44 1   
    10    5    6 1   
    11    5    7 2   
    12    6   45 1   
    13    8    9 1   
    14    8   68 1   
    15    9   10 2   
    16    9   11 1   
    17   11   12 1   
    18   11   17 1   
    19   11   46 1   
    20   12   13 1   
    21   12   14 2   
    22   13   16 1   
    23   14   15 1   
    24   14   47 1   
    25   15   16 2   
    26   15   48 1   
    27   16   49 1   
    28   17   18 1   
    29   17   50 1   
    30   17   51 1   
    31   18   19 1   
    32   18   52 1   
    33   18   53 1   
    34   19   20 1   
    35   19   54 1   
    36   19   55 1   
    37   20   21 1   
    38   20   56 1   
    39   20   57 1   
    40   21   22 1   
    41   21   58 1   
    42   21   69 1   
    43   22   23 2   
    44   22   24 1   
    45   24   25 ar  
    46   24   29 ar  
    47   25   26 ar  
    48   25   59 1   
    49   26   27 ar  
    50   26   60 1   
    51   27   28 ar  
    52   27   30 1   
    53   28   29 ar  
    54   28   61 1   
    55   29   62 1   
    56   30   31 1   
    57   31   32 ar  
    58   31   34 ar  
    59   32   33 ar  
    60   32   63 1   
    61   33   36 ar  
    62   34   35 ar  
    63   35   36 ar  
    64   35   40 ar  
    65   36   37 ar  
    66   37   38 ar  
    67   37   64 1   
    68   38   39 ar  
    69   38   65 1   
    70   39   40 ar  
    71   39   66 1   
    72   40   67 1   
@<TRIPOS>SUBSTRUCTURE
     1 YBH         1 TEMP              0 ****  ****    0 ROOT
