@<TRIPOS>MOLECULE
YBH
   67    70     1     0     0
SMALL
bcc


@<TRIPOS>ATOM
      1 O39        -8.7720   -0.3730    3.1010 o         1 YBH     -0.542100
      2 C31        -8.8310    0.7560    2.6180 c         1 YBH      0.564900
      3 C17        -8.1980    1.2350    1.3220 c3        1 YBH      0.004700
      4 C12        -9.3480    1.6320    0.3810 c3        1 YBH     -0.216400
      5 C6         -8.8480    2.0390   -1.0190 c         1 YBH      0.914600
      6 O38        -8.3580    1.1350   -1.7620 o         1 YBH     -0.841800
      7 O36        -8.9710    3.2440   -1.3620 o         1 YBH     -0.841800
      8 N4         -7.2870    0.2890    0.7140 n         1 YBH     -0.506900
      9 C18        -5.9280    0.4120    0.8960 c         1 YBH      0.658100
     10 O35        -5.4410    1.0240    1.8750 o         1 YBH     -0.653100
     11 C8         -5.0060   -0.2190   -0.1610 c3        1 YBH     -0.058400
     12 C28        -5.5450   -1.4650   -0.7430 cc        1 YBH     -0.100400
     13 S41        -5.0810   -3.0190   -0.2620 ss        1 YBH     -0.031800
     14 C9         -6.4850   -1.5230   -1.7540 cd        1 YBH     -0.143000
     15 C15        -6.7960   -2.8730   -2.1130 cd        1 YBH     -0.152000
     16 C7         -6.0830   -3.7790   -1.3620 cc        1 YBH     -0.180100
     17 C11        -3.6050   -0.4010    0.4100 c3        1 YBH     -0.077400
     18 C25        -2.5550   -0.4390   -0.6810 c3        1 YBH     -0.079400
     19 C13        -1.1670   -0.5340   -0.0840 c3        1 YBH     -0.100400
     20 C14        -0.1180   -0.5580   -1.1960 c3        1 YBH      0.082000
     21 N3          1.2380   -0.4710   -0.7200 n         1 YBH     -0.560900
     22 C33         2.1880   -1.4330   -0.9790 c         1 YBH      0.666700
     23 O37         1.9760   -2.3810   -1.7620 o         1 YBH     -0.606100
     24 C16         3.5230   -1.2620   -0.3250 ca        1 YBH     -0.135600
     25 C20         4.6680   -1.5150   -1.0890 ca        1 YBH     -0.084000
     26 C21         5.9340   -1.3820   -0.5230 ca        1 YBH     -0.133000
     27 C22         6.0340   -1.0020    0.8190 ca        1 YBH      0.108100
     28 C23         4.8980   -0.7510    1.6000 ca        1 YBH     -0.133000
     29 C24         3.6390   -0.8890    1.0180 ca        1 YBH     -0.084000
     30 O34         7.2670   -0.9810    1.4810 os        1 YBH     -0.364400
     31 C26         8.2290   -0.0930    1.0370 ca        1 YBH      0.521300
     32 C27         9.4910   -0.2040    1.7690 ca        1 YBH      0.311900
     33 N1         10.5110    0.5730    1.4900 nb        1 YBH     -0.608000
     34 N2          8.0290    0.7820    0.0570 nb        1 YBH     -0.686000
     35 C30         9.1020    1.6080   -0.2430 ca        1 YBH      0.323300
     36 C29        10.3470    1.5060    0.4720 ca        1 YBH      0.254300
     37 C10        11.4190    2.3800    0.1240 ca        1 YBH     -0.147300
     38 C32        11.2580    3.3030   -0.8810 ca        1 YBH     -0.136000
     39 C19        10.0370    3.4030   -1.5820 ca        1 YBH     -0.114000
     40 C5          8.9780    2.5810   -1.2800 ca        1 YBH     -0.167300
     41 H31        -9.4090    1.5650    3.1270 h4        1 YBH     -0.028800
     42 H17        -7.6170    2.1730    1.5940 h1        1 YBH      0.078700
     43 H121       -9.8960    2.4910    0.8400 hc        1 YBH      0.041700
     44 H122      -10.0540    0.7730    0.2610 hc        1 YBH      0.041700
     45 HN4        -7.6030   -0.0560   -0.1790 hn        1 YBH      0.353500
     46 H8         -4.9610    0.5590   -0.9850 hc        1 YBH      0.095700
     47 H9         -6.9720   -0.6470   -2.2130 ha        1 YBH      0.215000
     48 H15        -7.5220   -3.1240   -2.8890 ha        1 YBH      0.148000
     49 H7         -6.1450   -4.8620   -1.4440 h4        1 YBH      0.156000
     50 H111       -3.3850    0.4500    1.1110 hc        1 YBH      0.059700
     51 H112       -3.5620   -1.3460    1.0150 hc        1 YBH      0.059700
     52 H251       -2.7410   -1.3150   -1.3570 hc        1 YBH      0.047700
     53 H252       -2.6320    0.4890   -1.3090 hc        1 YBH      0.047700
     54 H131       -0.9960    0.3410    0.5970 hc        1 YBH      0.043200
     55 H132       -1.0870   -1.4630    0.5390 hc        1 YBH      0.043200
     56 H141       -0.2350   -1.5040   -1.8000 h1        1 YBH      0.063700
     57 H142       -0.2990    0.3180   -1.8850 h1        1 YBH      0.063700
     58 HN3         1.4340    0.2290   -0.0460 hn        1 YBH      0.307500
     59 H20         4.5570   -1.8310   -2.1390 ha        1 YBH      0.151500
     60 H21         6.8390   -1.5660   -1.1190 ha        1 YBH      0.151000
     61 H23         5.0060   -0.4620    2.6550 ha        1 YBH      0.151000
     62 H24         2.7430   -0.7130    1.6320 ha        1 YBH      0.151500
     63 H27         9.5900   -0.9530    2.5730 h4        1 YBH      0.050100
     64 H10        12.3720    2.3020    0.6710 ha        1 YBH      0.150000
     65 H32        12.0850    3.9780   -1.1500 ha        1 YBH      0.137000
     66 H19         9.9400    4.1550   -2.3810 ha        1 YBH      0.139000
     67 H5          8.0250    2.6620   -1.8270 ha        1 YBH      0.156000
@<TRIPOS>BOND
     1    1    2 2   
     2    2    3 1   
     3    2   41 1   
     4    3    4 1   
     5    3    8 1   
     6    3   42 1   
     7    4    5 1   
     8    4   43 1   
     9    4   44 1   
    10    5    6 1   
    11    5    7 1   
    12    8    9 1   
    13    8   45 1   
    14    9   10 2   
    15    9   11 1   
    16   11   12 1   
    17   11   17 1   
    18   11   46 1   
    19   12   13 1   
    20   12   14 2   
    21   13   16 1   
    22   14   15 1   
    23   14   47 1   
    24   15   16 2   
    25   15   48 1   
    26   16   49 1   
    27   17   18 1   
    28   17   50 1   
    29   17   51 1   
    30   18   19 1   
    31   18   52 1   
    32   18   53 1   
    33   19   20 1   
    34   19   54 1   
    35   19   55 1   
    36   20   21 1   
    37   20   56 1   
    38   20   57 1   
    39   21   22 1   
    40   21   58 1   
    41   22   23 2   
    42   22   24 1   
    43   24   25 ar  
    44   24   29 ar  
    45   25   26 ar  
    46   25   59 1   
    47   26   27 ar  
    48   26   60 1   
    49   27   28 ar  
    50   27   30 1   
    51   28   29 ar  
    52   28   61 1   
    53   29   62 1   
    54   30   31 1   
    55   31   32 ar  
    56   31   34 ar  
    57   32   33 ar  
    58   32   63 1   
    59   33   36 ar  
    60   34   35 ar  
    61   35   36 ar  
    62   35   40 ar  
    63   36   37 ar  
    64   37   38 ar  
    65   37   64 1   
    66   38   39 ar  
    67   38   65 1   
    68   39   40 ar  
    69   39   66 1   
    70   40   67 1   
@<TRIPOS>SUBSTRUCTURE
     1 YBH         1 TEMP              0 ****  ****    0 ROOT
