@<TRIPOS>MOLECULE
YBN
   51    54     1     0     0
SMALL
bcc


@<TRIPOS>ATOM
      1 C           7.8540   -1.0550   -0.6050 c3        1 YBN      0.113700
      2 N          -3.9390    4.1220   -1.0980 n3        1 YBN     -0.821200
      3 O           6.8190   -1.0340    0.3710 os        1 YBN     -0.328900
      4 S          -0.2750   -2.3210    0.3310 ss        1 YBN      0.130500
      5 C1          5.7550   -0.1880    0.1120 ca        1 YBN      0.115100
      6 O1          1.4880   -0.2180    1.6650 os        1 YBN     -0.431900
      7 C2          5.6460    0.6240   -1.0220 ca        1 YBN     -0.194000
      8 O2          0.4630    1.4830    0.6280 o         1 YBN     -0.534000
      9 C3          4.5190    1.4350   -1.1680 ca        1 YBN     -0.102000
     10 O3         -2.5060    0.7830    0.9780 os        1 YBN     -0.315900
     11 C4          3.5190    1.4400   -0.2010 ca        1 YBN     -0.143000
     12 C5          3.6350    0.6270    0.9340 ca        1 YBN     -0.093300
     13 C6          2.5760    0.6600    1.9880 c3        1 YBN      0.182700
     14 C7          0.4340    0.2920    0.9500 c         1 YBN      0.688300
     15 C8         -0.5980   -0.6930    0.6630 cc        1 YBN     -0.189600
     16 C9         -1.8860   -2.7060    0.0620 ca        1 YBN     -0.078100
     17 C10        -2.4480   -3.9420   -0.2920 ca        1 YBN     -0.103000
     18 C11        -3.8190   -4.0440   -0.4420 ca        1 YBN     -0.106000
     19 C12        -4.6560   -2.9280   -0.2410 ca        1 YBN     -0.139000
     20 C13        -4.1220   -1.7000    0.1050 ca        1 YBN     -0.075000
     21 C14        -2.7320   -1.5780    0.2530 ca        1 YBN     -0.118800
     22 C15        -1.9530   -0.4130    0.6060 cd        1 YBN      0.171900
     23 C16        -3.1320    1.5190   -0.1050 c3        1 YBN      0.147100
     24 C17        -4.2880    2.2790    0.5330 c3        1 YBN     -0.092900
     25 C18        -4.9070    3.2370   -0.4830 c3        1 YBN      0.166300
     26 C19        -2.7960    3.4400   -1.6730 c3        1 YBN      0.166300
     27 C20        -2.1150    2.4780   -0.7050 c3        1 YBN     -0.092900
     28 C21         4.7500   -0.1940    1.0960 ca        1 YBN     -0.134000
     29 H           8.5870   -1.7930   -0.1910 h1        1 YBN      0.043700
     30 HA          7.4600   -1.4020   -1.5910 h1        1 YBN      0.043700
     31 HB          8.3240   -0.0470   -0.7040 h1        1 YBN      0.043700
     32 H2          6.4290    0.6330   -1.7930 ha        1 YBN      0.136000
     33 H3          4.4250    2.0750   -2.0580 ha        1 YBN      0.134000
     34 H4          2.6260    2.0760   -0.3190 ha        1 YBN      0.156000
     35 H6          2.1990    1.7070    2.1380 h1        1 YBN      0.074700
     36 H6A         2.9540    0.2380    2.9600 h1        1 YBN      0.074700
     37 H10        -1.7980   -4.8160   -0.4450 ha        1 YBN      0.141000
     38 H11        -4.2710   -5.0090   -0.7200 ha        1 YBN      0.136000
     39 H12        -5.7440   -3.0450   -0.3600 ha        1 YBN      0.136000
     40 H13        -4.7620   -0.8220    0.2770 ha        1 YBN      0.142000
     41 H16        -3.5130    0.8020   -0.8820 h1        1 YBN      0.047700
     42 H17        -5.0700    1.5600    0.8860 hc        1 YBN      0.067450
     43 H17A       -3.9110    2.8440    1.4250 hc        1 YBN      0.067450
     44 H18        -5.6630    3.8840    0.0460 h1        1 YBN      0.028200
     45 H18A       -5.4650    2.6210   -1.2500 h1        1 YBN      0.028200
     46 H19        -3.0760    2.8620   -2.6050 h1        1 YBN      0.028200
     47 H19A       -2.0540    4.2320   -1.9770 h1        1 YBN      0.028200
     48 H20        -1.6070    3.0410    0.1230 hc        1 YBN      0.067450
     49 H20A       -1.3180    1.9050   -1.2450 hc        1 YBN      0.067450
     50 H21         4.8570   -0.8450    1.9750 ha        1 YBN      0.150000
     51 HN         -4.3870    4.6880   -1.7940 hn        1 YBN      0.363800
@<TRIPOS>BOND
     1    1    3 1   
     2    1   29 1   
     3    1   30 1   
     4    1   31 1   
     5    2   25 1   
     6    2   26 1   
     7    2   51 1   
     8    3    5 1   
     9    4   15 1   
    10    4   16 1   
    11    5    7 ar  
    12    5   28 ar  
    13    6   13 1   
    14    6   14 1   
    15    7    9 ar  
    16    7   32 1   
    17    8   14 2   
    18    9   11 ar  
    19    9   33 1   
    20   10   22 1   
    21   10   23 1   
    22   11   12 ar  
    23   11   34 1   
    24   12   13 1   
    25   12   28 ar  
    26   13   35 1   
    27   13   36 1   
    28   14   15 1   
    29   15   22 2   
    30   16   17 ar  
    31   16   21 ar  
    32   17   18 ar  
    33   17   37 1   
    34   18   19 ar  
    35   18   38 1   
    36   19   20 ar  
    37   19   39 1   
    38   20   21 ar  
    39   20   40 1   
    40   21   22 1   
    41   23   24 1   
    42   23   27 1   
    43   23   41 1   
    44   24   25 1   
    45   24   42 1   
    46   24   43 1   
    47   25   44 1   
    48   25   45 1   
    49   26   27 1   
    50   26   46 1   
    51   26   47 1   
    52   27   48 1   
    53   27   49 1   
    54   28   50 1   
@<TRIPOS>SUBSTRUCTURE
     1 YBN         1 TEMP              0 ****  ****    0 ROOT
