@<TRIPOS>MOLECULE
YBN
   51    54     1     0     0
SMALL
bcc


@<TRIPOS>ATOM
      1 C          -0.3610   -0.4670    1.2430 c3        1 YBN      0.113700
      2 N          11.4300    0.0470    6.4310 n7        1 YBN     -0.821200
      3 O           0.9180   -0.5190    0.6240 os        1 YBN     -0.328900
      4 S           7.0610   -4.0830    1.8640 ss        1 YBN      0.130500
      5 C1          1.9970   -0.1950    1.4270 ca        1 YBN      0.115100
      6 O1          6.4040   -1.2200    1.0390 os        1 YBN     -0.431900
      7 C2          1.9010    0.1720    2.7730 ca        1 YBN     -0.194000
      8 O2          7.3850   -0.3390    2.8510 o         1 YBN     -0.534000
      9 C3          3.0680    0.4750    3.4770 ca        1 YBN     -0.102000
     10 O3         10.0430   -1.8690    2.9780 os        1 YBN     -0.315900
     11 C4          4.3090    0.4180    2.8510 ca        1 YBN     -0.143000
     12 C5          4.3990    0.0540    1.5010 ca        1 YBN     -0.093300
     13 C6          5.7300    0.0280    0.8220 c3        1 YBN      0.182700
     14 C7          7.2410   -1.3230    2.1220 c         1 YBN      0.688300
     15 C8          7.8510   -2.6380    2.2550 cc        1 YBN     -0.189600
     16 C9          8.3480   -5.0500    2.3430 ca        1 YBN     -0.078100
     17 C10         8.4480   -6.4490    2.3300 ca        1 YBN     -0.103000
     18 C11         9.6230   -7.0480    2.7510 ca        1 YBN     -0.106000
     19 C12        10.7160   -6.2720    3.1880 ca        1 YBN     -0.139000
     20 C13        10.6360   -4.8920    3.2110 ca        1 YBN     -0.075000
     21 C14         9.4480   -4.2700    2.7960 ca        1 YBN     -0.118800
     22 C15         9.1320   -2.8610    2.7310 cd        1 YBN      0.171900
     23 C16        10.4190   -1.7300    4.3720 c3        1 YBN      0.147100
     24 C17        11.8680   -1.2580    4.3600 c3        1 YBN     -0.092900
     25 C18        12.3120   -0.8990    5.7770 c3        1 YBN      0.166300
     26 C19        10.0340   -0.3430    6.4200 c3        1 YBN      0.166300
     27 C20         9.5150   -0.6980    5.0290 c3        1 YBN     -0.092900
     28 C21         3.2470   -0.2580    0.7820 ca        1 YBN     -0.134000
     29 H          -0.5860    0.5670    1.5990 h1        1 YBN      0.043700
     30 HA         -0.4200   -1.1940    2.0900 h1        1 YBN      0.043700
     31 HB         -1.0610   -0.7620    0.4200 h1        1 YBN      0.043700
     32 H2          0.9280    0.2230    3.2800 ha        1 YBN      0.136000
     33 H3          3.0010    0.7620    4.5370 ha        1 YBN      0.134000
     34 H4          5.2310    0.6520    3.4080 ha        1 YBN      0.156000
     35 H6          6.3700    0.8820    1.1710 h1        1 YBN      0.074700
     36 H6A         5.6170    0.0560   -0.2970 h1        1 YBN      0.074700
     37 H10         7.5990   -7.0580    1.9850 ha        1 YBN      0.141000
     38 H11         9.7130   -8.1440    2.7450 ha        1 YBN      0.136000
     39 H12        11.6380   -6.7780    3.5080 ha        1 YBN      0.136000
     40 H13        11.4830   -4.2710    3.5390 ha        1 YBN      0.142000
     41 H16        10.3340   -2.7240    4.8910 h1        1 YBN      0.047700
     42 H17        11.9600   -0.3690    3.6840 hc        1 YBN      0.067450
     43 H17A       12.5300   -2.0660    3.9600 hc        1 YBN      0.067450
     44 H18        12.4150   -1.8590    6.3650 h1        1 YBN      0.028200
     45 H18A       13.3320   -0.4230    5.7240 h1        1 YBN      0.028200
     46 H19         9.4410    0.5310    6.8130 h1        1 YBN      0.028200
     47 H19A        9.8360   -1.2220    7.1040 h1        1 YBN      0.028200
     48 H20         8.4720   -1.0960    5.1090 hc        1 YBN      0.067450
     49 H20A        9.4660    0.2150    4.3780 hc        1 YBN      0.067450
     50 H21         3.2950   -0.5540   -0.2760 ha        1 YBN      0.150000
     51 HN         11.7350    0.2040    7.3730 hn        1 YBN      0.363800
@<TRIPOS>BOND
     1    1    3 1   
     2    1   29 1   
     3    1   30 1   
     4    1   31 1   
     5    2   25 1   
     6    2   26 1   
     7    2   51 1   
     8    3    5 1   
     9    4   15 1   
    10    4   16 1   
    11    5    7 ar  
    12    5   28 ar  
    13    6   13 1   
    14    6   14 1   
    15    7    9 ar  
    16    7   32 1   
    17    8   14 2   
    18    9   11 ar  
    19    9   33 1   
    20   10   22 1   
    21   10   23 1   
    22   11   12 ar  
    23   11   34 1   
    24   12   13 1   
    25   12   28 ar  
    26   13   35 1   
    27   13   36 1   
    28   14   15 1   
    29   15   22 2   
    30   16   17 ar  
    31   16   21 ar  
    32   17   18 ar  
    33   17   37 1   
    34   18   19 ar  
    35   18   38 1   
    36   19   20 ar  
    37   19   39 1   
    38   20   21 ar  
    39   20   40 1   
    40   21   22 1   
    41   23   24 1   
    42   23   27 1   
    43   23   41 1   
    44   24   25 1   
    45   24   42 1   
    46   24   43 1   
    47   25   44 1   
    48   25   45 1   
    49   26   27 1   
    50   26   46 1   
    51   26   47 1   
    52   27   48 1   
    53   27   49 1   
    54   28   50 1   
@<TRIPOS>SUBSTRUCTURE
     1 YBN         1 TEMP              0 ****  ****    0 ROOT
