@<TRIPOS>MOLECULE
YBN
   51    54     1     0     0
SMALL
bcc


@<TRIPOS>ATOM
      1 C          -0.3560   -0.4880    1.2150 c3        1 YBN      0.113700
      2 N          11.4060    0.0460    6.4600 n3        1 YBN     -0.821200
      3 O           0.9260   -0.5310    0.6010 os        1 YBN     -0.328900
      4 S           7.0780   -4.0770    1.8490 ss        1 YBN      0.130500
      5 C1          2.0000   -0.2070    1.4100 ca        1 YBN      0.115100
      6 O1          6.4130   -1.2130    1.0360 os        1 YBN     -0.431900
      7 C2          1.8970    0.1520    2.7580 ca        1 YBN     -0.194000
      8 O2          7.3820   -0.3370    2.8570 o         1 YBN     -0.534000
      9 C3          3.0590    0.4570    3.4680 ca        1 YBN     -0.102000
     10 O3         10.0450   -1.8580    2.9900 os        1 YBN     -0.315900
     11 C4          4.3040    0.4090    2.8470 ca        1 YBN     -0.143000
     12 C5          4.4010    0.0510    1.4960 ca        1 YBN     -0.093300
     13 C6          5.7350    0.0330    0.8220 c3        1 YBN      0.182700
     14 C7          7.2450   -1.3180    2.1230 c         1 YBN      0.688300
     15 C8          7.8600   -2.6310    2.2510 cc        1 YBN     -0.189600
     16 C9          8.3660   -5.0420    2.3290 ca        1 YBN     -0.078100
     17 C10         8.4720   -6.4410    2.3090 ca        1 YBN     -0.103000
     18 C11         9.6470   -7.0360    2.7330 ca        1 YBN     -0.106000
     19 C12        10.7340   -6.2590    3.1790 ca        1 YBN     -0.139000
     20 C13        10.6480   -4.8790    3.2100 ca        1 YBN     -0.075000
     21 C14         9.4600   -4.2600    2.7910 ca        1 YBN     -0.118800
     22 C15         9.1390   -2.8510    2.7330 cd        1 YBN      0.171900
     23 C16        10.4130   -1.7250    4.3870 c3        1 YBN      0.147100
     24 C17        11.8600   -1.2460    4.3850 c3        1 YBN     -0.092900
     25 C18        12.2950   -0.8920    5.8060 c3        1 YBN      0.166300
     26 C19        10.0110   -0.3500    6.4400 c3        1 YBN      0.166300
     27 C20         9.5010   -0.6990    5.0440 c3        1 YBN     -0.092900
     28 C21         3.2530   -0.2620    0.7710 ca        1 YBN     -0.134000
     29 H          -0.4160   -1.2190    2.0570 h1        1 YBN      0.043700
     30 HA         -0.5870    0.5440    1.5750 h1        1 YBN      0.043700
     31 HB         -1.0510   -0.7820    0.3880 h1        1 YBN      0.043700
     32 H2          0.9220    0.1970    3.2610 ha        1 YBN      0.136000
     33 H3          2.9870    0.7390    4.5290 ha        1 YBN      0.134000
     34 H4          5.2220    0.6430    3.4100 ha        1 YBN      0.156000
     35 H6          6.3690    0.8880    1.1780 h1        1 YBN      0.074700
     36 H6A         5.6260    0.0670   -0.2970 h1        1 YBN      0.074700
     37 H10         7.6270   -7.0500    1.9560 ha        1 YBN      0.141000
     38 H11         9.7410   -8.1330    2.7210 ha        1 YBN      0.136000
     39 H12        11.6570   -6.7630    3.5020 ha        1 YBN      0.136000
     40 H13        11.4920   -4.2570    3.5460 ha        1 YBN      0.142000
     41 H16        10.3290   -2.7210    4.9000 h1        1 YBN      0.047700
     42 H17        11.9510   -0.3530    3.7140 hc        1 YBN      0.067450
     43 H17A       12.5280   -2.0490    3.9840 hc        1 YBN      0.067450
     44 H18        13.3130   -0.4120    5.7610 h1        1 YBN      0.028200
     45 H18A       12.3990   -1.8560    6.3900 h1        1 YBN      0.028200
     46 H19         9.4130    0.5200    6.8340 h1        1 YBN      0.028200
     47 H19A        9.8140   -1.2330    7.1180 h1        1 YBN      0.028200
     48 H20         8.4590   -1.1030    5.1170 hc        1 YBN      0.067450
     49 H20A        9.4520    0.2160    4.3980 hc        1 YBN      0.067450
     50 H21         3.3070   -0.5520   -0.2880 ha        1 YBN      0.150000
     51 HN         11.7050    0.1990    7.4050 hn        1 YBN      0.363800
@<TRIPOS>BOND
     1    1    3 1   
     2    1   29 1   
     3    1   30 1   
     4    1   31 1   
     5    2   25 1   
     6    2   26 1   
     7    2   51 1   
     8    3    5 1   
     9    4   15 1   
    10    4   16 1   
    11    5    7 ar  
    12    5   28 ar  
    13    6   13 1   
    14    6   14 1   
    15    7    9 ar  
    16    7   32 1   
    17    8   14 2   
    18    9   11 ar  
    19    9   33 1   
    20   10   22 1   
    21   10   23 1   
    22   11   12 ar  
    23   11   34 1   
    24   12   13 1   
    25   12   28 ar  
    26   13   35 1   
    27   13   36 1   
    28   14   15 1   
    29   15   22 2   
    30   16   17 ar  
    31   16   21 ar  
    32   17   18 ar  
    33   17   37 1   
    34   18   19 ar  
    35   18   38 1   
    36   19   20 ar  
    37   19   39 1   
    38   20   21 ar  
    39   20   40 1   
    40   21   22 1   
    41   23   24 1   
    42   23   27 1   
    43   23   41 1   
    44   24   25 1   
    45   24   42 1   
    46   24   43 1   
    47   25   44 1   
    48   25   45 1   
    49   26   27 1   
    50   26   46 1   
    51   26   47 1   
    52   27   48 1   
    53   27   49 1   
    54   28   50 1   
@<TRIPOS>SUBSTRUCTURE
     1 YBN         1 TEMP              0 ****  ****    0 ROOT
