@<TRIPOS>MOLECULE
YBY
   42    42     1     0     0
SMALL
bcc


@<TRIPOS>ATOM
      1 I18         0.8540    1.2560   -0.4810 i         1 YBY     -0.148900
      2 C17         2.3020   -0.0730   -0.0010 ca        1 YBY     -0.028100
      3 C16         3.3090    0.3500    0.8710 ca        1 YBY     -0.087000
      4 C19         2.3340   -1.3920   -0.4820 ca        1 YBY      0.212100
      5 O20         1.3110   -1.8520   -1.2610 oh        1 YBY     -0.514100
      6 C21         3.4300   -2.2300   -0.1740 ca        1 YBY     -0.186000
      7 C22         4.4260   -1.7810    0.6730 ca        1 YBY     -0.101000
      8 C15         4.3440   -0.5040    1.2530 ca        1 YBY     -0.179300
      9 C14         5.3240   -0.0850    2.2870 c3        1 YBY     -0.034100
     10 C13         5.3340   -0.9850    3.5210 c3        1 YBY     -0.041500
     11 C23         6.0120   -0.1670    4.7150 c         1 YBY      0.932600
     12 O25         7.1700    0.2330    4.4950 o         1 YBY     -0.776300
     13 O24         5.3000   -0.0110    5.7440 o         1 YBY     -0.776300
     14 N12         3.9660   -1.4400    3.9410 ny        1 YBY     -0.643800
     15 C11         3.7320   -2.9240    3.7380 c         1 YBY      0.618100
     16 O26         4.5610   -3.6780    4.2770 o         1 YBY     -0.549100
     17 N10         2.5860   -3.3230    3.0980 ns        1 YBY     -0.492900
     18 C6          2.4930   -4.6760    2.5500 c3        1 YBY     -0.053300
     19 C7          1.9670   -4.6230    1.0660 c         1 YBY      0.909600
     20 O9          2.4400   -5.4670    0.2700 o         1 YBY     -0.813800
     21 O8          1.1330   -3.7180    0.7710 o         1 YBY     -0.813800
     22 C5          1.5490   -5.5760    3.3480 c3        1 YBY     -0.072400
     23 C4          2.1760   -6.0420    4.6450 c3        1 YBY     -0.183400
     24 C2          1.1680   -6.6380    5.5780 c         1 YBY      0.630100
     25 O1          1.1480   -7.7830    6.0310 o         1 YBY     -0.507000
     26 O3          0.1410   -5.8590    6.0420 oh        1 YBY     -0.595100
     27 H16         3.2820    1.3750    1.2780 ha        1 YBY      0.139000
     28 HO20        1.1860   -2.8040   -1.0480 ho        1 YBY      0.486000
     29 H21         3.4370   -3.2620   -0.5680 ha        1 YBY      0.183000
     30 H22         5.2810   -2.4320    0.9150 ha        1 YBY      0.140000
     31 H14         5.1240    0.9730    2.6080 hc        1 YBY      0.080200
     32 H14A        6.3710   -0.1040    1.8750 hc        1 YBY      0.080200
     33 H13         5.9630   -1.9000    3.3420 hx        1 YBY      0.105700
     34 HN12        3.2630   -0.8750    3.4620 hn        1 YBY      0.461300
     35 HN10        0.1920   -4.9810    5.6400 ho        1 YBY      0.426000
     36 H6          3.5190   -5.1470    2.5390 h1        1 YBY      0.082700
     37 H5          1.3230   -6.4650    2.6970 hc        1 YBY      0.067200
     38 H5A         0.5790   -5.0480    3.5380 hc        1 YBY      0.067200
     39 H4          2.6820   -5.1870    5.1700 hc        1 YBY      0.084200
     40 H4A         2.9650   -6.8130    4.4300 hc        1 YBY      0.084200
     41 H122        3.9180   -1.2420    4.9690 hn        1 YBY      0.461300
     42 H102        2.0440   -2.6590    2.5710 hn        1 YBY      0.345500
@<TRIPOS>BOND
     1    1    2 1   
     2    2    3 ar  
     3    2    4 ar  
     4    3    8 ar  
     5    3   27 1   
     6    4    5 1   
     7    4    6 ar  
     8    5   28 1   
     9    6    7 ar  
    10    6   29 1   
    11    7    8 ar  
    12    7   30 1   
    13    8    9 1   
    14    9   10 1   
    15    9   31 1   
    16    9   32 1   
    17   10   11 1   
    18   10   14 1   
    19   10   33 1   
    20   11   12 1   
    21   11   13 1   
    22   14   15 1   
    23   14   34 1   
    24   14   41 1   
    25   15   16 2   
    26   15   17 1   
    27   17   18 1   
    28   17   42 1   
    29   18   19 1   
    30   18   22 1   
    31   18   36 1   
    32   19   20 1   
    33   19   21 1   
    34   22   23 1   
    35   22   37 1   
    36   22   38 1   
    37   23   24 1   
    38   23   39 1   
    39   23   40 1   
    40   24   25 2   
    41   24   26 1   
    42   26   35 1   
@<TRIPOS>SUBSTRUCTURE
     1 YBY         1 TEMP              0 ****  ****    0 ROOT
