@<TRIPOS>MOLECULE
YBY
   42    42     1     0     0
SMALL
bcc


@<TRIPOS>ATOM
      1 I18         0.8720    1.2280   -0.5280 i         1 YBY     -0.148900
      2 C17         2.3240   -0.0860   -0.0220 ca        1 YBY     -0.028100
      3 C16         3.3120    0.3470    0.8670 ca        1 YBY     -0.087000
      4 C19         2.3760   -1.4060   -0.4990 ca        1 YBY      0.212100
      5 O20         1.3710   -1.8770   -1.2940 oh        1 YBY     -0.514100
      6 C21         3.4740   -2.2330   -0.1710 ca        1 YBY     -0.186000
      7 C22         4.4520   -1.7740    0.6930 ca        1 YBY     -0.101000
      8 C15         4.3470   -0.4970    1.2680 ca        1 YBY     -0.179300
      9 C14         5.3070   -0.0670    2.3170 c3        1 YBY     -0.034100
     10 C13         5.3030   -0.9630    3.5540 c3        1 YBY     -0.041500
     11 C23         5.9550   -0.1370    4.7570 c         1 YBY      0.932600
     12 O25         7.1140    0.2710    4.5550 o         1 YBY     -0.776300
     13 O24         5.2250    0.0160    5.7740 o         1 YBY     -0.776300
     14 N12         3.9320   -1.4290    3.9520 n4        1 YBY     -0.643800
     15 C11         3.7140   -2.9150    3.7500 c         1 YBY      0.618100
     16 O26         4.5380   -3.6610    4.3070 o         1 YBY     -0.549100
     17 N10         2.5840   -3.3260    3.0890 n         1 YBY     -0.492900
     18 C6          2.5120   -4.6810    2.5440 c3        1 YBY     -0.053300
     19 C7          2.0120   -4.6380    1.0500 c         1 YBY      0.909600
     20 O9          2.5070   -5.4800    0.2660 o         1 YBY     -0.813300
     21 O8          1.1760   -3.7410    0.7380 o         1 YBY     -0.813300
     22 C5          1.5610   -5.5860    3.3280 c3        1 YBY     -0.072400
     23 C4          2.1680   -6.0430    4.6380 c3        1 YBY     -0.183400
     24 C2          1.1470   -6.6430    5.5550 c         1 YBY      0.630100
     25 O1          1.1290   -7.7870    6.0110 o         1 YBY     -0.507000
     26 O3          0.1050   -5.8710    5.9970 oh        1 YBY     -0.595100
     27 H16         3.2690    1.3730    1.2710 ha        1 YBY      0.139000
     28 HO20        1.2500   -2.8300   -1.0820 ho        1 YBY      0.486000
     29 H21         3.4970   -3.2670   -0.5620 ha        1 YBY      0.183000
     30 H22         5.3080   -2.4170    0.9500 ha        1 YBY      0.140000
     31 H14         5.0910    0.9900    2.6330 hc        1 YBY      0.080200
     32 H14A        6.3600   -0.0780    1.9240 hc        1 YBY      0.080200
     33 H13         5.9420   -1.8740    3.3880 hx        1 YBY      0.104700
     34 HN12        3.2330   -0.8710    3.4600 hn        1 YBY      0.461300
     35 HN10        0.1560   -4.9950    5.5920 ho        1 YBY      0.426000
     36 H6          3.5410   -5.1440    2.5530 h1        1 YBY      0.082700
     37 H5          1.3540   -6.4790    2.6770 hc        1 YBY      0.067200
     38 H5A         0.5830   -5.0650    3.4980 hc        1 YBY      0.067200
     39 H4          2.9660   -6.8070    4.4400 hc        1 YBY      0.084200
     40 H4A         2.6570   -5.1810    5.1690 hc        1 YBY      0.084200
     41 H122        3.8660   -1.2280    4.9790 hn        1 YBY      0.461300
     42 H102        2.0470   -2.6680    2.5500 hn        1 YBY      0.345500
@<TRIPOS>BOND
     1    1    2 1   
     2    2    3 ar  
     3    2    4 ar  
     4    3    8 ar  
     5    3   27 1   
     6    4    5 1   
     7    4    6 ar  
     8    5   28 1   
     9    6    7 ar  
    10    6   29 1   
    11    7    8 ar  
    12    7   30 1   
    13    8    9 1   
    14    9   10 1   
    15    9   31 1   
    16    9   32 1   
    17   10   11 1   
    18   10   14 1   
    19   10   33 1   
    20   11   12 1   
    21   11   13 1   
    22   14   15 1   
    23   14   34 1   
    24   14   41 1   
    25   15   16 2   
    26   15   17 1   
    27   17   18 1   
    28   17   42 1   
    29   18   19 1   
    30   18   22 1   
    31   18   36 1   
    32   19   20 1   
    33   19   21 1   
    34   22   23 1   
    35   22   37 1   
    36   22   38 1   
    37   23   24 1   
    38   23   39 1   
    39   23   40 1   
    40   24   25 2   
    41   24   26 1   
    42   26   35 1   
@<TRIPOS>SUBSTRUCTURE
     1 YBY         1 TEMP              0 ****  ****    0 ROOT
