@<TRIPOS>MOLECULE
YBY
   40    40     1     0     0
SMALL
bcc


@<TRIPOS>ATOM
      1 I18        -5.5780    3.9490   -1.3990 i         1 YBY     -0.231900
      2 C17        -4.0580    2.6010   -1.4590 ca        1 YBY     -0.053100
      3 C16        -3.2760    2.4220   -0.3160 ca        1 YBY     -0.065000
      4 C19        -3.7680    1.8530   -2.6110 ca        1 YBY      0.105100
      5 O20        -4.4900    1.9340   -3.7890 oh        1 YBY     -0.522100
      6 C21        -2.6970    0.9470   -2.6210 ca        1 YBY     -0.176000
      7 C22        -1.9370    0.7680   -1.4700 ca        1 YBY     -0.073000
      8 C15        -2.2400    1.4810   -0.3010 ca        1 YBY     -0.061300
      9 C14        -1.4640    1.2330    0.9450 c3        1 YBY     -0.031100
     10 C13        -0.2170    2.1400    1.0290 c3        1 YBY     -0.007300
     11 C23        -0.5440    3.4050    1.8940 c         1 YBY      0.909600
     12 O25         0.4040    4.0210    2.4550 o         1 YBY     -0.853800
     13 O24        -1.7520    3.7810    1.9640 o         1 YBY     -0.853800
     14 N12         0.9380    1.4190    1.5220 n         1 YBY     -0.541900
     15 C11         1.5990    0.5030    0.6690 c         1 YBY      0.729100
     16 O26         1.0070    0.0960   -0.3710 o         1 YBY     -0.710100
     17 N10         2.9110    0.1000    0.9810 n         1 YBY     -0.483900
     18 C6          3.3880   -1.2020    0.5200 c3        1 YBY     -0.047300
     19 C7          3.3030   -2.2910    1.6410 c         1 YBY      0.894600
     20 O9          3.1320   -3.4930    1.2850 o         1 YBY     -0.864300
     21 O8          3.4060   -1.9380    2.8540 o         1 YBY     -0.864300
     22 C5          4.8500   -1.1510    0.0400 c3        1 YBY     -0.043400
     23 C4          5.0480   -0.4050   -1.2580 c3        1 YBY     -0.174400
     24 C2          6.4860   -0.4780   -1.7800 c         1 YBY      0.901600
     25 O1          7.4440   -0.0350   -1.0740 o         1 YBY     -0.886300
     26 O3          6.6880   -0.9460   -2.9460 o         1 YBY     -0.886300
     27 H16        -3.4170    3.0400    0.5940 ha        1 YBY      0.199000
     28 HO20       -5.1070    2.6750   -3.7020 ho        1 YBY      0.404000
     29 H21        -2.4690    0.3960   -3.5430 ha        1 YBY      0.134000
     30 H22        -1.0620    0.0870   -1.4640 ha        1 YBY      0.195000
     31 H14        -2.1120    1.4370    1.8390 hc        1 YBY      0.060200
     32 H14A       -1.1600    0.1520    0.9660 hc        1 YBY      0.060200
     33 H13         0.0000    2.5240   -0.0140 h1        1 YBY      0.033700
     34 HN12        1.4940    1.9580    2.1520 hn        1 YBY      0.310500
     35 HN10        3.1860    0.2520    1.9350 hn        1 YBY      0.290500
     36 H6          2.7410   -1.5370   -0.3410 h1        1 YBY      0.070700
     37 H5          5.5030   -0.6990    0.8300 hc        1 YBY      0.041700
     38 H5A         5.1730   -2.2180   -0.0920 hc        1 YBY      0.041700
     39 H4          4.3600   -0.8190   -2.0400 hc        1 YBY      0.023700
     40 H4A         4.7900    0.6750   -1.1150 hc        1 YBY      0.023700
@<TRIPOS>BOND
     1    1    2 1   
     2    2    3 ar  
     3    2    4 ar  
     4    3    8 ar  
     5    3   27 1   
     6    4    5 1   
     7    4    6 ar  
     8    5   28 1   
     9    6    7 ar  
    10    6   29 1   
    11    7    8 ar  
    12    7   30 1   
    13    8    9 1   
    14    9   10 1   
    15    9   31 1   
    16    9   32 1   
    17   10   11 1   
    18   10   14 1   
    19   10   33 1   
    20   11   12 1   
    21   11   13 1   
    22   14   15 1   
    23   14   34 1   
    24   15   16 2   
    25   15   17 1   
    26   17   18 1   
    27   17   35 1   
    28   18   19 1   
    29   18   22 1   
    30   18   36 1   
    31   19   20 1   
    32   19   21 1   
    33   22   23 1   
    34   22   37 1   
    35   22   38 1   
    36   23   24 1   
    37   23   39 1   
    38   23   40 1   
    39   24   25 1   
    40   24   26 1   
@<TRIPOS>SUBSTRUCTURE
     1 YBY         1 TEMP              0 ****  ****    0 ROOT
