@<TRIPOS>MOLECULE
YC2
   52    50     1     0     0
SMALL
bcc


@<TRIPOS>ATOM
      1 I24        -5.5970   -8.6680   -3.7920 i         1 YC2      0.111000
      2 C23        -4.7950   -6.7270   -3.6260 c2        1 YC2     -0.253000
      3 C22        -3.9270   -6.2490   -4.5980 c2        1 YC2     -0.116000
      4 C21        -3.3920   -4.9640   -4.4850 c1        1 YC2     -0.091000
      5 C25        -5.1320   -5.9270   -2.5400 c1        1 YC2     -0.104000
      6 C26        -4.5930   -4.6330   -2.4260 c1        1 YC2     -0.106000
      7 C20        -3.7300   -4.1580   -3.3920 c1        1 YC2     -0.086000
      8 C19        -3.1990   -2.7390   -3.3040 c2        1 YC2      0.328000
      9 O27        -2.4760   -2.3020   -4.1880 o         1 YC2     -0.386000
     10 N18        -3.5070   -1.9180   -2.1490 n         1 YC2     -0.352000
     11 C17        -3.1730   -0.5130   -2.1600 c3        1 YC2     -0.036000
     12 C16        -2.6900   -0.0820   -0.7590 c3        1 YC2     -0.175000
     13 C15        -1.8740    1.2260   -0.8830 c3        1 YC2     -0.157000
     14 C14        -1.4530    1.7130    0.5410 c3        1 YC2     -0.176000
     15 C13        -0.2080    2.5850    0.4330 c3        1 YC2     -0.039000
     16 C28        -0.6140    4.0250    0.3710 c2        1 YC2      0.332000
     17 O30        -1.1610    4.5640    1.3610 o         1 YC2     -0.593000
     18 O29        -0.3530    4.7060   -0.6470 o         1 YC2     -0.593000
     19 N12         0.6190    2.3760    1.5690 n         1 YC2     -0.341000
     20 C11         2.0430    2.7060    1.5030 c2        1 YC2      0.350000
     21 O31         2.4730    3.3190    0.5640 o         1 YC2     -0.457000
     22 N10         2.9150    2.3740    2.6100 n         1 YC2     -0.316000
     23 C6          4.3510    2.3860    2.4260 c3        1 YC2     -0.067000
     24 C7          4.7710    1.1460    1.6990 c2        1 YC2      0.318000
     25 O9          4.4880    0.0040    2.1780 o         1 YC2     -0.598500
     26 O8          5.4770    1.2370    0.6360 o         1 YC2     -0.598500
     27 C5          5.0220    2.4340    3.7600 c3        1 YC2     -0.120000
     28 C4          6.4970    2.8600    3.5820 c3        1 YC2     -0.203000
     29 C2          7.2580    2.5800    4.8530 c2        1 YC2      0.321000
     30 O1          7.4530    3.5010    5.6800 o         1 YC2     -0.624000
     31 O3          7.7650    1.4470    5.0450 o         1 YC2     -0.624000
     32 H22        -3.6830   -6.8140   -5.3540 ha        1 YC2      0.135000
     33 H21        -2.8220   -4.6080   -5.1960 ha        1 YC2      0.157000
     34 H25        -5.6670   -6.2920   -1.8200 ha        1 YC2      0.146000
     35 H26        -4.8280   -4.0730   -1.6670 ha        1 YC2      0.156000
     36 HN18       -3.9840   -2.2730   -1.4430 hn        1 YC2      0.224000
     37 H17        -2.4520   -0.3510   -2.8220 h1        1 YC2      0.099500
     38 H17A       -3.9680    0.0110   -2.4070 h1        1 YC2      0.099500
     39 H16        -3.4720    0.0690   -0.1700 hc        1 YC2      0.078500
     40 H16A       -2.1190   -0.7910   -0.3740 hc        1 YC2      0.078500
     41 H15        -1.0590    1.0590   -1.4330 hc        1 YC2      0.099500
     42 H15A       -2.4290    1.9220   -1.3190 hc        1 YC2      0.099500
     43 H14        -1.2590    0.9360    1.1070 hc        1 YC2      0.082500
     44 H14A       -2.1990    2.2440    0.9470 hc        1 YC2      0.082500
     45 H13         0.2770    2.3540   -0.3610 h1        1 YC2      0.097000
     46 HN12        0.2530    2.0680    2.3560 hn        1 YC2      0.208000
     47 HN10        2.5660    2.2600    3.4440 hn        1 YC2      0.206000
     48 H6          4.6090    3.1790    1.9000 h1        1 YC2      0.109000
     49 H5          4.5590    3.0860    4.3360 hc        1 YC2      0.073500
     50 H5A         4.9850    1.5390    4.1800 hc        1 YC2      0.073500
     51 H4          6.5360    3.8100    3.3840 hc        1 YC2      0.073000
     52 H4A         6.8960    2.3570    2.8460 hc        1 YC2      0.073000
@<TRIPOS>BOND
     1    1    2 1   
     2    2    3 1   
     3    2    5 1   
     4    3    4 1   
     5    3   32 1   
     6    4   33 1   
     7    5   34 1   
     8    6    7 1   
     9    6   35 1   
    10    7    8 1   
    11    8    9 1   
    12    8   10 1   
    13   10   11 1   
    14   10   36 1   
    15   11   12 1   
    16   11   37 1   
    17   11   38 1   
    18   12   13 1   
    19   12   39 1   
    20   12   40 1   
    21   13   14 1   
    22   13   41 1   
    23   13   42 1   
    24   14   15 1   
    25   14   43 1   
    26   14   44 1   
    27   15   16 1   
    28   15   19 1   
    29   15   45 1   
    30   16   17 1   
    31   16   18 1   
    32   19   20 1   
    33   19   46 1   
    34   20   21 1   
    35   20   22 1   
    36   22   23 1   
    37   22   47 1   
    38   23   24 1   
    39   23   27 1   
    40   23   48 1   
    41   24   25 1   
    42   24   26 1   
    43   27   28 1   
    44   27   49 1   
    45   27   50 1   
    46   28   29 1   
    47   28   51 1   
    48   28   52 1   
    49   29   30 1   
    50   29   31 1   
@<TRIPOS>SUBSTRUCTURE
     1 YC2         1 TEMP              0 ****  ****    0 ROOT
