@<TRIPOS>MOLECULE
YC2
   55    55     1     0     0
SMALL
bcc


@<TRIPOS>ATOM
      1 I24         4.0520   -4.5500   -2.3600 i         1 YC2     -0.101900
      2 C23         4.8000   -2.7050   -2.0230 ca        1 YC2      0.072900
      3 C22         3.9350   -1.6350   -1.7790 ca        1 YC2     -0.111000
      4 C21         4.4470   -0.3630   -1.5460 ca        1 YC2     -0.066000
      5 C25         6.1790   -2.4940   -2.0320 ca        1 YC2     -0.111000
      6 C26         6.7070   -1.2230   -1.8010 ca        1 YC2     -0.066000
      7 C20         5.8370   -0.1500   -1.5570 ca        1 YC2     -0.188600
      8 C19         6.2990    1.2230   -1.3020 c         1 YC2      0.570700
      9 O27         5.5890    2.1940   -1.0470 o         1 YC2     -0.471100
     10 N18         7.7700    1.4430   -1.3650 ny        1 YC2     -0.696800
     11 C17         8.2190    2.8410   -1.1130 c3        1 YC2      0.125800
     12 C16         9.7180    3.0090   -1.3370 c3        1 YC2     -0.111400
     13 C15        10.5580    2.3530   -0.2580 c3        1 YC2     -0.085400
     14 C14        11.8680    1.8110   -0.7920 c3        1 YC2     -0.111400
     15 C13        11.7690    0.5430   -1.6580 c3        1 YC2      0.027500
     16 C28        10.3180    0.0050   -1.7480 c         1 YC2      0.899600
     17 O30         9.7700   -0.4660   -0.7140 o         1 YC2     -0.826800
     18 O29         9.6950    0.0910   -2.8530 o         1 YC2     -0.826800
     19 N12        12.2970    0.7560   -3.0470 ny        1 YC2     -0.678800
     20 C11        13.7750    0.4890   -3.2180 c         1 YC2      0.641100
     21 O31        14.0590   -0.3430   -4.0920 o         1 YC2     -0.525100
     22 N10        14.6590    1.1200   -2.3620 ns        1 YC2     -0.486900
     23 C6         15.9730    1.4890   -2.8740 c3        1 YC2     -0.002300
     24 C7         16.8970    1.7400   -1.6760 c         1 YC2      0.632100
     25 O9         17.8890    1.0650   -1.4080 o         1 YC2     -0.486000
     26 O8         16.6450    2.7700   -0.8330 oh        1 YC2     -0.586100
     27 C5         16.0400    2.7350   -3.7850 c3        1 YC2     -0.099400
     28 C4         14.7220    3.2310   -4.3280 c3        1 YC2     -0.202400
     29 C2         13.7330    3.6240   -3.2390 c         1 YC2      0.894600
     30 O1         12.4860    3.5510   -3.4980 o         1 YC2     -0.850800
     31 O3         14.1400    3.9100   -2.0730 o         1 YC2     -0.850800
     32 H22         2.8430   -1.7870   -1.7680 ha        1 YC2      0.165000
     33 H21         3.7670    0.4840   -1.3530 ha        1 YC2      0.181500
     34 H25         6.8750   -3.3300   -2.2220 ha        1 YC2      0.165000
     35 H26         7.8120   -1.1090   -1.8170 ha        1 YC2      0.181500
     36 HN18        8.1180    1.1330   -2.3020 hn        1 YC2      0.502300
     37 H17         7.9420    3.1090   -0.0550 hx        1 YC2      0.093200
     38 H17A        7.6480    3.5170   -1.8110 hx        1 YC2      0.093200
     39 H16         9.9300    4.1120   -1.3620 hc        1 YC2      0.093200
     40 H16A       10.0090    2.6120   -2.3500 hc        1 YC2      0.093200
     41 H15         9.9980    1.5390    0.2730 hc        1 YC2      0.060700
     42 H15A       10.8090    3.1250    0.5220 hc        1 YC2      0.060700
     43 H14        12.5180    1.5550    0.0880 hc        1 YC2      0.097700
     44 H14A       12.3730    2.6620   -1.3440 hc        1 YC2      0.097700
     45 H13        12.3900   -0.2730   -1.1830 hx        1 YC2      0.104700
     46 HN12       11.7810    0.1310   -3.6880 hn        1 YC2      0.495300
     47 HN10       14.2760    1.8000   -1.7190 hn        1 YC2      0.347500
     48 H6         16.3740    0.5950   -3.4420 h1        1 YC2      0.114700
     49 H5         16.5130    3.5820   -3.2150 hc        1 YC2      0.066200
     50 H5A        16.7210    2.4830   -4.6400 hc        1 YC2      0.066200
     51 H4         14.2500    2.4550   -4.9860 hc        1 YC2      0.060700
     52 H4A        14.9080    4.1370   -4.9630 hc        1 YC2      0.060700
     53 H182        8.2310    0.8020   -0.6800 hn        1 YC2      0.502300
     54 H122       12.1030    1.7500   -3.3410 hn        1 YC2      0.495300
     55 H102       15.8990    3.3180   -1.1520 ho        1 YC2      0.479000
@<TRIPOS>BOND
     1    1    2 1   
     2    2    3 ar  
     3    2    5 ar  
     4    3    4 ar  
     5    3   32 1   
     6    4    7 ar  
     7    4   33 1   
     8    5    6 ar  
     9    5   34 1   
    10    6    7 ar  
    11    6   35 1   
    12    7    8 1   
    13    8    9 2   
    14    8   10 1   
    15   10   11 1   
    16   10   36 1   
    17   10   53 1   
    18   11   12 1   
    19   11   37 1   
    20   11   38 1   
    21   12   13 1   
    22   12   39 1   
    23   12   40 1   
    24   13   14 1   
    25   13   41 1   
    26   13   42 1   
    27   14   15 1   
    28   14   43 1   
    29   14   44 1   
    30   15   16 1   
    31   15   19 1   
    32   15   45 1   
    33   16   17 1   
    34   16   18 1   
    35   19   20 1   
    36   19   46 1   
    37   19   54 1   
    38   20   21 2   
    39   20   22 1   
    40   22   23 1   
    41   22   47 1   
    42   23   24 1   
    43   23   27 1   
    44   23   48 1   
    45   24   25 2   
    46   24   26 1   
    47   26   55 1   
    48   27   28 1   
    49   27   49 1   
    50   27   50 1   
    51   28   29 1   
    52   28   51 1   
    53   28   52 1   
    54   29   30 1   
    55   29   31 1   
@<TRIPOS>SUBSTRUCTURE
     1 YC2         1 TEMP              0 ****  ****    0 ROOT
