@<TRIPOS>MOLECULE
YC2
   55    55     1     0     0
SMALL
bcc


@<TRIPOS>ATOM
      1 I24         5.2340    4.5610    0.8510 i         1 YC2     -0.101900
      2 C23         6.1950    2.8360    0.4260 ca        1 YC2      0.071900
      3 C22         5.4780    1.6400    0.3400 ca        1 YC2     -0.111000
      4 C21         6.1370    0.4500    0.0490 ca        1 YC2     -0.066000
      5 C25         7.5750    2.8350    0.2190 ca        1 YC2     -0.111000
      6 C26         8.2460    1.6480   -0.0770 ca        1 YC2     -0.066000
      7 C20         7.5270    0.4500   -0.1660 ca        1 YC2     -0.182600
      8 C19         8.1510   -0.8490   -0.4620 c         1 YC2      0.568700
      9 O27         7.6130   -1.9440   -0.2990 o         1 YC2     -0.475100
     10 N18         9.5430   -0.8300   -0.9960 n4        1 YC2     -0.693800
     11 C17        10.0010   -2.1020   -1.6230 c3        1 YC2      0.112800
     12 C16         9.9750   -2.0670   -3.1480 c3        1 YC2     -0.098400
     13 C15        11.1100   -1.2420   -3.7220 c3        1 YC2     -0.107400
     14 C14        10.6750   -0.4390   -4.9290 c3        1 YC2     -0.082400
     15 C13        11.7670    0.4850   -5.4420 c3        1 YC2     -0.056500
     16 C28        11.3770    1.0060   -6.9110 c         1 YC2      0.934600
     17 O30        10.9700    0.1290   -7.6910 o         1 YC2     -0.765800
     18 O29        11.5470    2.2390   -7.1020 o         1 YC2     -0.765800
     19 N12        12.0070    1.6690   -4.5580 n4        1 YC2     -0.652800
     20 C11        13.1150    1.5150   -3.5480 c         1 YC2      0.634100
     21 O31        13.8310    0.5110   -3.6140 o         1 YC2     -0.492100
     22 N10        13.3100    2.5500   -2.6050 n         1 YC2     -0.474900
     23 C6         13.1240    2.1090   -1.2210 c3        1 YC2     -0.026300
     24 C7         11.7760    1.3940   -0.9980 c         1 YC2      0.886600
     25 O9         11.5550    0.7690    0.0780 o         1 YC2     -0.857800
     26 O8         10.8960    1.4060   -1.9250 o         1 YC2     -0.857800
     27 C5         13.2200    3.2660   -0.2230 c3        1 YC2     -0.069400
     28 C4         14.5060    4.0530   -0.3450 c3        1 YC2     -0.174400
     29 C2         14.4210    5.1320   -1.3840 c         1 YC2      0.633100
     30 O1         15.5230    5.9040   -1.6200 oh        1 YC2     -0.572100
     31 O3         13.4480    5.4400   -2.0760 o         1 YC2     -0.510000
     32 H22         4.3880    1.6260    0.5030 ha        1 YC2      0.163500
     33 H21         5.5740   -0.4960   -0.0130 ha        1 YC2      0.177000
     34 H25         8.1530    3.7720    0.2850 ha        1 YC2      0.163500
     35 H26         9.3430    1.6870   -0.2320 ha        1 YC2      0.177000
     36 HN18       10.1940   -0.5630   -0.2170 hn        1 YC2      0.506800
     37 H17         9.3540   -2.9480   -1.2520 hx        1 YC2      0.100200
     38 H17A       11.0570   -2.2820   -1.2720 hx        1 YC2      0.100200
     39 H16         8.9840   -1.6880   -3.5140 hc        1 YC2      0.071200
     40 H16A       10.0630   -3.1290   -3.5030 hc        1 YC2      0.071200
     41 H15        11.9580   -1.9180   -4.0130 hc        1 YC2      0.056700
     42 H15A       11.5180   -0.5420   -2.9410 hc        1 YC2      0.056700
     43 H14        10.4200   -1.1260   -5.7850 hc        1 YC2      0.077700
     44 H14A        9.7470    0.1470   -4.6900 hc        1 YC2      0.077700
     45 H13        12.7350   -0.0790   -5.5510 hx        1 YC2      0.108700
     46 HN12       12.2060    2.4650   -5.2080 hn        1 YC2      0.479300
     47 HN10       16.2600    5.6070   -1.0690 ho        1 YC2      0.427000
     48 H6         13.9430    1.3590   -1.0050 h1        1 YC2      0.097700
     49 H5         12.3430    3.9550   -0.3540 hc        1 YC2      0.079700
     50 H5A        13.1510    2.8090    0.8000 hc        1 YC2      0.079700
     51 H4         14.7390    4.5430    0.6400 hc        1 YC2      0.079700
     52 H4A        15.3600    3.3710   -0.6020 hc        1 YC2      0.079700
     53 H182        9.6370   -0.0470   -1.6880 hn        1 YC2      0.506800
     54 H122       11.1430    1.8750   -4.0340 hn        1 YC2      0.479300
     55 H102       12.8090    3.4030   -2.7960 hn        1 YC2      0.311500
@<TRIPOS>BOND
     1    1    2 1   
     2    2    3 ar  
     3    2    5 ar  
     4    3    4 ar  
     5    3   32 1   
     6    4    7 ar  
     7    4   33 1   
     8    5    6 ar  
     9    5   34 1   
    10    6    7 ar  
    11    6   35 1   
    12    7    8 1   
    13    8    9 2   
    14    8   10 1   
    15   10   11 1   
    16   10   36 1   
    17   10   53 1   
    18   11   12 1   
    19   11   37 1   
    20   11   38 1   
    21   12   13 1   
    22   12   39 1   
    23   12   40 1   
    24   13   14 1   
    25   13   41 1   
    26   13   42 1   
    27   14   15 1   
    28   14   43 1   
    29   14   44 1   
    30   15   16 1   
    31   15   19 1   
    32   15   45 1   
    33   16   17 1   
    34   16   18 1   
    35   19   20 1   
    36   19   46 1   
    37   19   54 1   
    38   20   21 2   
    39   20   22 1   
    40   22   23 1   
    41   22   55 1   
    42   23   24 1   
    43   23   27 1   
    44   23   48 1   
    45   24   25 1   
    46   24   26 1   
    47   27   28 1   
    48   27   49 1   
    49   27   50 1   
    50   28   29 1   
    51   28   51 1   
    52   28   52 1   
    53   29   30 1   
    54   29   31 2   
    55   30   47 1   
@<TRIPOS>SUBSTRUCTURE
     1 YC2         1 TEMP              0 ****  ****    0 ROOT
