@<TRIPOS>MOLECULE
YC2
   52    52     1     0     0
SMALL
bcc


@<TRIPOS>ATOM
      1 I24        -3.9560    5.1800   -0.7230 i         1 YC2     -0.226900
      2 C23        -3.1600    3.4280   -0.0760 ca        1 YC2      0.033900
      3 C22        -1.7810    3.2530   -0.0210 ca        1 YC2     -0.130500
      4 C21        -1.2360    2.0430    0.4260 ca        1 YC2     -0.090500
      5 C25        -4.0150    2.3960    0.3170 ca        1 YC2     -0.130500
      6 C26        -3.4800    1.1930    0.7640 ca        1 YC2     -0.090500
      7 C20        -2.0910    1.0080    0.8190 ca        1 YC2     -0.109600
      8 C19        -1.5930   -0.3140    1.3260 c         1 YC2      0.655700
      9 O27        -2.3570   -1.0240    2.0370 o         1 YC2     -0.711100
     10 N18        -0.3480   -0.7140    0.9600 n         1 YC2     -0.521900
     11 C17         0.2530   -1.9300    1.4480 c3        1 YC2      0.095000
     12 C16         1.1670   -2.5960    0.4170 c3        1 YC2     -0.095400
     13 C15         2.1240   -3.5500    1.1010 c3        1 YC2     -0.076400
     14 C14         2.9550   -4.3470    0.1170 c3        1 YC2     -0.070400
     15 C13         4.3550   -3.7560   -0.1430 c3        1 YC2     -0.012300
     16 C28         5.1240   -4.8080   -1.0120 c         1 YC2      0.903600
     17 O30         5.4550   -5.8860   -0.4350 o         1 YC2     -0.857800
     18 O29         5.3700   -4.5660   -2.2280 o         1 YC2     -0.857800
     19 N12         4.3010   -2.4450   -0.7440 n         1 YC2     -0.555900
     20 C11         4.4230   -1.2810    0.0280 c         1 YC2      0.736100
     21 O31         4.5530   -1.3610    1.2800 o         1 YC2     -0.692100
     22 N10         4.4390   -0.0220   -0.6350 n         1 YC2     -0.482900
     23 C6          3.9270    1.1290    0.1020 c3        1 YC2     -0.026300
     24 C7          2.3810    1.2030    0.1300 c         1 YC2      0.882600
     25 O9          1.8040    1.8570    1.0520 o         1 YC2     -0.874300
     26 O8          1.6840    0.6000   -0.7510 o         1 YC2     -0.874300
     27 C5          4.4510    2.4610   -0.4690 c3        1 YC2     -0.046400
     28 C4          5.9260    2.6830   -0.2350 c3        1 YC2     -0.176400
     29 C2          6.4140    4.0450   -0.7380 c         1 YC2      0.902600
     30 O1          6.1440    4.4200   -1.9200 o         1 YC2     -0.881800
     31 O3          7.1230    4.7570    0.0410 o         1 YC2     -0.881800
     32 H22        -1.0910    4.0560   -0.3290 ha        1 YC2      0.133000
     33 H21        -0.1170    1.9360    0.4630 ha        1 YC2      0.200500
     34 H25        -5.1060    2.5250    0.2780 ha        1 YC2      0.133000
     35 H26        -4.1390    0.3720    1.0890 ha        1 YC2      0.200500
     36 HN18        0.2600   -0.0980    0.4300 hn        1 YC2      0.393500
     37 H17         0.8610   -1.6830    2.3680 h1        1 YC2      0.036200
     38 H17A       -0.5590   -2.6470    1.7580 h1        1 YC2      0.036200
     39 H16         0.5430   -3.1440   -0.3350 hc        1 YC2      0.062700
     40 H16A        1.7560   -1.8120   -0.1400 hc        1 YC2      0.062700
     41 H15         2.8060   -2.9620    1.7750 hc        1 YC2      0.031700
     42 H15A        1.5350   -4.2560    1.7460 hc        1 YC2      0.031700
     43 H14         3.1260   -5.3800    0.5220 hc        1 YC2      0.033700
     44 H14A        2.4090   -4.4530   -0.8560 hc        1 YC2      0.033700
     45 H13         4.8900   -3.6870    0.8500 h1        1 YC2      0.059700
     46 HN12        4.5400   -2.4230   -1.7110 hn        1 YC2      0.316500
     47 HN10        4.0450   -0.0460   -1.5560 hn        1 YC2      0.274500
     48 H6          4.2770    1.0350    1.1720 h1        1 YC2      0.081700
     49 H5          4.2370    2.5280   -1.5670 hc        1 YC2      0.044700
     50 H5A         3.8670    3.2750    0.0370 hc        1 YC2      0.044700
     51 H4          6.1530    2.5990    0.8590 hc        1 YC2      0.026200
     52 H4A         6.5170    1.8940   -0.7660 hc        1 YC2      0.026200
@<TRIPOS>BOND
     1    1    2 1   
     2    2    3 ar  
     3    2    5 ar  
     4    3    4 ar  
     5    3   32 1   
     6    4    7 ar  
     7    4   33 1   
     8    5    6 ar  
     9    5   34 1   
    10    6    7 ar  
    11    6   35 1   
    12    7    8 1   
    13    8    9 2   
    14    8   10 1   
    15   10   11 1   
    16   10   36 1   
    17   11   12 1   
    18   11   37 1   
    19   11   38 1   
    20   12   13 1   
    21   12   39 1   
    22   12   40 1   
    23   13   14 1   
    24   13   41 1   
    25   13   42 1   
    26   14   15 1   
    27   14   43 1   
    28   14   44 1   
    29   15   16 1   
    30   15   19 1   
    31   15   45 1   
    32   16   17 1   
    33   16   18 1   
    34   19   20 1   
    35   19   46 1   
    36   20   21 2   
    37   20   22 1   
    38   22   23 1   
    39   22   47 1   
    40   23   24 1   
    41   23   27 1   
    42   23   48 1   
    43   24   25 1   
    44   24   26 1   
    45   27   28 1   
    46   27   49 1   
    47   27   50 1   
    48   28   29 1   
    49   28   51 1   
    50   28   52 1   
    51   29   30 1   
    52   29   31 1   
@<TRIPOS>SUBSTRUCTURE
     1 YC2         1 TEMP              0 ****  ****    0 ROOT
