@<TRIPOS>MOLECULE
YCF
   62    63     1     0     0
SMALL
bcc


@<TRIPOS>ATOM
      1 NAA         0.0340    0.7050    0.0300 n2        1 YCF     -0.635100
      2 NAB         0.9540   -1.0220    1.5980 n4        1 YCF     -0.557500
      3 NAC         1.7800   -0.7330   -0.8330 n4        1 YCF     -0.403600
      4 NAD         1.3910   -0.5940   -2.1730 n2        1 YCF     -0.530900
      5 NAE         0.5550   -0.1770   -8.5510 n4        1 YCF     -0.507200
      6 NAF        -0.4240    1.1410  -10.5730 n4        1 YCF     -0.507200
      7 NAG         0.7750    3.3790  -16.6100 n2        1 YCF     -0.530900
      8 NAH         1.2800    3.8280  -17.8490 n4        1 YCF     -0.403600
      9 NAI         0.7040    2.7550  -19.9420 n2        1 YCF     -0.201200
     10 NAJ        -0.9110    4.4360  -18.9890 n4        1 YCF     -0.791600
     11 CAK         0.8300   -0.2500    0.2600 c2        1 YCF      0.523100
     12 CAL         1.5380    0.4960   -2.8980 ce        1 YCF      0.584900
     13 CAM         1.9750    1.8510   -2.4660 c3        1 YCF     -0.241400
     14 CAN         1.2430    0.3690   -4.3620 ca        1 YCF     -0.102400
     15 CAO        -0.0320    0.0270   -4.8300 ca        1 YCF     -0.055250
     16 CAP        -0.2820   -0.0810   -6.2020 ca        1 YCF     -0.072250
     17 CAQ         0.7700    0.1260   -7.1160 ca        1 YCF     -0.056400
     18 CAR         2.0490    0.4970   -6.6560 ca        1 YCF     -0.072250
     19 CAS         2.2750    0.6140   -5.2820 ca        1 YCF     -0.055250
     20 CAT         0.6070    1.0190   -9.4730 c         1 YCF      0.477100
     21 CAU         0.1260    1.4940  -11.9030 ca        1 YCF     -0.056400
     22 CAV         0.2380    0.4960  -12.8950 ca        1 YCF     -0.072250
     23 CAW         0.6350    0.8530  -14.1840 ca        1 YCF     -0.055250
     24 CAX         0.9260    2.1900  -14.5020 ca        1 YCF     -0.102400
     25 CAY         0.8120    3.1740  -13.5120 ca        1 YCF     -0.055250
     26 CAZ         0.4260    2.8350  -12.2100 ca        1 YCF     -0.072250
     27 CBA         1.4450    2.5220  -15.8650 ce        1 YCF      0.584900
     28 CBB         2.7310    1.8440  -16.2080 c3        1 YCF     -0.241400
     29 CBC         0.3300    3.6300  -19.0030 c2        1 YCF      0.523100
     30 OBD         1.4640    1.8710   -9.3370 o         1 YCF     -0.268100
     31 OBE         2.1380   -1.6740    1.6210 oh        1 YCF     -0.399300
     32 OBF        -0.0550    2.5930  -20.9420 oh        1 YCF     -0.251500
     33 HNAA       -0.6230    1.1120    0.6740 hn        1 YCF      0.555400
     34 HNAB        0.1620   -1.7050    1.6660 hn        1 YCF      0.516300
     35 HNAC        2.7040   -0.3000   -0.6160 hn        1 YCF      0.505300
     36 HNAE        1.3320   -0.8090   -8.8430 hn        1 YCF      0.505300
     37 HNAF       -0.9810    0.2770  -10.6830 hn        1 YCF      0.505300
     38 HNAH        2.1970    3.4040  -18.1240 hn        1 YCF      0.505300
     39 HNAJ       -0.6980    5.4330  -19.1690 hn        1 YCF      0.508133
     40 HNAD       -1.5420    4.1060  -19.7500 hn        1 YCF      0.508133
     41 HAM         2.5020    2.3910   -3.2970 hc        1 YCF      0.122033
     42 HAMA        1.0680    2.4630   -2.1950 hc        1 YCF      0.122033
     43 HAMB        2.6630    1.8350   -1.5830 hc        1 YCF      0.122033
     44 HAO        -0.8640   -0.1660   -4.1260 ha        1 YCF      0.204000
     45 HAP        -1.3030   -0.3590   -6.5240 ha        1 YCF      0.191000
     46 HAR         2.8880    0.6950   -7.3490 ha        1 YCF      0.191000
     47 HAS         3.2910    0.8910   -4.9390 ha        1 YCF      0.204000
     48 HAV         0.0040   -0.5660  -12.6960 ha        1 YCF      0.191000
     49 HAW         0.7130    0.0580  -14.9520 ha        1 YCF      0.204000
     50 HAY         1.0310    4.2360  -13.7330 ha        1 YCF      0.204000
     51 HAZ         0.3620    3.6390  -11.4530 ha        1 YCF      0.191000
     52 HBB         3.5860    2.5750  -16.1720 hc        1 YCF      0.122033
     53 HBBA        2.7040    1.3700  -17.2250 hc        1 YCF      0.122033
     54 HBBB        2.9700    1.0290  -15.4740 hc        1 YCF      0.122033
     55 HOBE        2.2900   -2.0820    2.5220 ho        1 YCF      0.552000
     56 HOBF        0.4050    1.9580  -21.5840 ho        1 YCF      0.582000
     57 HAB2        0.8930   -0.3350    2.3870 hn        1 YCF      0.516300
     58 HAC2        1.8740   -1.7760   -0.7400 hn        1 YCF      0.505300
     59 HAE2       -0.3370   -0.6920   -8.6340 hn        1 YCF      0.505300
     60 HAF2       -1.0660    1.9130  -10.2920 hn        1 YCF      0.505300
     61 HAH2        1.4310    4.8560  -17.7420 hn        1 YCF      0.505300
     62 HAJ3       -1.4110    4.3420  -18.0930 hn        1 YCF      0.508133
@<TRIPOS>BOND
     1    1   11 2   
     2    1   33 1   
     3    2   11 1   
     4    2   31 1   
     5    2   34 1   
     6    2   57 1   
     7    3    4 1   
     8    3   11 1   
     9    3   35 1   
    10    3   58 1   
    11    4   12 2   
    12    5   17 1   
    13    5   20 1   
    14    5   36 1   
    15    5   59 1   
    16    6   20 1   
    17    6   21 1   
    18    6   37 1   
    19    6   60 1   
    20    7    8 1   
    21    7   27 2   
    22    8   29 1   
    23    8   38 1   
    24    8   61 1   
    25    9   29 2   
    26    9   32 1   
    27   10   29 1   
    28   10   39 1   
    29   10   40 1   
    30   10   62 1   
    31   12   13 1   
    32   12   14 1   
    33   13   41 1   
    34   13   42 1   
    35   13   43 1   
    36   14   15 ar  
    37   14   19 ar  
    38   15   16 ar  
    39   15   44 1   
    40   16   17 ar  
    41   16   45 1   
    42   17   18 ar  
    43   18   19 ar  
    44   18   46 1   
    45   19   47 1   
    46   20   30 2   
    47   21   22 ar  
    48   21   26 ar  
    49   22   23 ar  
    50   22   48 1   
    51   23   24 ar  
    52   23   49 1   
    53   24   25 ar  
    54   24   27 1   
    55   25   26 ar  
    56   25   50 1   
    57   26   51 1   
    58   27   28 1   
    59   28   52 1   
    60   28   53 1   
    61   28   54 1   
    62   31   55 1   
    63   32   56 1   
@<TRIPOS>SUBSTRUCTURE
     1 YCF         1 TEMP              0 ****  ****    0 ROOT
