@<TRIPOS>MOLECULE
YCF
   56    49     1     0     0
SMALL
bcc


@<TRIPOS>ATOM
      1 NAA        -3.4210    6.6670   -1.1620 n1        1 YCF     -0.300000
      2 NAB        -2.7740    8.7080   -2.1700 n3        1 YCF     -0.142000
      3 NAC        -1.1260    7.1820   -1.1670 n3        1 YCF     -0.201000
      4 NAD        -0.7010    5.8600   -1.1540 n2        1 YCF     -0.084000
      5 NAE         2.4670    0.1750   -1.6030 n         1 YCF     -0.319000
      6 NAF         2.4000   -2.2200   -0.9960 n         1 YCF     -0.320000
      7 NAG        -0.7580   -6.4990    2.6710 n1        1 YCF     -0.066000
      8 NAH        -1.1130   -5.1930    3.0090 n2        1 YCF     -0.196000
      9 NAI        -3.4860   -5.4090    3.1770 n1        1 YCF     -0.185000
     10 NAJ        -2.3890   -4.1340    4.8540 n3        1 YCF     -0.334000
     11 CAK        -2.4660    7.4890   -1.4930 c2        1 YCF      0.130000
     12 CAL         0.5400    5.5720   -1.4280 c1        1 YCF     -0.045000
     13 CAM         1.5070    6.6660   -1.7560 c2        1 YCF     -0.215000
     14 CAN         1.0100    4.1130   -1.4130 c2        1 YCF     -0.058000
     15 CAO         0.3290    3.1570   -2.1540 c2        1 YCF     -0.077000
     16 CAP         0.7910    1.8480   -2.1900 c1        1 YCF     -0.141000
     17 CAQ         1.9340    1.4960   -1.4860 c1        1 YCF      0.078000
     18 CAR         2.6140    2.4520   -0.7460 c1        1 YCF     -0.183000
     19 CAS         2.1530    3.7590   -0.7090 c1        1 YCF     -0.091000
     20 CAT         1.9030   -0.8910   -0.8400 c2        1 YCF      0.399000
     21 CAU         1.7990   -3.2960   -0.2740 c2        1 YCF      0.082000
     22 CAV         2.5120   -3.9380    0.7330 c2        1 YCF     -0.183000
     23 CAW         1.9800   -5.0620    1.3530 c1        1 YCF     -0.081000
     24 CAX         0.7370   -5.5450    0.9680 c1        1 YCF     -0.114000
     25 CAY         0.0240   -4.9050   -0.0370 c1        1 YCF     -0.100000
     26 CAZ         0.5560   -3.7800   -0.6590 c1        1 YCF     -0.137000
     27 CBA         0.1160   -6.7170    1.7100 c2        1 YCF     -0.052000
     28 CBB         0.5000   -8.1340    1.3440 c3        1 YCF     -0.164000
     29 CBC        -2.3630   -4.9380    3.6780 c2        1 YCF      0.138000
     30 OBD         0.9720   -0.6760   -0.0930 o         1 YCF     -0.363000
     31 OBE        -4.0490    8.9250   -2.6520 oh        1 YCF     -0.267000
     32 OBF        -4.6810   -5.1640    3.8160 o         1 YCF     -0.260000
     33 HNAA       -4.2840    6.8700   -1.3620 DU        1 YCF      0.166000
     34 HNAB       -2.1400    9.3630   -2.2440 hn        1 YCF      0.210000
     35 HNAC       -0.5520    7.8470   -0.9250 hn        1 YCF      0.199000
     36 HNAE        3.2030    0.0240   -2.1230 hn        1 YCF      0.223000
     37 HNAF        3.0820   -2.3850   -1.5760 hn        1 YCF      0.223000
     38 HNAH       -0.5170   -4.5090    2.8760 hn        1 YCF      0.200000
     39 HNAJ       -1.7460   -3.5060    4.9900 hn        1 YCF      0.210000
     40 HNAD       -3.0700   -4.2290    5.4590 hn        1 YCF      0.210000
     41 HAM         1.7890    7.1140   -0.9280 ha        1 YCF      0.096000
     42 HAMA        2.2900    6.2860   -2.2040 ha        1 YCF      0.096000
     43 HAMB        1.0730    7.3210   -2.3520 ha        1 YCF      0.096000
     44 HAO        -0.4750    3.4050   -2.6500 ha        1 YCF      0.149000
     45 HAP         0.3110    1.1720   -2.7140 ha        1 YCF      0.173000
     46 HAR         3.4220    2.2030   -0.2480 ha        1 YCF      0.130000
     47 HAS         2.6340    4.4330   -0.1860 ha        1 YCF      0.137000
     48 HAV         3.3820   -3.6000    1.0030 ha        1 YCF      0.132000
     49 HAW         2.4790   -5.5110    2.0570 ha        1 YCF      0.140000
     50 HAY        -0.8450   -5.2430   -0.3060 ha        1 YCF      0.146000
     51 HAZ         0.0570   -3.3320   -1.3630 ha        1 YCF      0.175000
     52 HBB        -0.2870   -8.7070    1.3930 hc        1 YCF      0.093667
     53 HBBA        0.8570   -8.1500    0.4360 hc        1 YCF      0.093667
     54 HBBB        1.1770   -8.4580    1.9650 hc        1 YCF      0.093667
     55 HOBE       -4.0050    9.3960   -3.4040 ho        1 YCF      0.226000
     56 HOBF       -5.3550   -5.3750    3.2740 ho        1 YCF      0.235000
@<TRIPOS>BOND
     1    1   11 1   
     2    2   11 1   
     3    2   31 1   
     4    2   34 1   
     5    3    4 1   
     6    3   11 1   
     7    3   35 1   
     8    4   12 1   
     9    5   17 1   
    10    5   20 1   
    11    5   36 1   
    12    6   20 1   
    13    6   21 1   
    14    6   37 1   
    15    7   27 1   
    16    8   29 1   
    17    8   38 1   
    18    9   29 1   
    19   10   29 1   
    20   10   39 1   
    21   10   40 1   
    22   12   14 1   
    23   13   41 1   
    24   13   42 1   
    25   13   43 1   
    26   14   15 1   
    27   14   19 1   
    28   15   16 1   
    29   15   44 1   
    30   16   45 1   
    31   17   18 1   
    32   18   46 1   
    33   19   47 1   
    34   20   30 1   
    35   21   22 1   
    36   21   26 1   
    37   22   23 1   
    38   22   48 1   
    39   23   49 1   
    40   24   25 1   
    41   24   27 1   
    42   25   50 1   
    43   26   51 1   
    44   27   28 1   
    45   28   52 1   
    46   28   53 1   
    47   28   54 1   
    48   31   55 1   
    49   32   56 1   
@<TRIPOS>SUBSTRUCTURE
     1 YCF         1 TEMP              0 ****  ****    0 ROOT
