@<TRIPOS>MOLECULE
YCF
   56    57     1     0     0
SMALL
bcc


@<TRIPOS>ATOM
      1 NAA        -9.5800    1.7840   -0.6320 n2        1 YCF     -0.812100
      2 NAB       -10.9840   -0.0420    0.1140 nh        1 YCF     -0.504700
      3 NAC        -8.6570   -0.5000   -0.5430 nh        1 YCF     -0.489800
      4 NAD        -7.3980   -0.0880   -0.3550 n2        1 YCF     -0.454400
      5 NAE        -1.1150    1.1420    0.1740 n         1 YCF     -0.465600
      6 NAF         1.2740    1.0520    0.3990 n         1 YCF     -0.465600
      7 NAG         7.5130   -0.4800    0.2800 n2        1 YCF     -0.454400
      8 NAH         8.7570   -0.9840    0.2630 nh        1 YCF     -0.489800
      9 NAI        10.7020    0.1960   -0.4560 n2        1 YCF     -0.574200
     10 NAJ         9.8220    0.5750    1.8090 nh        1 YCF     -0.895800
     11 CAK        -9.7040    0.5170   -0.3900 c2        1 YCF      0.713600
     12 CAL        -6.4210   -0.9290   -0.1080 ce        1 YCF      0.399400
     13 CAM        -6.5470   -2.4080    0.0920 c3        1 YCF     -0.172400
     14 CAN        -5.0470   -0.3940   -0.0280 ca        1 YCF     -0.141900
     15 CAO        -4.7620    0.7590    0.7110 ca        1 YCF     -0.083750
     16 CAP        -3.4610    1.2400    0.7960 ca        1 YCF     -0.162500
     17 CAQ        -2.4060    0.5810    0.1230 ca        1 YCF      0.072600
     18 CAR        -2.7020   -0.5760   -0.6300 ca        1 YCF     -0.162500
     19 CAS        -4.0070   -1.0500   -0.6970 ca        1 YCF     -0.083750
     20 CAT         0.0680    0.3700    0.1200 c         1 YCF      0.772100
     21 CAU         2.5460    0.4870    0.1870 ca        1 YCF      0.072600
     22 CAV         3.6240    1.3440   -0.1410 ca        1 YCF     -0.162500
     23 CAW         4.9090    0.8350   -0.2870 ca        1 YCF     -0.083750
     24 CAX         5.1550   -0.5330   -0.1310 ca        1 YCF     -0.141900
     25 CAY         4.0930   -1.3840    0.1930 ca        1 YCF     -0.083750
     26 CAZ         2.8040   -0.8900    0.3550 ca        1 YCF     -0.162500
     27 CBA         6.5120   -1.0890   -0.3090 ce        1 YCF      0.399400
     28 CBB         6.5930   -2.3230   -1.1520 c3        1 YCF     -0.172400
     29 CBC         9.8080    0.0090    0.5220 c2        1 YCF      0.713600
     30 OBD         0.0480   -0.8480   -0.1570 o         1 YCF     -0.607100
     31 OBE       -12.0510    0.7040   -0.1740 oh        1 YCF     -0.395300
     32 OBF        11.6860    1.0340   -0.1920 oh        1 YCF     -0.361500
     33 HNAA       -8.6750    2.1220   -0.8760 hn        1 YCF      0.427400
     34 HNAB      -11.1490   -0.9300   -0.3700 hn        1 YCF      0.385800
     35 HNAC       -8.9000   -1.3930   -0.1340 hn        1 YCF      0.391300
     36 HNAE       -1.0710    2.0320    0.6210 hn        1 YCF      0.310500
     37 HNAF        1.2580    2.0490    0.3830 hn        1 YCF      0.310500
     38 HNAH        8.9950   -1.5650   -0.5340 hn        1 YCF      0.391300
     39 HNAJ        8.9610    0.5710    2.3060 hn        1 YCF      0.416300
     40 HNAD       10.3370    1.4260    1.8760 hn        1 YCF      0.416300
     41 HAM        -6.8450   -2.9040   -0.8650 hc        1 YCF      0.056033
     42 HAMA       -5.5760   -2.8440    0.4300 hc        1 YCF      0.056033
     43 HAMB       -7.3170   -2.6410    0.8700 hc        1 YCF      0.056033
     44 HAO        -5.5700    1.2930    1.2340 ha        1 YCF      0.142250
     45 HAP        -3.2680    2.1470    1.3900 ha        1 YCF      0.151500
     46 HAR        -1.9020   -1.1160   -1.1630 ha        1 YCF      0.151500
     47 HAS        -4.2210   -1.9510   -1.2930 ha        1 YCF      0.142250
     48 HAV         3.4600    2.4240   -0.2770 ha        1 YCF      0.151500
     49 HAW         5.7360    1.5200   -0.5330 ha        1 YCF      0.142250
     50 HAY         4.2770   -2.4620    0.3300 ha        1 YCF      0.142250
     51 HAZ         1.9850   -1.5860    0.6050 ha        1 YCF      0.151500
     52 HBB         6.8680   -3.2050   -0.5210 hc        1 YCF      0.056033
     53 HBBA        5.6120   -2.5310   -1.6440 hc        1 YCF      0.056033
     54 HBBB        7.3640   -2.2070   -1.9560 hc        1 YCF      0.056033
     55 HOBE      -12.0250    1.4650    0.4410 ho        1 YCF      0.440000
     56 HOBF       12.3130    0.8960   -0.9290 ho        1 YCF      0.437000
@<TRIPOS>BOND
     1    1   11 2   
     2    1   33 1   
     3    2   11 1   
     4    2   31 1   
     5    2   34 1   
     6    3    4 1   
     7    3   11 1   
     8    3   35 1   
     9    4   12 2   
    10    5   17 1   
    11    5   20 1   
    12    5   36 1   
    13    6   20 1   
    14    6   21 1   
    15    6   37 1   
    16    7    8 1   
    17    7   27 2   
    18    8   29 1   
    19    8   38 1   
    20    9   29 2   
    21    9   32 1   
    22   10   29 1   
    23   10   39 1   
    24   10   40 1   
    25   12   13 1   
    26   12   14 1   
    27   13   41 1   
    28   13   42 1   
    29   13   43 1   
    30   14   15 ar  
    31   14   19 ar  
    32   15   16 ar  
    33   15   44 1   
    34   16   17 ar  
    35   16   45 1   
    36   17   18 ar  
    37   18   19 ar  
    38   18   46 1   
    39   19   47 1   
    40   20   30 2   
    41   21   22 ar  
    42   21   26 ar  
    43   22   23 ar  
    44   22   48 1   
    45   23   24 ar  
    46   23   49 1   
    47   24   25 ar  
    48   24   27 1   
    49   25   26 ar  
    50   25   50 1   
    51   26   51 1   
    52   27   28 1   
    53   28   52 1   
    54   28   53 1   
    55   28   54 1   
    56   31   55 1   
    57   32   56 1   
@<TRIPOS>SUBSTRUCTURE
     1 YCF         1 TEMP              0 ****  ****    0 ROOT
