@<TRIPOS>MOLECULE
YCF
   60    61     1     0     0
SMALL
bcc


@<TRIPOS>ATOM
      1 NAA         2.7230   -1.6340    0.4370 n2        1 YCF     -0.625100
      2 NAB         0.2070   -1.5770    0.3770 ny        1 YCF     -0.557500
      3 NAC         1.6490    0.3060   -0.5520 ny        1 YCF     -0.378600
      4 NAD         1.1830    0.2720   -1.8610 n2        1 YCF     -0.677400
      5 NAE        -0.2610    1.3350   -8.0560 ns        1 YCF     -0.460600
      6 NAF        -0.3900    1.8180  -10.4110 ns        1 YCF     -0.460600
      7 NAG         0.3840    3.1950  -16.6650 n2        1 YCF     -0.677400
      8 NAH         0.6870    3.7300  -17.9190 ny        1 YCF     -0.378600
      9 NAI         1.4090    2.7290  -20.0130 n2        1 YCF     -0.232200
     10 NAJ        -0.7530    1.9420  -19.0010 nz        1 YCF     -0.787600
     11 CAK         1.6430   -1.0550    0.1380 c2        1 YCF      0.535100
     12 CAL         1.9990    0.3510   -2.9250 ce        1 YCF      0.637400
     13 CAM         3.4940    0.2920   -2.8730 c3        1 YCF     -0.234900
     14 CAN         1.4070    0.5330   -4.2370 ca        1 YCF     -0.273400
     15 CAO         0.0380    0.8440   -4.4120 ca        1 YCF     -0.009250
     16 CAP        -0.4890    1.0930   -5.6640 ca        1 YCF     -0.192000
     17 CAQ         0.3300    1.0450   -6.8320 ca        1 YCF      0.189100
     18 CAR         1.6960    0.6990   -6.6600 ca        1 YCF     -0.192000
     19 CAS         2.2100    0.4550   -5.4000 ca        1 YCF     -0.009250
     20 CAT         0.4060    1.4390   -9.3030 c         1 YCF      0.803100
     21 CAU         0.0650    2.0490  -11.7060 ca        1 YCF      0.189100
     22 CAV        -0.8680    2.5490  -12.6630 ca        1 YCF     -0.192000
     23 CAW        -0.4790    2.8260  -13.9600 ca        1 YCF     -0.009250
     24 CAX         0.8550    2.6330  -14.3840 ca        1 YCF     -0.273400
     25 CAY         1.7700    2.1070  -13.4430 ca        1 YCF     -0.009250
     26 CAZ         1.3940    1.8170  -12.1440 ca        1 YCF     -0.192000
     27 CBA         1.3080    3.0060  -15.7140 ce        1 YCF      0.637400
     28 CBB         2.7860    3.1600  -15.8820 c3        1 YCF     -0.234900
     29 CBC         0.4810    2.7650  -19.0630 c2        1 YCF      0.535100
     30 OBD         1.6230    1.2060   -9.4170 o         1 YCF     -0.567100
     31 OBE        -0.4330   -0.6270    1.1000 oh        1 YCF     -0.372300
     32 OBF         1.2370    1.9340  -20.9950 oh        1 YCF     -0.280500
     33 HNAA        2.8350   -2.5080    0.9150 hn        1 YCF      0.542400
     34 HNAB        0.2450   -2.4820    0.8900 hn        1 YCF      0.495800
     35 HNAC        2.6040    0.7090   -0.4240 hn        1 YCF      0.492550
     36 HNAE       -1.2420    1.5260   -8.0220 hn        1 YCF      0.341500
     37 HNAF       -1.3650    1.9900  -10.2640 hn        1 YCF      0.341500
     38 HNAH        1.6430    4.1340  -18.0140 hn        1 YCF      0.492550
     39 HNAJ       -1.5760    2.5320  -18.8050 hn        1 YCF      0.499467
     40 HNAD       -0.8960    1.4630  -19.9090 hn        1 YCF      0.499467
     41 HAM         3.9230    1.2100   -3.3590 hc        1 YCF      0.103533
     42 HAMA        3.8500   -0.6030   -3.4520 hc        1 YCF      0.103533
     43 HAMB        3.9360    0.2150   -1.8510 hc        1 YCF      0.103533
     44 HAO        -0.6390    0.9160   -3.5440 ha        1 YCF      0.156500
     45 HAP        -1.5610    1.3430   -5.7460 ha        1 YCF      0.185500
     46 HAR         2.3740    0.6220   -7.5300 ha        1 YCF      0.185500
     47 HAS         3.2800    0.1910   -5.3310 ha        1 YCF      0.156500
     48 HAV        -1.9180    2.7320  -12.3760 ha        1 YCF      0.185500
     49 HAW        -1.2360    3.2330  -14.6500 ha        1 YCF      0.156500
     50 HAY         2.8170    1.9030  -13.7300 ha        1 YCF      0.156500
     51 HAZ         2.1540    1.4040  -11.4540 ha        1 YCF      0.185500
     52 HBB         3.2710    2.1470  -15.8370 hc        1 YCF      0.103533
     53 HBBA        3.1990    3.7770  -15.0370 hc        1 YCF      0.103533
     54 HBBB        3.1140    3.6480  -16.8310 hc        1 YCF      0.103533
     55 HOBE       -1.2930   -0.9830    1.4420 ho        1 YCF      0.518000
     56 HOBF        2.0080    2.0730  -21.6260 ho        1 YCF      0.559000
     57 HAB2       -0.2680   -1.7130   -0.5420 hn        1 YCF      0.495800
     58 HAC2        0.9660    0.9100   -0.0410 hn        1 YCF      0.492550
     59 HAH2       -0.0030    4.5010  -18.0590 hn        1 YCF      0.492550
     60 HAJ3       -0.6630    1.2320  -18.2580 hn        1 YCF      0.499467
@<TRIPOS>BOND
     1    1   11 2   
     2    1   33 1   
     3    2   11 1   
     4    2   31 1   
     5    2   34 1   
     6    2   57 1   
     7    3    4 1   
     8    3   11 1   
     9    3   35 1   
    10    3   58 1   
    11    4   12 2   
    12    5   17 1   
    13    5   20 1   
    14    5   36 1   
    15    6   20 1   
    16    6   21 1   
    17    6   37 1   
    18    7    8 1   
    19    7   27 2   
    20    8   29 1   
    21    8   38 1   
    22    8   59 1   
    23    9   29 2   
    24    9   32 1   
    25   10   29 1   
    26   10   39 1   
    27   10   40 1   
    28   10   60 1   
    29   12   13 1   
    30   12   14 1   
    31   13   41 1   
    32   13   42 1   
    33   13   43 1   
    34   14   15 ar  
    35   14   19 ar  
    36   15   16 ar  
    37   15   44 1   
    38   16   17 ar  
    39   16   45 1   
    40   17   18 ar  
    41   18   19 ar  
    42   18   46 1   
    43   19   47 1   
    44   20   30 2   
    45   21   22 ar  
    46   21   26 ar  
    47   22   23 ar  
    48   22   48 1   
    49   23   24 ar  
    50   23   49 1   
    51   24   25 ar  
    52   24   27 1   
    53   25   26 ar  
    54   25   50 1   
    55   26   51 1   
    56   27   28 1   
    57   28   52 1   
    58   28   53 1   
    59   28   54 1   
    60   31   55 1   
    61   32   56 1   
@<TRIPOS>SUBSTRUCTURE
     1 YCF         1 TEMP              0 ****  ****    0 ROOT
