@<TRIPOS>MOLECULE
YCL
   42    38     1     0     0
SMALL
bcc


@<TRIPOS>ATOM
      1 CL          0.4420    7.1330   -2.0310 cl        1 YCL     -0.133000
      2 C1          3.4040   -1.7940    0.2550 c1        1 YCL      0.353000
      3 O1          4.0910   -1.1140    1.0610 os        1 YCL     -0.521000
      4 O2          3.2000   -1.3700   -0.9090 o         1 YCL     -0.582000
      5 NAA        -3.3130   -1.6830    0.2390 n         1 YCL     -0.422000
      6 NAC        -0.9930    5.8570    0.5300 n1        1 YCL     -0.308000
      7 OAE        -2.2250   -1.5800   -1.7700 o         1 YCL     -0.451000
      8 OAF        -0.6850   -2.8090    1.7710 o         1 YCL     -0.428000
      9 CAH         3.2270   -5.4900    1.0390 c1        1 YCL     -0.149500
     10 CAI         3.6730   -4.2710    0.5520 c1        1 YCL     -0.123000
     11 CAJ         1.9810   -5.5830    1.6450 c1        1 YCL     -0.149500
     12 CAK         2.8700   -3.1380    0.6710 c2        1 YCL     -0.051000
     13 CAL         1.1780   -4.4500    1.7640 c1        1 YCL     -0.096000
     14 CAM        -1.5200    1.7770   -0.2840 c3        1 YCL     -0.185000
     15 CAN        -0.6880    3.0680   -0.3710 c3        1 YCL     -0.057000
     16 CAO        -0.6820    0.5890   -0.7980 c3        1 YCL     -0.179000
     17 CAP        -1.1890    6.5370   -1.8230 c3        1 YCL     -0.146000
     18 NAR        -1.4740    4.1100   -1.0020 n3        1 YCL     -0.268000
     19 NAS         0.1170   -1.5410    0.0200 n         1 YCL     -0.353000
     20 CAU        -2.1940   -1.3530   -0.5760 c2        1 YCL      0.304000
     21 CAV        -1.2120    5.4930   -0.6970 c2        1 YCL      0.078000
     22 CAW         0.2600   -2.5340    1.0590 c2        1 YCL      0.353000
     23 CAX         1.6220   -3.2310    1.2770 c2        1 YCL     -0.116000
     24 CAZ        -1.0100   -0.6570    0.0240 c3        1 YCL      0.018000
     25 HNAA       -3.9750   -2.2270   -0.0880 hn        1 YCL      0.231500
     26 HNAB       -3.3690   -1.3580    1.0910 hn        1 YCL      0.231500
     27 HNAC       -0.8280    6.7240    0.7210 DU        1 YCL      0.147000
     28 HAH         3.7910   -6.2850    0.9550 ha        1 YCL      0.112500
     29 HAI         4.5240   -4.2190    0.0650 ha        1 YCL      0.141000
     30 HAJ         1.6440   -6.4530    1.9370 ha        1 YCL      0.112500
     31 HAL         0.3010   -4.5150    2.1900 ha        1 YCL      0.128000
     32 HAM        -2.3260    1.8700   -0.8320 hc        1 YCL      0.088000
     33 HAMA       -1.7770    1.6170    0.6480 hc        1 YCL      0.088000
     34 HAN        -0.4330    3.3540    0.5310 h1        1 YCL      0.101000
     35 HANA        0.1170    2.9020   -0.8990 h1        1 YCL      0.101000
     36 HAO         0.2680    0.7970   -0.7080 hc        1 YCL      0.121500
     37 HAOA       -0.8930    0.4230   -1.7390 hc        1 YCL      0.121500
     38 HAP        -1.7840    7.2840   -1.5890 h1        1 YCL      0.138000
     39 HAPA       -1.4940    6.1270   -2.6540 h1        1 YCL      0.138000
     40 HNAS        0.7220   -1.5020   -0.6580 hn        1 YCL      0.281000
     41 HAZ        -1.2170   -0.3960    0.9430 h1        1 YCL      0.117000
     42 HAR        -2.1550    3.8890   -1.5610 hn        1 YCL      0.211000
@<TRIPOS>BOND
     1    1   17 1   
     2    2    4 1   
     3    2   12 1   
     4    5   20 1   
     5    5   25 1   
     6    5   26 1   
     7    6   21 1   
     8    7   20 1   
     9    8   22 1   
    10    9   11 1   
    11    9   28 1   
    12   10   12 1   
    13   10   29 1   
    14   11   30 1   
    15   12   23 1   
    16   13   23 1   
    17   13   31 1   
    18   14   15 1   
    19   14   16 1   
    20   14   32 1   
    21   14   33 1   
    22   15   18 1   
    23   15   34 1   
    24   15   35 1   
    25   16   24 1   
    26   16   36 1   
    27   16   37 1   
    28   17   21 1   
    29   17   38 1   
    30   17   39 1   
    31   18   21 1   
    32   18   42 1   
    33   19   22 1   
    34   19   24 1   
    35   19   40 1   
    36   20   24 1   
    37   22   23 1   
    38   24   41 1   
@<TRIPOS>SUBSTRUCTURE
     1 YCL         1 TEMP              0 ****  ****    0 ROOT
