@<TRIPOS>MOLECULE
YCL
   42    39     1     0     0
SMALL
bcc


@<TRIPOS>ATOM
      1 CL          2.6790   -1.8330    3.8300 cl        1 YCL     -0.111000
      2 O1          7.6820    0.5020    6.4420 o         1 YCL     -0.239500
      3 O2          7.1460   -1.7120    5.7490 o         1 YCL     -0.239500
      4 NAA         6.3680    1.5960    2.3450 n         1 YCL     -0.398000
      5 NAC         2.4840    0.0240    6.7660 n2        1 YCL     -0.259000
      6 OAE         6.2650    0.0430    4.0160 o         1 YCL     -0.614000
      7 OAF         9.8400   -1.2730    4.0510 o         1 YCL     -0.323000
      8 CAH         8.9100   -6.0860    0.7580 c1        1 YCL     -0.075000
      9 CAI        12.6400   -3.3490    2.7780 c1        1 YCL     -0.327000
     10 CAJ         9.7450   -4.9020    0.7330 c3        1 YCL     -0.197000
     11 CAK        11.4630   -3.1860    2.6120 c1        1 YCL     -0.053000
     12 CAL         9.3150   -3.7830    1.5580 c1        1 YCL     -0.377000
     13 CAM         7.4050   -0.3190   -0.2970 c3        1 YCL     -0.212000
     14 CAN         3.1840    2.3240    4.9220 c1        1 YCL     -0.168000
     15 CAO         8.3180   -0.0980    0.8890 c3        1 YCL     -0.042000
     16 CAP         3.6940   -1.3570    5.1810 c3        1 YCL     -0.097000
     17 NAR         3.6820    1.1250    4.9290 n3        1 YCL     -0.183000
     18 NAS         7.9650   -1.7660    2.7230 n4        1 YCL      0.026000
     19 CAU         6.7880    0.3740    2.8860 c2        1 YCL      0.354000
     20 CAV         3.2240   -0.0100    5.7080 c2        1 YCL      0.024000
     21 CAW         9.4080   -1.9690    3.1260 c2        1 YCL      0.332000
     22 CAX        10.0830   -3.0330    2.3820 c2        1 YCL     -0.205000
     23 CAZ         7.6800   -0.4600    2.1750 c2        1 YCL     -0.531000
     24 HNAA        6.9660    2.0110    1.6720 hn        1 YCL      0.188500
     25 HNAB        5.9660    2.2280    2.9990 hn        1 YCL      0.188500
     26 HNAC        2.1950    0.9250    7.0870 hn        1 YCL      0.143000
     27 HAH        10.7950   -5.2760    0.9600 hc        1 YCL      0.123000
     28 HAI        13.6750   -3.4860    2.9300 ha        1 YCL      0.200000
     29 HAJ         8.0780   -6.0740    1.4820 ha        1 YCL      0.029000
     30 HAL         9.7800   -4.5470   -0.3430 hc        1 YCL      0.123000
     31 HAM         7.1170   -1.3950   -0.3660 hc        1 YCL      0.061667
     32 HAMA        7.9190   -0.0270   -1.2450 hc        1 YCL      0.061667
     33 HAN         6.4730    0.2870   -0.1960 hc        1 YCL      0.061667
     34 HANA        2.3060    2.5310    5.5720 ha        1 YCL      0.025000
     35 HAO         9.2580   -0.6980    0.7340 hc        1 YCL      0.064500
     36 HAOA        8.6390    0.9800    0.9140 hc        1 YCL      0.064500
     37 HAP         4.7540   -1.3050    4.8110 h1        1 YCL      0.151500
     38 HAPA        3.5990   -2.1560    5.9550 h1        1 YCL      0.151500
     39 HNAS        7.7680   -2.4970    2.0010 hn        1 YCL      0.253500
     40 HAZ         7.3720   -1.9060    3.5500 hn        1 YCL      0.253500
     41 HAR         4.4880    0.9210    4.3440 hn        1 YCL      0.303000
     42 C1          7.4110   -0.5870    6.0480 c1        1 YCL      0.469000
@<TRIPOS>BOND
     1    1   16 1   
     2    2   42 1   
     3    3   42 1   
     4    4   19 1   
     5    4   24 1   
     6    4   25 1   
     7    5   20 1   
     8    5   26 1   
     9    6   19 1   
    10    7   21 1   
    11    8   10 1   
    12    8   29 1   
    13    9   11 1   
    14    9   28 1   
    15   10   12 1   
    16   10   27 1   
    17   10   30 1   
    18   11   22 1   
    19   12   22 1   
    20   13   15 1   
    21   13   31 1   
    22   13   32 1   
    23   13   33 1   
    24   14   17 1   
    25   14   34 1   
    26   15   23 1   
    27   15   35 1   
    28   15   36 1   
    29   16   20 1   
    30   16   37 1   
    31   16   38 1   
    32   17   20 1   
    33   17   41 1   
    34   18   21 1   
    35   18   23 1   
    36   18   39 1   
    37   18   40 1   
    38   19   23 1   
    39   21   22 1   
@<TRIPOS>SUBSTRUCTURE
     1 YCL         1 TEMP              0 ****  ****    0 ROOT
