@<TRIPOS>MOLECULE
YCL
   42    42     1     0     0
SMALL
bcc


@<TRIPOS>ATOM
      1 CL          6.5220   -1.8420    0.7960 cl        1 YCL     -0.179400
      2 O1         -4.4960    1.3670   -0.9930 o         1 YCL     -0.823800
      3 O2         -2.6980    0.8190   -2.1740 o         1 YCL     -0.823800
      4 NAA        -2.0640    3.2540   -0.3560 n         1 YCL     -0.634000
      5 NAC         5.9660    1.0310   -1.4680 n2        1 YCL     -0.847100
      6 OAE        -0.9260    3.9060    1.5060 o         1 YCL     -0.671100
      7 OAF        -1.8040   -0.2720    2.2710 o         1 YCL     -0.635100
      8 CAH        -4.5630   -3.1060   -0.8060 ca        1 YCL     -0.126000
      9 CAI        -4.5040   -1.8110   -1.3120 ca        1 YCL     -0.125000
     10 CAJ        -3.7650   -3.4680    0.2810 ca        1 YCL     -0.170000
     11 CAK        -3.6390   -0.8600   -0.7520 ca        1 YCL     -0.067600
     12 CAL        -2.9110   -2.5320    0.8530 ca        1 YCL     -0.094000
     13 CAM         1.9060    0.7880    0.3760 c3        1 YCL     -0.087400
     14 CAN         3.2650    1.1090   -0.2470 c3        1 YCL      0.194800
     15 CAO         0.9350    1.9100    0.0860 c3        1 YCL     -0.082400
     16 CAP         6.1460   -1.2910   -0.8240 c3        1 YCL     -0.012300
     17 NAR         4.2440    0.0710   -0.0450 nh        1 YCL     -0.872200
     18 NAS        -1.1140    0.5240    0.2290 n         1 YCL     -0.564900
     19 CAU        -1.1930    3.0150    0.6640 c         1 YCL      0.625100
     20 CAV         5.4180    0.0520   -0.8140 c2        1 YCL      0.613200
     21 CAW        -1.9130   -0.2800    1.0250 c         1 YCL      0.680700
     22 CAX        -2.8370   -1.2300    0.3350 ca        1 YCL     -0.133600
     23 CAZ        -0.4270    1.6690    0.7600 c3        1 YCL      0.039700
     24 HNAA       -2.6280    4.0680   -0.2990 hn        1 YCL      0.330500
     25 HNAB       -2.3980    2.5280   -0.9570 hn        1 YCL      0.330500
     26 HNAC        5.4680    1.8950   -1.4780 hn        1 YCL      0.391400
     27 HAH        -5.2420   -3.8430   -1.2570 ha        1 YCL      0.112000
     28 HAI        -5.1390   -1.5140   -2.1600 ha        1 YCL      0.138000
     29 HAJ        -3.8150   -4.4870    0.6870 ha        1 YCL      0.114000
     30 HAL        -2.2940   -2.7960    1.7260 ha        1 YCL      0.134000
     31 HAM         1.5110   -0.1760   -0.0410 hc        1 YCL      0.056700
     32 HAMA        2.0130    0.6570    1.4850 hc        1 YCL      0.056700
     33 HAN         3.1150    1.3070   -1.3500 h1        1 YCL      0.036700
     34 HANA        3.6650    2.0590    0.2130 h1        1 YCL      0.036700
     35 HAO         1.3400    2.8780    0.4840 hc        1 YCL      0.058200
     36 HAOA        0.8000    2.0240   -1.0220 hc        1 YCL      0.058200
     37 HAP         7.1170   -1.2190   -1.3730 h1        1 YCL      0.083700
     38 HAPA        5.4990   -2.0690   -1.2950 h1        1 YCL      0.083700
     39 HNAS       -1.2780    0.5200   -0.7620 hn        1 YCL      0.354500
     40 HAZ        -0.2620    1.4990    1.8690 h1        1 YCL      0.104700
     41 HAR         3.8910   -0.8110    0.2490 hn        1 YCL      0.420800
     42 C1         -3.6240    0.5330   -1.3490 c         1 YCL      0.894200
@<TRIPOS>BOND
     1    1   16 1   
     2    2   42 1   
     3    3   42 1   
     4    4   19 1   
     5    4   24 1   
     6    4   25 1   
     7    5   20 2   
     8    5   26 1   
     9    6   19 2   
    10    7   21 2   
    11    8    9 ar  
    12    8   10 ar  
    13    8   27 1   
    14    9   11 ar  
    15    9   28 1   
    16   10   12 ar  
    17   10   29 1   
    18   11   22 ar  
    19   11   42 1   
    20   12   22 ar  
    21   12   30 1   
    22   13   14 1   
    23   13   15 1   
    24   13   31 1   
    25   13   32 1   
    26   14   17 1   
    27   14   33 1   
    28   14   34 1   
    29   15   23 1   
    30   15   35 1   
    31   15   36 1   
    32   16   20 1   
    33   16   37 1   
    34   16   38 1   
    35   17   20 1   
    36   17   41 1   
    37   18   21 1   
    38   18   23 1   
    39   18   39 1   
    40   19   23 1   
    41   21   22 1   
    42   23   40 1   
@<TRIPOS>SUBSTRUCTURE
     1 YCL         1 TEMP              0 ****  ****    0 ROOT
