@<TRIPOS>MOLECULE
YCM
   20    19     1     0     0
SMALL
bcc


@<TRIPOS>ATOM
      1 N           2.7170   -1.1420   -0.9800 n3        1 YCM     -0.897800
      2 CA          1.8150   -0.8330    0.1180 c3        1 YCM      0.025500
      3 CB          2.4200    0.0730    1.1840 c3        1 YCM      0.012700
      4 SG          3.2480    1.5480    0.6400 ss        1 YCM     -0.337200
      5 CD          2.0550    2.5430   -0.1990 c3        1 YCM     -0.099300
      6 CE          1.1780    3.3630    0.7190 c         1 YCM      0.664100
      7 OZ1         1.3970    4.5850    0.9060 o         1 YCM     -0.676100
      8 NZ2         0.1320    2.7430    1.3420 n         1 YCM     -0.664000
      9 C           0.4310   -0.2500   -0.3040 c         1 YCM      0.878600
     10 O           0.2440    0.0680   -1.5120 o         1 YCM     -0.840300
     11 OXT        -0.4410   -0.1090    0.6040 o         1 YCM     -0.840300
     12 H           3.2820   -0.3340   -1.1800 hn        1 YCM      0.342800
     13 H2          2.1560   -1.3190   -1.7980 hn        1 YCM      0.342800
     14 HA          1.5870   -1.8210    0.6230 h1        1 YCM      0.057700
     15 HB2         3.2380   -0.4620    1.7300 h1        1 YCM      0.072700
     16 HB3         1.6070    0.3310    1.9060 h1        1 YCM      0.072700
     17 HD2         2.6630    3.2500   -0.8180 h1        1 YCM      0.113700
     18 HD3         1.4240    1.9120   -0.8830 h1        1 YCM      0.113700
     19 HZ21       -0.4870    3.2850    1.8890 hn        1 YCM      0.329000
     20 HZ22       -0.1270    1.8040    1.1100 hn        1 YCM      0.329000
@<TRIPOS>BOND
     1    1    2 1   
     2    1   12 1   
     3    1   13 1   
     4    2    3 1   
     5    2    9 1   
     6    2   14 1   
     7    3    4 1   
     8    3   15 1   
     9    3   16 1   
    10    4    5 1   
    11    5    6 1   
    12    5   17 1   
    13    5   18 1   
    14    6    7 2   
    15    6    8 1   
    16    8   19 1   
    17    8   20 1   
    18    9   10 1   
    19    9   11 1   
@<TRIPOS>SUBSTRUCTURE
     1 YCM         1 TEMP              0 ****  ****    0 ROOT
