@<TRIPOS>MOLECULE
YCN
   32    32     1     0     0
SMALL
bcc


@<TRIPOS>ATOM
      1 C1          1.3980   -2.2810    0.1010 c3        1 YCN      0.166175
      2 N1          0.0090   -2.3450    0.4890 n3        1 YCN     -0.836450
      3 C2          2.0780   -0.9400    0.4660 c3        1 YCN      0.166175
      4 N2          1.5140    0.1910   -0.2250 n3        1 YCN     -0.836450
      5 C3          2.0110    1.4790    0.1910 c3        1 YCN      0.166175
      6 N3         -0.2150    2.7390    0.1710 n3        1 YCN     -0.836450
      7 C4          1.1350    2.6430   -0.3250 c3        1 YCN      0.166175
      8 N4         -2.5760   -0.1850   -0.2180 n3        1 YCN     -0.836450
      9 C5         -1.1990    1.8620   -0.4290 c3        1 YCN      0.166175
     10 C6         -1.7120    0.7300    0.4970 c3        1 YCN      0.166175
     11 C7         -2.3200   -1.5920   -0.0090 c3        1 YCN      0.166175
     12 C8         -0.9470   -2.0570   -0.5570 c3        1 YCN      0.166175
     13 H1          1.9720   -3.0800    0.6540 h1        1 YCN      0.035825
     14 H1A         1.5400   -2.4690   -1.0030 h1        1 YCN      0.035825
     15 HN1        -0.2030   -3.2170    0.9320 hn        1 YCN      0.361300
     16 H2          1.9660   -0.7660    1.5740 h1        1 YCN      0.035825
     17 H2A         3.1810   -1.0690    0.2520 h1        1 YCN      0.035825
     18 HN2         1.5620    0.0820   -1.2180 hn        1 YCN      0.361300
     19 H3          2.0300    1.5080    1.3180 h1        1 YCN      0.035825
     20 H3A         3.0680    1.6670   -0.1630 h1        1 YCN      0.035825
     21 HN3        -0.2240    2.6520    1.1700 hn        1 YCN      0.361300
     22 H4          1.6590    3.5940   -0.0160 h1        1 YCN      0.035825
     23 H4A         1.1080    2.6160   -1.4500 h1        1 YCN      0.035825
     24 HN4        -3.5390    0.0210   -0.0390 hn        1 YCN      0.361300
     25 H5         -2.0730    2.5180   -0.7080 h1        1 YCN      0.035825
     26 H5A        -0.8000    1.4060   -1.3770 h1        1 YCN      0.035825
     27 H6         -2.2580    1.2070    1.3640 h1        1 YCN      0.035825
     28 H6A        -0.8290    0.1790    0.9260 h1        1 YCN      0.035825
     29 H7         -2.4190   -1.8870    1.0770 h1        1 YCN      0.035825
     30 H7A        -3.1150   -2.1520   -0.5800 h1        1 YCN      0.035825
     31 H8         -0.5250   -1.2620   -1.2350 h1        1 YCN      0.035825
     32 H8A        -1.1380   -2.9690   -1.1980 h1        1 YCN      0.035825
@<TRIPOS>BOND
     1    1    2 1   
     2    1    3 1   
     3    1   13 1   
     4    1   14 1   
     5    2   12 1   
     6    2   15 1   
     7    3    4 1   
     8    3   16 1   
     9    3   17 1   
    10    4    5 1   
    11    4   18 1   
    12    5    7 1   
    13    5   19 1   
    14    5   20 1   
    15    6    7 1   
    16    6    9 1   
    17    6   21 1   
    18    7   22 1   
    19    7   23 1   
    20    8   10 1   
    21    8   11 1   
    22    8   24 1   
    23    9   10 1   
    24    9   25 1   
    25    9   26 1   
    26   10   27 1   
    27   10   28 1   
    28   11   12 1   
    29   11   29 1   
    30   11   30 1   
    31   12   31 1   
    32   12   32 1   
@<TRIPOS>SUBSTRUCTURE
     1 YCN         1 TEMP              0 ****  ****    0 ROOT
