@<TRIPOS>MOLECULE
YCN
   36    36     1     0     0
SMALL
bcc


@<TRIPOS>ATOM
      1 C1         -0.0520   -0.0170    0.0790 c3        1 YCN      0.067800
      2 N1          1.3290   -0.5270    0.3450 n4        1 YCN     -0.768500
      3 C2         -0.1010    1.4210   -0.4880 c3        1 YCN      0.067800
      4 N2         -1.3910    2.1330   -0.2380 n4        1 YCN     -0.768500
      5 C3         -1.2520    3.6300   -0.2050 c3        1 YCN      0.067800
      6 N3          0.4180    4.5820    1.5340 n4        1 YCN     -0.768500
      7 C4         -1.0070    4.2830    1.1590 c3        1 YCN      0.067800
      8 N4          3.2220    2.0970    2.4200 n4        1 YCN     -0.768500
      9 C5          1.0750    3.4800    2.3010 c3        1 YCN      0.067800
     10 C6          2.6140    3.4390    2.1560 c3        1 YCN      0.067800
     11 C7          3.0600    1.0960    1.3180 c3        1 YCN      0.067800
     12 C8          1.9840    0.0150    1.5780 c3        1 YCN      0.067800
     13 H1         -0.6500   -0.1220    1.0350 hx        1 YCN      0.154450
     14 H1A        -0.5220   -0.7260   -0.6850 hx        1 YCN      0.154450
     15 HN1         1.2400   -1.5650    0.4700 hn        1 YCN      0.507550
     16 H2          0.0520    1.3780   -1.6160 hx        1 YCN      0.154450
     17 H2A         0.7300    2.0460   -0.0540 hx        1 YCN      0.154450
     18 HN2        -2.0480    1.9020   -1.0180 hn        1 YCN      0.507550
     19 H3         -2.2630    4.0450   -0.5650 hx        1 YCN      0.154450
     20 H3A        -0.4930    3.9410   -0.9850 hx        1 YCN      0.154450
     21 HN3         0.4050    5.4360    2.1350 hn        1 YCN      0.507550
     22 H4         -1.4960    3.7200    2.0110 hx        1 YCN      0.154450
     23 H4A        -1.5370    5.3030    1.1090 hx        1 YCN      0.154450
     24 HN4         4.2510    2.2600    2.5450 hn        1 YCN      0.507550
     25 H5          0.8120    3.6270    3.4000 hx        1 YCN      0.154450
     26 H5A         0.6200    2.5050    1.9680 hx        1 YCN      0.154450
     27 H6          3.0710    4.1600    2.9170 hx        1 YCN      0.154450
     28 H6A         2.9590    3.7800    1.1330 hx        1 YCN      0.154450
     29 H7          4.0670    0.5620    1.2080 hx        1 YCN      0.154450
     30 H7A         2.8860    1.6530    0.3530 hx        1 YCN      0.154450
     31 H8          2.4990   -0.8690    2.0920 hx        1 YCN      0.154450
     32 H8A         1.1780    0.3700    2.2830 hx        1 YCN      0.154450
     33 H12         1.9310   -0.3820   -0.4830 hn        1 YCN      0.507550
     34 H22        -1.8380    1.8030    0.6310 hn        1 YCN      0.507550
     35 H32         0.9600    4.8240    0.6900 hn        1 YCN      0.507550
     36 H42         2.8740    1.7160    3.3150 hn        1 YCN      0.507550
@<TRIPOS>BOND
     1    1    2 1   
     2    1    3 1   
     3    1   13 1   
     4    1   14 1   
     5    2   12 1   
     6    2   15 1   
     7    2   33 1   
     8    3    4 1   
     9    3   16 1   
    10    3   17 1   
    11    4    5 1   
    12    4   18 1   
    13    4   34 1   
    14    5    7 1   
    15    5   19 1   
    16    5   20 1   
    17    6    7 1   
    18    6    9 1   
    19    6   21 1   
    20    6   35 1   
    21    7   22 1   
    22    7   23 1   
    23    8   10 1   
    24    8   11 1   
    25    8   24 1   
    26    8   36 1   
    27    9   10 1   
    28    9   25 1   
    29    9   26 1   
    30   10   27 1   
    31   10   28 1   
    32   11   12 1   
    33   11   29 1   
    34   11   30 1   
    35   12   31 1   
    36   12   32 1   
@<TRIPOS>SUBSTRUCTURE
     1 YCN         1 TEMP              0 ****  ****    0 ROOT
