@<TRIPOS>MOLECULE
YCN
   36    36     1     0     0
SMALL
bcc


@<TRIPOS>ATOM
      1 C1         -0.1430   -0.2030   -0.2500 c3        1 YCN      0.067800
      2 N1          1.3280   -0.1590    0.0570 ny        1 YCN     -0.768500
      3 C2         -0.7290    0.9650   -1.0500 c3        1 YCN      0.067800
      4 N2         -1.3710    2.0800   -0.2720 ny        1 YCN     -0.768500
      5 C3         -0.4310    3.1950    0.0570 c3        1 YCN      0.067800
      6 N3          0.3260    4.7050    1.9760 ny        1 YCN     -0.768500
      7 C4         -0.8180    3.9970    1.3200 c3        1 YCN      0.067800
      8 N4          3.1920    2.1920    2.4680 ny        1 YCN     -0.768500
      9 C5          1.2440    3.8310    2.7740 c3        1 YCN      0.067800
     10 C6          2.5920    3.5100    2.0860 c3        1 YCN      0.067800
     11 C7          3.0540    1.1080    1.4460 c3        1 YCN      0.067800
     12 C8          1.6430    0.4800    1.3710 c3        1 YCN      0.067800
     13 H1         -0.7080   -0.4060    0.7100 hx        1 YCN      0.154450
     14 H1A        -0.2970   -1.1320   -0.9100 hx        1 YCN      0.154450
     15 HN1         1.6660   -1.1490    0.0850 hn        1 YCN      0.507550
     16 H2         -1.5690    0.5060   -1.6880 hx        1 YCN      0.154450
     17 H2A         0.0100    1.4120   -1.7820 hx        1 YCN      0.154450
     18 HN2        -2.1410    2.4660   -0.8650 hn        1 YCN      0.507550
     19 H3         -0.4140    3.9010   -0.8380 hx        1 YCN      0.154450
     20 H3A         0.6010    2.7570    0.1670 hx        1 YCN      0.154450
     21 HN3        -0.0980    5.3990    2.6380 hn        1 YCN      0.507550
     22 H4         -1.3200    3.3510    2.1030 hx        1 YCN      0.154450
     23 H4A        -1.5740    4.8030    1.0220 hx        1 YCN      0.154450
     24 HN4         4.2220    2.3440    2.5980 hn        1 YCN      0.507550
     25 H5          1.4760    4.3950    3.7420 hx        1 YCN      0.154450
     26 H5A         0.6800    2.9010    3.0720 hx        1 YCN      0.154450
     27 H6          3.3410    4.3160    2.4010 hx        1 YCN      0.154450
     28 H6A         2.5240    3.5580    0.9610 hx        1 YCN      0.154450
     29 H7          3.8020    0.2910    1.7320 hx        1 YCN      0.154450
     30 H7A         3.3920    1.5260    0.4490 hx        1 YCN      0.154450
     31 H8          1.5550   -0.3260    2.1720 hx        1 YCN      0.154450
     32 H8A         0.8540    1.2560    1.5780 hx        1 YCN      0.154450
     33 H12         1.8340    0.3020   -0.7140 hn        1 YCN      0.507550
     34 H22        -1.8160    1.7030    0.5800 hn        1 YCN      0.507550
     35 H32         0.8560    5.2520    1.2760 hn        1 YCN      0.507550
     36 H42         2.8250    1.8730    3.3800 hn        1 YCN      0.507550
@<TRIPOS>BOND
     1    1    2 1   
     2    1    3 1   
     3    1   13 1   
     4    1   14 1   
     5    2   12 1   
     6    2   15 1   
     7    2   33 1   
     8    3    4 1   
     9    3   16 1   
    10    3   17 1   
    11    4    5 1   
    12    4   18 1   
    13    4   34 1   
    14    5    7 1   
    15    5   19 1   
    16    5   20 1   
    17    6    7 1   
    18    6    9 1   
    19    6   21 1   
    20    6   35 1   
    21    7   22 1   
    22    7   23 1   
    23    8   10 1   
    24    8   11 1   
    25    8   24 1   
    26    8   36 1   
    27    9   10 1   
    28    9   25 1   
    29    9   26 1   
    30   10   27 1   
    31   10   28 1   
    32   11   12 1   
    33   11   29 1   
    34   11   30 1   
    35   12   31 1   
    36   12   32 1   
@<TRIPOS>SUBSTRUCTURE
     1 YCN         1 TEMP              0 ****  ****    0 ROOT
