@<TRIPOS>MOLECULE
YCN
   32    32     1     0     0
SMALL
bcc


@<TRIPOS>ATOM
      1 C1         -1.4960   -2.2430    0.1130 c3        1 YCN      0.158675
      2 N1         -0.0450   -2.2430    0.1130 n3        1 YCN     -0.833450
      3 C2         -2.0110   -1.2100   -0.9090 c3        1 YCN      0.158675
      4 N2         -2.1040    0.0910   -0.2760 n3        1 YCN     -0.833450
      5 C3         -1.8570    1.1310   -1.2590 c3        1 YCN      0.158675
      6 N3          0.3710    2.0770   -0.8980 n3        1 YCN     -0.833450
      7 C4         -1.0370    2.2680   -0.6030 c3        1 YCN      0.158675
      8 N4          1.6800    0.0930    1.2960 n3        1 YCN     -0.833450
      9 C5          1.1560    2.2700    0.3080 c3        1 YCN      0.158675
     10 C6          2.2010    1.1340    0.4270 c3        1 YCN      0.158675
     11 C7          2.0650   -1.2070    0.7840 c3        1 YCN      0.158675
     12 C8          0.9780   -2.2430    1.1440 c3        1 YCN      0.158675
     13 H1         -1.8220   -3.1310   -0.1300 h1        1 YCN      0.037075
     14 H1A        -1.8220   -2.0100    1.0030 h1        1 YCN      0.037075
     15 HN1         0.2590   -2.6980   -0.6170 hn        1 YCN      0.368050
     16 H2         -1.3920   -1.1610   -1.6630 h1        1 YCN      0.037075
     17 H2A        -2.8920   -1.4800   -1.2300 h1        1 YCN      0.037075
     18 HN2        -2.9390    0.1980    0.0760 hn        1 YCN      0.368050
     19 H3         -2.7080    1.4860   -1.5790 h1        1 YCN      0.037075
     20 H3A        -1.3560    0.7580   -2.0090 h1        1 YCN      0.037075
     21 HN3         0.6340    2.6790   -1.5310 hn        1 YCN      0.368050
     22 H4         -1.3300    3.1280   -0.9590 h1        1 YCN      0.037075
     23 H4A        -1.1730    2.2520    0.3630 h1        1 YCN      0.037075
     24 HN4         2.0180    0.2010    2.1360 hn        1 YCN      0.368050
     25 H5          0.5670    2.2540    1.0860 h1        1 YCN      0.037075
     26 H5A         1.6150    3.1300    0.2650 h1        1 YCN      0.037075
     27 H6          3.0280    1.4890    0.8040 h1        1 YCN      0.037075
     28 H6A         2.3790    0.7610   -0.4570 h1        1 YCN      0.037075
     29 H7          2.1610   -1.1590   -0.1860 h1        1 YCN      0.037075
     30 H7A         2.9140   -1.4750    1.1820 h1        1 YCN      0.037075
     31 H8          1.3810   -3.1300    1.2030 h1        1 YCN      0.037075
     32 H8A         0.5760   -2.0090    2.0020 h1        1 YCN      0.037075
@<TRIPOS>BOND
     1    1    2 1   
     2    1    3 1   
     3    1   13 1   
     4    1   14 1   
     5    2   12 1   
     6    2   15 1   
     7    3    4 1   
     8    3   16 1   
     9    3   17 1   
    10    4    5 1   
    11    4   18 1   
    12    5    7 1   
    13    5   19 1   
    14    5   20 1   
    15    6    7 1   
    16    6    9 1   
    17    6   21 1   
    18    7   22 1   
    19    7   23 1   
    20    8   10 1   
    21    8   11 1   
    22    8   24 1   
    23    9   10 1   
    24    9   25 1   
    25    9   26 1   
    26   10   27 1   
    27   10   28 1   
    28   11   12 1   
    29   11   29 1   
    30   11   30 1   
    31   12   31 1   
    32   12   32 1   
@<TRIPOS>SUBSTRUCTURE
     1 YCN         1 TEMP              0 ****  ****    0 ROOT
