@<TRIPOS>MOLECULE
YCO
   41    44     1     0     0
SMALL
bcc


@<TRIPOS>ATOM
      1 P           3.8110    1.6310    1.4230 p5        1 YCO      1.330900
      2 N1         -0.7300   -2.2800   -0.4500 n         1 YCO     -0.364000
      3 C2         -1.7260   -3.1580   -0.9050 c         1 YCO      0.806500
      4 O2         -1.5060   -4.3520   -1.2230 o         1 YCO     -0.675500
      5 N3         -3.0540   -2.6930   -1.0460 n         1 YCO     -0.548400
      6 C4         -3.4340   -1.3880   -0.7150 cc        1 YCO      0.522900
      7 C5         -2.3470   -0.5390   -0.2060 cc        1 YCO     -0.028600
      8 C6         -1.0620   -0.9880   -0.0780 cd        1 YCO      0.061600
      9 N7         -4.6910   -0.9870   -0.8640 nd        1 YCO     -0.778000
     10 C8         -4.9410    0.3480   -0.5010 ca        1 YCO      0.303300
     11 C9         -6.2370    0.8860   -0.6290 ca        1 YCO     -0.172300
     12 C1'         0.6450   -2.8040   -0.2370 c3        1 YCO      0.309500
     13 C10        -6.4890    2.2080   -0.2740 ca        1 YCO     -0.167000
     14 C11        -5.4700    3.0260    0.2130 ca        1 YCO     -0.129000
     15 C12        -4.1760    2.5300    0.3540 ca        1 YCO     -0.199300
     16 C13        -3.9200    1.2010   -0.0010 ca        1 YCO      0.239700
     17 O14        -2.6100    0.7810    0.1770 os        1 YCO     -0.361800
     18 C2'         1.6510   -2.3250   -1.3010 c3        1 YCO     -0.131400
     19 C3'         2.5630   -1.3260   -0.5730 c3        1 YCO      0.156100
     20 O3'         3.9030   -1.6600   -0.8530 oh        1 YCO     -0.671800
     21 C4'         2.2460   -1.5010    0.9260 c3        1 YCO      0.050100
     22 O4'         1.1100   -2.4030    1.0370 os        1 YCO     -0.435600
     23 C5'         1.9360   -0.1750    1.6630 c3        1 YCO      0.229400
     24 O5'         3.0570    0.3040    2.2790 os        1 YCO     -0.552200
     25 OP1         2.6590    2.5860    1.2930 o         1 YCO     -0.929500
     26 OP2         4.9590    2.0110    2.3030 o         1 YCO     -0.929500
     27 OP3         4.1380    0.8850    0.1440 o         1 YCO     -0.929500
     28 HN3        -3.7270   -3.3450   -1.3840 hn        1 YCO      0.344500
     29 H6         -0.2310   -0.3620    0.3270 h4        1 YCO      0.242000
     30 H9         -7.0520    0.2550   -1.0130 ha        1 YCO      0.132000
     31 H1'         0.5450   -3.9300   -0.2120 h2        1 YCO      0.081700
     32 H10        -7.5060    2.6110   -0.3810 ha        1 YCO      0.114000
     33 H11        -5.6820    4.0680    0.4880 ha        1 YCO      0.122000
     34 H12        -3.3540    3.1550    0.7350 ha        1 YCO      0.165000
     35 H2'         2.2430   -3.2030   -1.6580 hc        1 YCO      0.055200
     36 H2'A        1.1610   -1.8510   -2.1820 hc        1 YCO      0.055200
     37 H3'         2.3630   -0.2680   -0.9000 h1        1 YCO      0.103700
     38 HO3'        4.4300   -0.8780   -0.5620 ho        1 YCO      0.502000
     39 H4'         3.0900   -2.0280    1.4470 h1        1 YCO      0.081700
     40 H5'         1.5230    0.5820    0.9340 h1        1 YCO     -0.002800
     41 H5'A        1.1440   -0.4090    2.4350 h1        1 YCO     -0.002800
@<TRIPOS>BOND
     1    1   24 1   
     2    1   25 1   
     3    1   26 1   
     4    1   27 1   
     5    2    3 1   
     6    2    8 1   
     7    2   12 1   
     8    3    4 2   
     9    3    5 1   
    10    5    6 1   
    11    5   28 1   
    12    6    7 1   
    13    6    9 2   
    14    7    8 2   
    15    7   17 1   
    16    8   29 1   
    17    9   10 1   
    18   10   11 ar  
    19   10   16 ar  
    20   11   13 ar  
    21   11   30 1   
    22   12   18 1   
    23   12   22 1   
    24   12   31 1   
    25   13   14 ar  
    26   13   32 1   
    27   14   15 ar  
    28   14   33 1   
    29   15   16 ar  
    30   15   34 1   
    31   16   17 1   
    32   18   19 1   
    33   18   35 1   
    34   18   36 1   
    35   19   20 1   
    36   19   21 1   
    37   19   37 1   
    38   20   38 1   
    39   21   22 1   
    40   21   23 1   
    41   21   39 1   
    42   23   24 1   
    43   23   40 1   
    44   23   41 1   
@<TRIPOS>SUBSTRUCTURE
     1 YCO         1 TEMP              0 ****  ****    0 ROOT
