@<TRIPOS>MOLECULE
YCP
   19    19     1     0     0
SMALL
bcc


@<TRIPOS>ATOM
      1 C          -1.7760   -0.1130    0.0320 c         1 YCP      0.926600
      2 N           0.4740   -1.1970   -0.1230 n3        1 YCP     -0.806200
      3 O          -2.3570   -1.1760    0.3910 o         1 YCP     -0.841800
      4 CA         -0.2450   -0.0110    0.3280 c3        1 YCP      0.047500
      5 CB          0.3690    1.2580   -0.2660 c3        1 YCP     -0.057400
      6 CD          2.5820    0.0810   -0.2810 c3        1 YCP     -0.070400
      7 CE          1.8700   -1.1640    0.2570 c3        1 YCP      0.174800
      8 CG          1.8410    1.3490    0.0890 c3        1 YCP     -0.075400
      9 OXT        -2.3490    0.8820   -0.4890 o         1 YCP     -0.841800
     10 HN          0.0130   -2.0150    0.2300 hn        1 YCP      0.376800
     11 HA         -0.1710    0.0850    1.4590 h1        1 YCP     -0.008300
     12 HB          0.2330    1.2550   -1.3770 hc        1 YCP      0.051700
     13 HBA        -0.1900    2.1400    0.1360 hc        1 YCP      0.051700
     14 HD          3.6230    0.1060    0.1340 hc        1 YCP      0.022700
     15 HDA         2.6600    0.0090   -1.3970 hc        1 YCP      0.022700
     16 HE          2.0220   -1.1930    1.3790 h1        1 YCP     -0.001800
     17 HEA         2.3670   -2.0810   -0.1680 h1        1 YCP     -0.001800
     18 HG          2.3080    2.2230   -0.4360 hc        1 YCP      0.014700
     19 HGA         1.9460    1.5290    1.1920 hc        1 YCP      0.014700
@<TRIPOS>BOND
     1    1    3 1   
     2    1    4 1   
     3    1    9 1   
     4    2    4 1   
     5    2    7 1   
     6    2   10 1   
     7    4    5 1   
     8    4   11 1   
     9    5    8 1   
    10    5   12 1   
    11    5   13 1   
    12    6    7 1   
    13    6    8 1   
    14    6   14 1   
    15    6   15 1   
    16    7   16 1   
    17    7   17 1   
    18    8   18 1   
    19    8   19 1   
@<TRIPOS>SUBSTRUCTURE
     1 YCP         1 TEMP              0 ****  ****    0 ROOT
