@<TRIPOS>MOLECULE
YCU
   55    55     1     0     0
SMALL
bcc


@<TRIPOS>ATOM
      1 S1          1.6510   -0.1590   -0.3580 s4        1 YCU      1.754300
      2 C2          3.1250    0.0630   -0.4730 cc        1 YCU     -0.851600
      3 N3          1.1060   -0.1800    2.1640 nt        1 YCU     -0.694000
      4 S4          4.0500    1.4620   -0.6350 ss        1 YCU      0.567200
      5 C5          1.1160   -1.4700    2.8370 c         1 YCU      0.732100
      6 C6          0.0530   -3.7200    2.9130 ca        1 YCU      0.589200
      7 C7         -0.0830   -5.0940    4.7820 ca        1 YCU      0.512200
      8 C8          4.0430   -1.0650   -0.5000 cd        1 YCU     -0.015000
      9 N9          0.1890   -3.8650    4.2640 nb        1 YCU     -0.729000
     10 C10         5.4730    0.7360   -0.7410 cc        1 YCU     -0.063400
     11 N11         0.2760   -2.4600    2.3140 ns        1 YCU     -0.547400
     12 N12         0.0680   -5.2550    6.2110 ns        1 YCU     -0.483400
     13 C13         5.3630   -0.6920   -0.6510 cd        1 YCU     -0.095300
     14 C14         1.3000   -4.9500    6.7560 c         1 YCU      0.645100
     15 C15        -0.3710   -4.7820    2.0660 ca        1 YCU     -0.291300
     16 C16        -0.5110   -6.2110    4.0380 ca        1 YCU     -0.290300
     17 O17         0.8130    0.9070   -0.4120 o         1 YCU     -0.456400
     18 O18         1.1510   -1.4240   -0.3540 o         1 YCU     -0.456400
     19 C19        -0.6600   -6.0260    2.6500 ca        1 YCU      0.212100
     20 O20         1.8930   -1.6300    3.7940 o         1 YCU     -0.542100
     21 O21         2.4090   -4.9590    6.2270 o         1 YCU     -0.437100
     22 N22         1.3610   -4.7040    8.2800 ny        1 YCU     -0.672800
     23 C23         6.7730    1.4170   -0.8870 c3        1 YCU     -0.051100
     24 O24        -1.0680   -6.9950    1.7780 os        1 YCU     -0.296900
     25 C25         6.5090   -1.6090   -0.7230 c3        1 YCU     -0.054800
     26 O26         5.4580    3.3970   -0.8540 os        1 YCU     -0.492600
     27 C27         6.6650    2.8500   -1.3920 c3        1 YCU      0.116400
     28 C28         0.7010   -3.4420    8.6660 c3        1 YCU      0.077100
     29 C29        -1.3650   -8.2830    2.3270 c3        1 YCU      0.103700
     30 C30         5.2590    4.7650   -1.2110 c3        1 YCU      0.121700
     31 H3          1.6900    0.4550    2.6840 hn        1 YCU      0.303500
     32 H8          3.6930   -2.1020   -0.4170 ha        1 YCU      0.190000
     33 H11        -0.0350   -2.3840    1.3650 hn        1 YCU      0.360500
     34 H15        -0.4790   -4.6590    0.9780 ha        1 YCU      0.186000
     35 H12        -0.7650   -5.0650    6.7330 hn        1 YCU      0.341500
     36 H16        -0.7140   -7.1800    4.5120 ha        1 YCU      0.179000
     37 H231        7.4290    0.8350   -1.5950 hc        1 YCU      0.106200
     38 H232        7.2880    1.4070    0.1170 hc        1 YCU      0.106200
     39 H251        6.9690   -1.5750   -1.7450 hc        1 YCU      0.073033
     40 H252        7.2920   -1.3130    0.0210 hc        1 YCU      0.073033
     41 H253        6.1970   -2.6620   -0.5130 hc        1 YCU      0.073033
     42 H22         2.3640   -4.6600    8.5230 hn        1 YCU      0.470800
     43 H281        1.1170   -2.5980    8.0490 hx        1 YCU      0.113033
     44 H282        0.8970   -3.2360    9.7550 hx        1 YCU      0.113033
     45 H283       -0.4060   -3.5190    8.5010 hx        1 YCU      0.113033
     46 H271        7.5430    3.4550   -1.0420 h1        1 YCU      0.069200
     47 H272        6.6140    2.8820   -2.5140 h1        1 YCU      0.069200
     48 H291       -1.6710   -8.8720    1.4220 h1        1 YCU      0.067033
     49 H292       -0.4550   -8.7240    2.8000 h1        1 YCU      0.067033
     50 H293       -2.2070   -8.2100    3.0570 h1        1 YCU      0.067033
     51 H301        5.1720    4.8630   -2.3210 h1        1 YCU      0.058033
     52 H302        6.1070    5.3840   -0.8280 h1        1 YCU      0.058033
     53 H303        4.3020    5.0470   -0.7070 h1        1 YCU      0.058033
     54 H32         0.1760    0.1990    2.0920 hn        1 YCU      0.303500
     55 H222        0.9440   -5.4930    8.7850 hn        1 YCU      0.470800
@<TRIPOS>BOND
     1    1    2 1   
     2    1   17 1   
     3    1   18 1   
     4    2    4 1   
     5    2    8 2   
     6    3    5 1   
     7    3   31 1   
     8    3   54 1   
     9    4   10 1   
    10    5   11 1   
    11    5   20 2   
    12    6    9 ar  
    13    6   11 1   
    14    6   15 ar  
    15    7    9 ar  
    16    7   12 1   
    17    7   16 ar  
    18    8   13 1   
    19    8   32 1   
    20   10   13 2   
    21   10   23 1   
    22   11   33 1   
    23   12   14 1   
    24   12   35 1   
    25   13   25 1   
    26   14   21 2   
    27   14   22 1   
    28   15   19 ar  
    29   15   34 1   
    30   16   19 ar  
    31   16   36 1   
    32   19   24 1   
    33   22   28 1   
    34   22   42 1   
    35   22   55 1   
    36   23   27 1   
    37   23   37 1   
    38   23   38 1   
    39   24   29 1   
    40   25   39 1   
    41   25   40 1   
    42   25   41 1   
    43   26   27 1   
    44   26   30 1   
    45   27   46 1   
    46   27   47 1   
    47   28   43 1   
    48   28   44 1   
    49   28   45 1   
    50   29   48 1   
    51   29   49 1   
    52   29   50 1   
    53   30   51 1   
    54   30   52 1   
    55   30   53 1   
@<TRIPOS>SUBSTRUCTURE
     1 YCU         1 TEMP              0 ****  ****    0 ROOT
