@<TRIPOS>MOLECULE
YCU
   57    57     1     0     0
SMALL
bcc


@<TRIPOS>ATOM
      1 S1        565.8370  794.9260 -855.1910 s4        1 YCU      1.719300
      2 C2        565.2280  793.8550 -854.3460 cc        1 YCU     -0.854600
      3 N3       -408.8040 -576.2180  623.6790 n         1 YCU     -0.561000
      4 S4        565.5380  793.3290 -852.7770 ss        1 YCU      0.573200
      5 C5       -408.4900 -577.4590  624.0870 c         1 YCU      0.694100
      6 C6       -406.3080 -578.6630  624.5580 ca        1 YCU      0.564200
      7 C7       -405.9410 -580.8700  623.9540 ca        1 YCU      0.531200
      8 C8        564.1490  793.0320 -854.8720 cd        1 YCU     -0.013000
      9 N9       -406.8010 -579.9260  624.3950 nb        1 YCU     -0.762000
     10 C10       564.4260  792.1790 -852.7410 cc        1 YCU     -0.066400
     11 N11      -407.2540 -577.6250  625.0300 n4        1 YCU     -0.665500
     12 N12      -406.5240 -582.2290  623.7540 n4        1 YCU     -0.645500
     13 C13       563.6950  792.0890 -853.9730 cd        1 YCU     -0.096300
     14 C14      -407.9760 -582.3520  624.1620 c         1 YCU      0.509100
     15 C15      -404.9670 -578.3230  624.3260 ca        1 YCU     -0.198300
     16 C16      -404.5730 -580.6690  623.6940 ca        1 YCU     -0.267300
     17 O17       566.8350  795.6810 -854.6760 o         1 YCU     -0.417400
     18 O18       565.3830  795.1240 -856.4490 o         1 YCU     -0.417400
     19 C19      -404.0770 -579.3560  623.8960 ca        1 YCU      0.273100
     20 O20      -409.0710 -578.5220  623.8140 o         1 YCU     -0.585100
     21 O21      -408.2500 -583.0950  625.0860 o         1 YCU     -0.256100
     22 N22      -409.0080 -581.5650  623.4330 n4        1 YCU     -0.616800
     23 C23       564.1680  791.2680 -851.6090 c3        1 YCU     -0.049100
     24 O24      -402.8110 -578.9640  623.7110 os        1 YCU     -0.238900
     25 C25       562.6160  791.1220 -854.2200 c3        1 YCU     -0.054800
     26 O26       565.9230  792.4740 -850.5530 os        1 YCU     -0.488600
     27 C27       564.7110  791.7680 -850.2770 c3        1 YCU      0.117400
     28 C28      -410.2420 -582.3850  623.1950 c3        1 YCU      0.075100
     29 C29      -401.8170 -579.9300  623.3030 c3        1 YCU      0.093700
     30 C30       566.5890  792.9230 -849.3740 c3        1 YCU      0.121700
     31 H3       -409.6390 -576.1110  623.1210 hn        1 YCU      0.397500
     32 H8        563.7540  793.1700 -855.8880 ha        1 YCU      0.197000
     33 H11      -406.7290 -576.7450  625.1440 hn        1 YCU      0.495300
     34 H15      -404.5520 -577.3050  624.4660 ha        1 YCU      0.233000
     35 H12      -406.3950 -582.5020  622.7630 hn        1 YCU      0.520800
     36 H16      -403.8940 -581.4710  623.3550 ha        1 YCU      0.218000
     37 H231      563.0580  791.0990 -851.5040 hc        1 YCU      0.105200
     38 H232      564.6290  790.2680 -851.8550 hc        1 YCU      0.105200
     39 H251      562.2730  791.1630 -855.2840 hc        1 YCU      0.073033
     40 H252      562.9680  790.0820 -853.9990 hc        1 YCU      0.073033
     41 H253      561.7390  791.3420 -853.5570 hc        1 YCU      0.073033
     42 H22      -409.2570 -580.7410  624.0290 hn        1 YCU      0.508300
     43 H281     -410.6230 -582.7990  624.1720 hx        1 YCU      0.150367
     44 H282     -410.0170 -583.2260  622.4830 hx        1 YCU      0.150367
     45 H283     -411.0200 -581.7000  622.7440 hx        1 YCU      0.150367
     46 H271      564.9220  790.9040 -849.5930 h1        1 YCU      0.066200
     47 H272      563.9860  792.4670 -849.7790 h1        1 YCU      0.066200
     48 H291     -401.7180 -580.7270  624.0770 h1        1 YCU      0.103367
     49 H292     -400.8880 -579.2920  623.2580 h1        1 YCU      0.103367
     50 H293     -402.0730 -580.3370  622.2960 h1        1 YCU      0.103367
     51 H301      565.9380  793.6390 -848.8150 h1        1 YCU      0.056700
     52 H302      566.8550  792.0490 -848.7310 h1        1 YCU      0.056700
     53 H303      567.5110  793.4300 -849.7530 h1        1 YCU      0.056700
     54 H32      -408.3230 -575.3870  623.9530 hn        1 YCU      0.397500
     55 H112     -407.6260 -577.9030  625.9550 hn        1 YCU      0.495300
     56 H122     -405.9870 -582.8980  624.3520 hn        1 YCU      0.520800
     57 H222     -408.6590 -581.1990  622.5350 hn        1 YCU      0.508300
@<TRIPOS>BOND
     1    1    2 1   
     2    1   17 1   
     3    1   18 1   
     4    2    4 1   
     5    2    8 2   
     6    3    5 1   
     7    3   31 1   
     8    3   54 1   
     9    4   10 1   
    10    5   11 1   
    11    5   20 2   
    12    6    9 ar  
    13    6   11 1   
    14    6   15 ar  
    15    7    9 ar  
    16    7   12 1   
    17    7   16 ar  
    18    8   13 1   
    19    8   32 1   
    20   10   13 2   
    21   10   23 1   
    22   11   33 1   
    23   11   55 1   
    24   12   14 1   
    25   12   35 1   
    26   12   56 1   
    27   13   25 1   
    28   14   21 2   
    29   14   22 1   
    30   15   19 ar  
    31   15   34 1   
    32   16   19 ar  
    33   16   36 1   
    34   19   24 1   
    35   22   28 1   
    36   22   42 1   
    37   22   57 1   
    38   23   27 1   
    39   23   37 1   
    40   23   38 1   
    41   24   29 1   
    42   25   39 1   
    43   25   40 1   
    44   25   41 1   
    45   26   27 1   
    46   26   30 1   
    47   27   46 1   
    48   27   47 1   
    49   28   43 1   
    50   28   44 1   
    51   28   45 1   
    52   29   48 1   
    53   29   49 1   
    54   29   50 1   
    55   30   51 1   
    56   30   52 1   
    57   30   53 1   
@<TRIPOS>SUBSTRUCTURE
     1 YCU         1 TEMP              0 ****  ****    0 ROOT
