@<TRIPOS>MOLECULE
YCU
   53    54     1     0     0
SMALL
bcc


@<TRIPOS>ATOM
      1 S1         -1.3270    3.4460   -0.1590 sy        1 YCU      1.570900
      2 C2         -2.0950    2.0050    0.0330 cc        1 YCU     -0.538600
      3 N3          0.2160    3.1620    0.3980 n         1 YCU     -0.671300
      4 S4         -2.1210    0.6600   -0.9170 ss        1 YCU      0.369200
      5 C5          1.1830    2.3130   -0.1730 c         1 YCU      0.810100
      6 C6          3.2620    1.1040    0.3790 ca        1 YCU      0.583200
      7 C7          3.3940   -1.2250    0.3940 ca        1 YCU      0.616200
      8 C8         -2.9130    1.8010    1.1630 cd        1 YCU     -0.029000
      9 N9          2.6230   -0.1020    0.4060 nb        1 YCU     -0.724000
     10 C10        -3.1350   -0.2030    0.0320 cc        1 YCU     -0.144400
     11 N11         2.4890    2.2950    0.3730 n         1 YCU     -0.542400
     12 N12         2.7670   -2.4810    0.3650 n         1 YCU     -0.583400
     13 C13        -3.5190    0.5280    1.1700 cd        1 YCU     -0.127300
     14 C14         1.4850   -2.7290    0.9230 c         1 YCU      0.773100
     15 C15         4.6720    1.2420    0.3620 ca        1 YCU     -0.318300
     16 C16         4.8220   -1.1880    0.3660 ca        1 YCU     -0.388300
     17 O17        -1.3090    3.8260   -1.5050 o         1 YCU     -0.645800
     18 O18        -1.8560    4.3940    0.7440 o         1 YCU     -0.645800
     19 C19         5.4380    0.0650    0.3540 ca        1 YCU      0.202100
     20 O20         0.8950    1.6530   -1.1910 o         1 YCU     -0.583100
     21 O21         1.0420   -2.0590    1.8770 o         1 YCU     -0.578100
     22 N22         0.7780   -3.8390    0.4150 n         1 YCU     -0.550900
     23 C23        -3.5350   -1.5880   -0.2680 c3        1 YCU     -0.015100
     24 O24         6.8000    0.2610    0.3370 os        1 YCU     -0.317900
     25 C25        -4.4190    0.0570    2.2320 c3        1 YCU     -0.030800
     26 O26        -5.2700   -3.0560   -0.9030 os        1 YCU     -0.427600
     27 C27        -5.0010   -1.6730   -0.6750 c3        1 YCU      0.131400
     28 C28        -0.5860   -4.0130    0.8240 c3        1 YCU      0.069300
     29 C29         7.6090   -0.9110    0.3140 c3        1 YCU      0.111700
     30 C30        -6.6130   -3.2890   -1.2890 c3        1 YCU      0.117700
     31 H3          0.4800    3.6260    1.2400 hn        1 YCU      0.329500
     32 H8         -3.0670    2.5570    1.9420 ha        1 YCU      0.177000
     33 H11         2.7070    2.9210    1.1170 hn        1 YCU      0.317500
     34 H15         5.1650    2.2220    0.3390 ha        1 YCU      0.168000
     35 H12         3.3280   -3.2470    0.0760 hn        1 YCU      0.329500
     36 H16         5.4080   -2.1140    0.3600 ha        1 YCU      0.148000
     37 H231       -2.9030   -2.0140   -1.0940 hc        1 YCU      0.067200
     38 H232       -3.3720   -2.2350    0.6380 hc        1 YCU      0.067200
     39 H251       -5.4850    0.2600    1.9550 hc        1 YCU      0.047033
     40 H252       -4.3030   -1.0450    2.3880 hc        1 YCU      0.047033
     41 H253       -4.2020    0.5790    3.1960 hc        1 YCU      0.047033
     42 H22         0.9790   -4.1160   -0.5200 hn        1 YCU      0.297500
     43 H281       -1.2910   -3.3450    0.2550 h1        1 YCU      0.048033
     44 H282       -0.8710   -5.0830    0.6410 h1        1 YCU      0.048033
     45 H283       -0.6850   -3.7810    1.9180 h1        1 YCU      0.048033
     46 H271       -5.6630   -1.2860    0.1450 h1        1 YCU      0.035200
     47 H272       -5.1960   -1.0910   -1.6140 h1        1 YCU      0.035200
     48 H291        7.4400   -1.5240    1.2330 h1        1 YCU      0.049367
     49 H292        7.4050   -1.5130   -0.6040 h1        1 YCU      0.049367
     50 H293        8.6520   -0.5030    0.2970 h1        1 YCU      0.049367
     51 H301       -7.3180   -2.9570   -0.4870 h1        1 YCU      0.035033
     52 H302       -6.8470   -2.7590   -2.2450 h1        1 YCU      0.035033
     53 H303       -6.6740   -4.3970   -1.4300 h1        1 YCU      0.035033
@<TRIPOS>BOND
     1    1    2 1   
     2    1    3 1   
     3    1   17 2   
     4    1   18 2   
     5    2    4 1   
     6    2    8 2   
     7    3    5 1   
     8    3   31 1   
     9    4   10 1   
    10    5   11 1   
    11    5   20 2   
    12    6    9 ar  
    13    6   11 1   
    14    6   15 ar  
    15    7    9 ar  
    16    7   12 1   
    17    7   16 ar  
    18    8   13 1   
    19    8   32 1   
    20   10   13 2   
    21   10   23 1   
    22   11   33 1   
    23   12   14 1   
    24   12   35 1   
    25   13   25 1   
    26   14   21 2   
    27   14   22 1   
    28   15   19 ar  
    29   15   34 1   
    30   16   19 ar  
    31   16   36 1   
    32   19   24 1   
    33   22   28 1   
    34   22   42 1   
    35   23   27 1   
    36   23   37 1   
    37   23   38 1   
    38   24   29 1   
    39   25   39 1   
    40   25   40 1   
    41   25   41 1   
    42   26   27 1   
    43   26   30 1   
    44   27   46 1   
    45   27   47 1   
    46   28   43 1   
    47   28   44 1   
    48   28   45 1   
    49   29   48 1   
    50   29   49 1   
    51   29   50 1   
    52   30   51 1   
    53   30   52 1   
    54   30   53 1   
@<TRIPOS>SUBSTRUCTURE
     1 YCU         1 TEMP              0 ****  ****    0 ROOT
