@<TRIPOS>MOLECULE
YD3
   70    74     1     0     0
SMALL
bcc


@<TRIPOS>ATOM
      1 O3          0.2440    1.9100    0.5110 o         1 YD3     -0.647500
      2 C22         1.3690    1.4050    0.3170 c         1 YD3      0.691700
      3 N3          2.0200    0.8190    1.4070 ns        1 YD3     -0.434100
      4 C23         2.0710    1.3820   -0.9800 cc        1 YD3     -0.162400
      5 C24         1.3300    1.9280   -2.1360 c3        1 YD3     -0.048900
      6 C25         3.3300    0.8900   -1.0570 cd        1 YD3     -0.052200
      7 C26         4.0160    0.3690    0.1010 ca        1 YD3     -0.100800
      8 C6          5.3530   -0.0820    0.0250 cp        1 YD3     -0.001000
      9 C4          6.0860   -0.1000   -1.2390 cp        1 YD3     -0.157300
     10 C3          5.6370   -0.8710   -2.3360 ca        1 YD3      0.398200
     11 N           6.2900   -0.9410   -3.5090 nb        1 YD3     -0.659000
     12 C2          7.4300   -0.2370   -3.6330 ca        1 YD3      0.395200
     13 C5          7.2790    0.6200   -1.3870 ca        1 YD3     -0.084000
     14 C1          7.9720    0.5610   -2.6020 ca        1 YD3     -0.189600
     15 C           9.2370    1.2960   -2.8040 c3        1 YD3     -0.051800
     16 C21         3.3280    0.3500    1.3450 ca        1 YD3      0.085600
     17 C9          3.9930   -0.1540    2.5240 ca        1 YD3      0.080600
     18 C8          5.3250   -0.5570    2.4020 ca        1 YD3     -0.138000
     19 C7          5.9960   -0.5150    1.1790 ca        1 YD3     -0.135000
     20 N1          3.2800   -0.1650    3.7480 nu        1 YD3     -0.730600
     21 C10         4.0280   -0.1130    4.9920 c3        1 YD3      0.196500
     22 C14         3.2220    0.6260    6.0980 c3        1 YD3      0.147100
     23 C13         4.0510    0.6940    7.3970 c3        1 YD3      0.130800
     24 N2          4.4880   -0.6050    7.8590 n7        1 YD3     -0.819200
     25 C12         5.1960   -1.3650    6.8500 c3        1 YD3      0.164800
     26 C11         4.4020   -1.4970    5.5540 c3        1 YD3     -0.115400
     27 O           2.9990    1.9600    5.6460 os        1 YD3     -0.411600
     28 C15         1.9310    2.6200    6.3260 c3        1 YD3      0.135400
     29 C16         1.4070    3.7050    5.3870 c3        1 YD3     -0.084700
     30 C20         0.4150    4.5870    6.1290 c3        1 YD3     -0.046400
     31 C19        -0.1260    5.6770    5.2350 c3        1 YD3     -0.321100
     32 S          -0.9550    5.1090    3.8460 s6        1 YD3      1.326000
     33 O1         -1.1590    6.1990    2.9860 o         1 YD3     -0.653300
     34 O2         -2.0850    4.3790    4.2360 o         1 YD3     -0.653300
     35 C18         0.2390    4.0910    3.1940 c3        1 YD3     -0.321100
     36 C17         0.7600    3.0630    4.1690 c3        1 YD3     -0.046400
     37 H3          1.5650    0.8760    2.2940 hn        1 YD3      0.342500
     38 H241        1.9800    1.9880   -3.0420 hc        1 YD3      0.055700
     39 H242        0.9430    2.9500   -1.8940 hc        1 YD3      0.055700
     40 H243        0.4490    1.2760   -2.3650 hc        1 YD3      0.055700
     41 H25         3.8730    0.8850   -2.0170 ha        1 YD3      0.152000
     42 H7          7.0450   -0.8460    1.1290 ha        1 YD3      0.141000
     43 HA          4.7070   -1.4640   -2.2620 h4        1 YD3      0.030100
     44 H5          7.6640    1.2300   -0.5550 ha        1 YD3      0.144000
     45 H2          7.9390   -0.3130   -4.6100 h4        1 YD3      0.025100
     46 HC1         9.2960    2.1880   -2.1330 hc        1 YD3      0.049033
     47 HC2        10.1080    0.6290   -2.5770 hc        1 YD3      0.049033
     48 HC3         9.3310    1.6430   -3.8630 hc        1 YD3      0.049033
     49 H8          5.8780   -0.9200    3.2840 ha        1 YD3      0.138000
     50 H1          2.5760   -0.8780    3.7580 hn        1 YD3      0.389800
     51 H10         4.9690    0.4860    4.8150 h1        1 YD3      0.077700
     52 H14         2.2460    0.0990    6.2830 h1        1 YD3      0.055700
     53 H111        5.0260   -2.0610    4.8130 hc        1 YD3      0.055200
     54 H112        3.4720   -2.0950    5.7390 hc        1 YD3      0.055200
     55 H131        4.9100    1.4060    7.2150 h1        1 YD3      0.040200
     56 H132        3.4040    1.1440    8.2030 h1        1 YD3      0.040200
     57 HB          5.0560   -0.5050    8.6800 hn        1 YD3      0.369800
     58 H121        5.3790   -2.3940    7.2710 h1        1 YD3      0.033200
     59 H122        6.2030   -0.9140    6.6030 h1        1 YD3      0.033200
     60 H151        2.3410    3.0760    7.2660 h1        1 YD3      0.034700
     61 H152        1.1110    1.9010    6.5900 h1        1 YD3      0.034700
     62 H16         2.2800    4.3290    5.0470 hc        1 YD3      0.070700
     63 H201        0.9180    5.0460    7.0200 hc        1 YD3      0.060950
     64 H202       -0.4360    3.9600    6.5100 hc        1 YD3      0.060950
     65 H171       -0.0840    2.3970    4.4930 hc        1 YD3      0.060950
     66 H172        1.5310    2.4180    3.6710 hc        1 YD3      0.060950
     67 H191        0.7170    6.3570    4.9410 h1        1 YD3      0.123200
     68 H192       -0.8190    6.3160    5.8480 h1        1 YD3      0.123200
     69 H181        1.1040    4.6860    2.7950 h1        1 YD3      0.123200
     70 H182       -0.1600    3.5340    2.2950 h1        1 YD3      0.123200
@<TRIPOS>BOND
     1    1    2 2   
     2    2    3 1   
     3    2    4 1   
     4    3   16 1   
     5    3   37 1   
     6    4    5 1   
     7    4    6 2   
     8    5   38 1   
     9    5   39 1   
    10    5   40 1   
    11    6    7 1   
    12    6   41 1   
    13    7    8 ar  
    14    7   16 ar  
    15    8    9 1   
    16    8   19 ar  
    17    9   10 ar  
    18    9   13 ar  
    19   10   11 ar  
    20   10   43 1   
    21   11   12 ar  
    22   12   14 ar  
    23   12   45 1   
    24   13   14 ar  
    25   13   44 1   
    26   14   15 1   
    27   15   46 1   
    28   15   47 1   
    29   15   48 1   
    30   16   17 ar  
    31   17   18 ar  
    32   17   20 1   
    33   18   19 ar  
    34   18   49 1   
    35   19   42 1   
    36   20   21 1   
    37   20   50 1   
    38   21   22 1   
    39   21   26 1   
    40   21   51 1   
    41   22   23 1   
    42   22   27 1   
    43   22   52 1   
    44   23   24 1   
    45   23   55 1   
    46   23   56 1   
    47   24   25 1   
    48   24   57 1   
    49   25   26 1   
    50   25   58 1   
    51   25   59 1   
    52   26   53 1   
    53   26   54 1   
    54   27   28 1   
    55   28   29 1   
    56   28   60 1   
    57   28   61 1   
    58   29   30 1   
    59   29   36 1   
    60   29   62 1   
    61   30   31 1   
    62   30   63 1   
    63   30   64 1   
    64   31   32 1   
    65   31   67 1   
    66   31   68 1   
    67   32   33 2   
    68   32   34 2   
    69   32   35 1   
    70   35   36 1   
    71   35   69 1   
    72   35   70 1   
    73   36   65 1   
    74   36   66 1   
@<TRIPOS>SUBSTRUCTURE
     1 YD3         1 TEMP              0 ****  ****    0 ROOT
