@<TRIPOS>MOLECULE
YD3
   70    74     1     0     0
SMALL
bcc


@<TRIPOS>ATOM
      1 O3          0.2340    1.8900    0.5220 o         1 YD3     -0.647500
      2 C22         1.3600    1.3890    0.3260 c         1 YD3      0.691700
      3 N3          2.0180    0.8090    1.4150 n         1 YD3     -0.434100
      4 C23         2.0560    1.3630   -0.9750 cc        1 YD3     -0.162400
      5 C24         1.3080    1.9010   -2.1290 c3        1 YD3     -0.048900
      6 C25         3.3170    0.8750   -1.0540 cd        1 YD3     -0.052200
      7 C26         4.0100    0.3610    0.1020 ca        1 YD3     -0.100800
      8 C6          5.3480   -0.0850    0.0230 cp        1 YD3     -0.001000
      9 C4          6.0750   -0.1050   -1.2450 cp        1 YD3     -0.157300
     10 C3          5.6240   -0.8830   -2.3360 ca        1 YD3      0.398200
     11 N           6.2720   -0.9550   -3.5130 nb        1 YD3     -0.659000
     12 C2          7.4090   -0.2480   -3.6440 ca        1 YD3      0.395200
     13 C5          7.2660    0.6180   -1.4010 ca        1 YD3     -0.084000
     14 C1          7.9530    0.5560   -2.6180 ca        1 YD3     -0.189600
     15 C           9.2150    1.2940   -2.8290 c3        1 YD3     -0.051800
     16 C21         3.3270    0.3450    1.3500 ca        1 YD3      0.085600
     17 C9          3.9990   -0.1510    2.5280 ca        1 YD3      0.080600
     18 C8          5.3320   -0.5500    2.4020 ca        1 YD3     -0.138000
     19 C7          5.9980   -0.5110    1.1750 ca        1 YD3     -0.135000
     20 N1          3.2910   -0.1610    3.7550 nh        1 YD3     -0.730600
     21 C10         4.0450   -0.1010    4.9950 c3        1 YD3      0.196500
     22 C14         3.2400    0.6390    6.1020 c3        1 YD3      0.147100
     23 C13         4.0750    0.7160    7.3970 c3        1 YD3      0.130800
     24 N2          4.5190   -0.5790    7.8630 n3        1 YD3     -0.819200
     25 C12         5.2250   -1.3410    6.8530 c3        1 YD3      0.164800
     26 C11         4.4270   -1.4810    5.5610 c3        1 YD3     -0.115400
     27 O           3.0100    1.9700    5.6450 os        1 YD3     -0.411600
     28 C15         1.9420    2.6290    6.3280 c3        1 YD3      0.135400
     29 C16         1.4100    3.7080    5.3870 c3        1 YD3     -0.084700
     30 C20         0.4160    4.5880    6.1300 c3        1 YD3     -0.046400
     31 C19        -0.1340    5.6720    5.2350 c3        1 YD3     -0.321100
     32 S          -0.9650    5.0960    3.8510 s6        1 YD3      1.326000
     33 O1         -1.1790    6.1820    2.9880 o         1 YD3     -0.653300
     34 O2         -2.0900    4.3610    4.2480 o         1 YD3     -0.653300
     35 C18         0.2310    4.0810    3.1980 c3        1 YD3     -0.321100
     36 C17         0.7610    3.0590    4.1730 c3        1 YD3     -0.046400
     37 H3          1.5670    0.8680    2.3040 hn        1 YD3      0.342500
     38 H241        0.9180    2.9230   -1.8900 hc        1 YD3      0.055700
     39 H242        1.9540    1.9600   -3.0380 hc        1 YD3      0.055700
     40 H243        0.4280    1.2460   -2.3520 hc        1 YD3      0.055700
     41 H25         3.8550    0.8680   -2.0170 ha        1 YD3      0.152000
     42 H7          7.0480   -0.8380    1.1220 ha        1 YD3      0.141000
     43 HA          4.6960   -1.4780   -2.2560 h4        1 YD3      0.030100
     44 H5          7.6520    1.2320   -0.5740 ha        1 YD3      0.144000
     45 H2          7.9150   -0.3260   -4.6240 h4        1 YD3      0.025100
     46 HC1         9.2700    2.1930   -2.1670 hc        1 YD3      0.049033
     47 HC2        10.0880    0.6330   -2.5960 hc        1 YD3      0.049033
     48 HC3         9.3060    1.6310   -3.8920 hc        1 YD3      0.049033
     49 H8          5.8900   -0.9070    3.2830 ha        1 YD3      0.138000
     50 H1          2.5910   -0.8760    3.7710 hn        1 YD3      0.389800
     51 H10         4.9830    0.5010    4.8120 h1        1 YD3      0.077700
     52 H14         2.2680    0.1080    6.2930 h1        1 YD3      0.055700
     53 H111        3.5000   -2.0820    5.7530 hc        1 YD3      0.055200
     54 H112        5.0500   -2.0450    4.8200 hc        1 YD3      0.055200
     55 H131        4.9300    1.4300    7.2080 h1        1 YD3      0.040200
     56 H132        3.4290    1.1660    8.2040 h1        1 YD3      0.040200
     57 HB          5.0900   -0.4740    8.6800 hn        1 YD3      0.369800
     58 H121        6.2300   -0.8860    6.6000 h1        1 YD3      0.033200
     59 H122        5.4140   -2.3670    7.2770 h1        1 YD3      0.033200
     60 H151        1.1270    1.9070    6.5980 h1        1 YD3      0.034700
     61 H152        2.3540    3.0900    7.2650 h1        1 YD3      0.034700
     62 H16         2.2790    4.3350    5.0430 hc        1 YD3      0.070700
     63 H201       -0.4310    3.9580    6.5170 hc        1 YD3      0.060950
     64 H202        0.9200    5.0520    7.0180 hc        1 YD3      0.060950
     65 H171        1.5330    2.4160    3.6750 hc        1 YD3      0.060950
     66 H172       -0.0780    2.3890    4.5030 hc        1 YD3      0.060950
     67 H191       -0.8280    6.3100    5.8480 h1        1 YD3      0.123200
     68 H192        0.7050    6.3550    4.9350 h1        1 YD3      0.123200
     69 H181       -0.1690    3.5190    2.3010 h1        1 YD3      0.123200
     70 H182        1.0910    4.6790    2.7930 h1        1 YD3      0.123200
@<TRIPOS>BOND
     1    1    2 2   
     2    2    3 1   
     3    2    4 1   
     4    3   16 1   
     5    3   37 1   
     6    4    5 1   
     7    4    6 2   
     8    5   38 1   
     9    5   39 1   
    10    5   40 1   
    11    6    7 1   
    12    6   41 1   
    13    7    8 ar  
    14    7   16 ar  
    15    8    9 1   
    16    8   19 ar  
    17    9   10 ar  
    18    9   13 ar  
    19   10   11 ar  
    20   10   43 1   
    21   11   12 ar  
    22   12   14 ar  
    23   12   45 1   
    24   13   14 ar  
    25   13   44 1   
    26   14   15 1   
    27   15   46 1   
    28   15   47 1   
    29   15   48 1   
    30   16   17 ar  
    31   17   18 ar  
    32   17   20 1   
    33   18   19 ar  
    34   18   49 1   
    35   19   42 1   
    36   20   21 1   
    37   20   50 1   
    38   21   22 1   
    39   21   26 1   
    40   21   51 1   
    41   22   23 1   
    42   22   27 1   
    43   22   52 1   
    44   23   24 1   
    45   23   55 1   
    46   23   56 1   
    47   24   25 1   
    48   24   57 1   
    49   25   26 1   
    50   25   58 1   
    51   25   59 1   
    52   26   53 1   
    53   26   54 1   
    54   27   28 1   
    55   28   29 1   
    56   28   60 1   
    57   28   61 1   
    58   29   30 1   
    59   29   36 1   
    60   29   62 1   
    61   30   31 1   
    62   30   63 1   
    63   30   64 1   
    64   31   32 1   
    65   31   67 1   
    66   31   68 1   
    67   32   33 2   
    68   32   34 2   
    69   32   35 1   
    70   35   36 1   
    71   35   69 1   
    72   35   70 1   
    73   36   65 1   
    74   36   66 1   
@<TRIPOS>SUBSTRUCTURE
     1 YD3         1 TEMP              0 ****  ****    0 ROOT
