@<TRIPOS>MOLECULE
YDI
   44    39     1     0     0
SMALL
bcc


@<TRIPOS>ATOM
      1 S01         2.9370   -0.1870   -1.1250 ss        1 YDI      0.693000
      2 C02         4.4970   -0.3080   -1.0670 c1        1 YDI     -0.214000
      3 C03         4.8670   -0.6420    0.2970 c1        1 YDI     -0.221000
      4 C04         3.5270   -0.7470    1.1690 c1        1 YDI     -0.085000
      5 C05         2.3900   -0.4720    0.2980 c2        1 YDI     -0.384000
      6 N06         5.3930   -0.2650   -2.1990 n2        1 YDI     -0.282000
      7 C07         5.2030    0.7300   -3.2390 c2        1 YDI      0.374000
      8 N08         6.0880    0.7650   -4.3640 n         1 YDI     -0.407000
      9 O09         4.2970    1.5220   -3.1600 o         1 YDI     -0.388000
     10 C10         6.2660   -0.9550    0.7810 c1        1 YDI      0.355000
     11 O11         6.4590   -1.2260    1.9610 o         1 YDI     -0.354000
     12 N12         7.3880   -0.8310   -0.1240 n3        1 YDI     -0.428000
     13 C14        -6.5800    1.7050   -0.3580 c3        1 YDI     -0.121000
     14 N15        -6.0530    1.0670    0.8150 n3        1 YDI     -0.264000
     15 C16        -5.3610   -0.1360    0.4320 c3        1 YDI     -0.104000
     16 C17        -4.1320   -0.2980    1.2850 c3        1 YDI     -0.024000
     17 C19         1.0470   -0.4400    0.6820 c1        1 YDI     -0.035000
     18 C20         0.3810    0.7790    0.7700 c1        1 YDI     -0.147500
     19 C21        -1.0010    0.8090    1.0120 c1        1 YDI     -0.147500
     20 C22        -1.7120   -0.3860    1.1650 c1        1 YDI      0.079000
     21 C2         -7.1410    0.7330    1.7160 c3        1 YDI     -0.121000
     22 C23        -1.0460   -1.6140    1.0770 c1        1 YDI     -0.155000
     23 C24         0.3320   -1.6450    0.8360 c1        1 YDI     -0.085000
     24 O1         -2.9520   -0.2930    0.4400 os        1 YDI     -0.212000
     25 H06         6.1010   -0.8450   -2.2460 hn        1 YDI      0.242000
     26 H04         3.4800   -0.9550    2.1030 DU        1 YDI      0.168000
     27 H081        6.8810    0.3000   -4.3390 hn        1 YDI      0.229500
     28 H082        5.8700    1.2660   -5.1100 hn        1 YDI      0.229500
     29 H121        7.4600   -1.4010   -0.8540 hn        1 YDI      0.214000
     30 H122        8.0300   -0.1820    0.0210 hn        1 YDI      0.214000
     31 H141       -7.2040    1.0910   -0.8110 h1        1 YDI      0.072000
     32 H142       -7.0570    2.5270   -0.1000 h1        1 YDI      0.072000
     33 H143       -5.8330    1.9330   -0.9750 h1        1 YDI      0.072000
     34 H161       -5.1030   -0.0760   -0.4960 h1        1 YDI      0.084500
     35 H162       -5.9460   -0.9020    0.5570 h1        1 YDI      0.084500
     36 H21C       -7.5530    1.5660    2.0620 h1        1 YDI      0.072000
     37 H22C       -6.7940    0.2050    2.4670 h1        1 YDI      0.072000
     38 H23C       -7.8210    0.2060    1.2300 h1        1 YDI      0.072000
     39 H171       -4.0800    0.4380    1.9200 h1        1 YDI      0.103500
     40 H172       -4.1820   -1.1490    1.7730 h1        1 YDI      0.103500
     41 H20         0.8750    1.6130    0.6640 ha        1 YDI      0.142000
     42 H24         0.8000   -2.5050    0.7750 ha        1 YDI      0.138000
     43 H21        -1.4690    1.6670    1.0730 ha        1 YDI      0.142000
     44 H23        -1.5490   -2.4620    1.1850 ha        1 YDI      0.150000
@<TRIPOS>BOND
     1    1    2 1   
     2    1    5 1   
     3    2    3 1   
     4    3    4 1   
     5    4    5 1   
     6    5   17 1   
     7    6    7 1   
     8    6   25 1   
     9    7    8 1   
    10    7    9 1   
    11    8   27 1   
    12    8   28 1   
    13   10   11 1   
    14   10   12 1   
    15   12   29 1   
    16   12   30 1   
    17   13   14 1   
    18   13   31 1   
    19   13   32 1   
    20   13   33 1   
    21   14   15 1   
    22   14   21 1   
    23   15   16 1   
    24   15   34 1   
    25   15   35 1   
    26   16   24 1   
    27   16   39 1   
    28   16   40 1   
    29   17   23 1   
    30   18   19 1   
    31   18   41 1   
    32   19   43 1   
    33   20   22 1   
    34   20   24 1   
    35   21   36 1   
    36   21   37 1   
    37   21   38 1   
    38   22   44 1   
    39   23   42 1   
@<TRIPOS>SUBSTRUCTURE
     1 YDI         1 TEMP              0 ****  ****    0 ROOT
