@<TRIPOS>MOLECULE
YDI
   48    49     1     0     0
SMALL
bcc


@<TRIPOS>ATOM
      1 S01        -0.0850   -0.6740    0.1610 ss        1 YDI      0.351200
      2 C02         1.5480   -0.3660   -0.1290 cc        1 YDI     -0.244500
      3 C03         2.1850    0.0720    1.0850 cd        1 YDI     -0.136600
      4 C04         1.2850    0.1090    2.1500 cd        1 YDI     -0.104000
      5 C05        -0.0350   -0.2780    1.7680 cc        1 YDI      0.077900
      6 N06         2.1980   -0.5430   -1.3860 n4        1 YDI     -0.416200
      7 C07         2.1200    0.6820   -2.2950 c         1 YDI      0.445100
      8 N08         2.7000    0.5860   -3.6720 n4        1 YDI     -0.732400
      9 O09         1.6150    1.7280   -1.9350 o         1 YDI     -0.261100
     10 C10         3.6040    0.4030    1.1420 c         1 YDI      0.596700
     11 O11         4.3670    0.3930    0.1740 o         1 YDI     -0.472100
     12 N12         4.2240    0.7830    2.4480 n4        1 YDI     -0.737400
     13 C14        -8.4060   -0.8200    6.6760 c3        1 YDI      0.078600
     14 N15        -6.9800   -1.2580    6.7360 n4        1 YDI     -0.679400
     15 C16        -6.0730   -0.0670    6.7590 c3        1 YDI      0.094800
     16 C17        -4.6230   -0.3490    6.3590 c3        1 YDI      0.099400
     17 C19        -1.1710   -0.3470    2.6180 ca        1 YDI     -0.149000
     18 C20        -2.4630   -0.5500    2.0550 ca        1 YDI     -0.015000
     19 C21        -3.5890   -0.6300    2.8450 ca        1 YDI     -0.172500
     20 C22        -3.4640   -0.5080    4.2550 ca        1 YDI      0.243100
     21 C2         -6.7660   -2.1390    7.9170 c3        1 YDI      0.078600
     22 C23        -2.1960   -0.3140    4.8350 ca        1 YDI     -0.172500
     23 C24        -1.0730   -0.2340    4.0260 ca        1 YDI     -0.015000
     24 O1         -4.6410   -0.6090    4.9410 os        1 YDI     -0.324900
     25 H06         3.2070   -0.7450   -1.2170 hn        1 YDI      0.506800
     26 H04         1.5260    0.4050    3.1780 ha        1 YDI      0.194000
     27 H081        2.5580    1.5070   -4.1500 hn        1 YDI      0.521467
     28 H082        3.7170    0.3960   -3.6500 hn        1 YDI      0.521467
     29 H121        3.7730    1.6260    2.8330 hn        1 YDI      0.502467
     30 H122        4.1360    0.0130    3.1280 hn        1 YDI      0.502467
     31 H141       -8.5820   -0.2400    5.7310 hx        1 YDI      0.116700
     32 H142       -8.6410   -0.1770    7.5660 hx        1 YDI      0.116700
     33 H143       -9.0690   -1.7290    6.6880 hx        1 YDI      0.116700
     34 H161       -6.0720    0.3590    7.8060 hx        1 YDI      0.133200
     35 H162       -6.5000    0.7070    6.0540 hx        1 YDI      0.133200
     36 H21C       -5.6900   -2.4540    7.9640 hx        1 YDI      0.116700
     37 H22C       -7.0400   -1.5860    8.8570 hx        1 YDI      0.116700
     38 H23C       -7.4200   -3.0490    7.8230 hx        1 YDI      0.116700
     39 H171       -4.0190    0.5720    6.5830 h1        1 YDI      0.096700
     40 H172       -4.1830   -1.2400    6.8790 h1        1 YDI      0.096700
     41 H20        -2.5750   -0.6330    0.9590 ha        1 YDI      0.148000
     42 H24        -0.0890   -0.0920    4.5020 ha        1 YDI      0.148000
     43 H21        -4.5890   -0.7820    2.4020 ha        1 YDI      0.189000
     44 H23        -2.0810   -0.2330    5.9290 ha        1 YDI      0.189000
     45 H062        1.7650   -1.3490   -1.8740 hn        1 YDI      0.506800
     46 H083        2.2310   -0.1390   -4.2420 hn        1 YDI      0.521467
     47 H123        5.2340    0.9840    2.3100 hn        1 YDI      0.502467
     48 H151       -6.7730   -1.7990    5.8840 hn        1 YDI      0.454800
@<TRIPOS>BOND
     1    1    2 1   
     2    1    5 1   
     3    2    3 2   
     4    2    6 1   
     5    3    4 1   
     6    3   10 1   
     7    4    5 2   
     8    4   26 1   
     9    5   17 1   
    10    6    7 1   
    11    6   25 1   
    12    6   45 1   
    13    7    8 1   
    14    7    9 2   
    15    8   27 1   
    16    8   28 1   
    17    8   46 1   
    18   10   11 2   
    19   10   12 1   
    20   12   29 1   
    21   12   30 1   
    22   12   47 1   
    23   13   14 1   
    24   13   31 1   
    25   13   32 1   
    26   13   33 1   
    27   14   15 1   
    28   14   21 1   
    29   14   48 1   
    30   15   16 1   
    31   15   34 1   
    32   15   35 1   
    33   16   24 1   
    34   16   39 1   
    35   16   40 1   
    36   17   18 ar  
    37   17   23 ar  
    38   18   19 ar  
    39   18   41 1   
    40   19   20 ar  
    41   19   43 1   
    42   20   22 ar  
    43   20   24 1   
    44   21   36 1   
    45   21   37 1   
    46   21   38 1   
    47   22   23 ar  
    48   22   44 1   
    49   23   42 1   
@<TRIPOS>SUBSTRUCTURE
     1 YDI         1 TEMP              0 ****  ****    0 ROOT
