@<TRIPOS>MOLECULE
YDI
   44    45     1     0     0
SMALL
bcc


@<TRIPOS>ATOM
      1 S01        -2.1540   -0.9740   -0.1240 ss        1 YDI      0.149200
      2 C02        -3.5880   -0.0740   -0.1460 cc        1 YDI      0.110500
      3 C03        -3.3290    1.2920    0.0890 cd        1 YDI     -0.261600
      4 C04        -1.9310    1.5260    0.2620 cd        1 YDI     -0.101000
      5 C05        -1.1860    0.3680    0.1690 cc        1 YDI     -0.119100
      6 N06        -4.8390   -0.6030   -0.3900 n         1 YDI     -0.441100
      7 C07        -5.0540   -1.9930   -0.4600 c         1 YDI      0.760100
      8 N08        -6.3530   -2.4740   -0.5620 n         1 YDI     -0.652000
      9 O09        -4.0820   -2.7900   -0.4110 o         1 YDI     -0.640100
     10 C10        -4.3700    2.3260    0.1490 c         1 YDI      0.710700
     11 O11        -5.5750    2.0980   -0.1280 o         1 YDI     -0.668100
     12 N12        -4.0250    3.6020    0.5250 n         1 YDI     -0.667000
     13 C14         8.0370   -1.4940   -0.2950 c3        1 YDI      0.162600
     14 N15         7.1810   -0.3920   -0.6630 n3        1 YDI     -0.745600
     15 C16         6.6740    0.3560    0.4740 c3        1 YDI      0.171800
     16 C17         5.2460    0.8820    0.2610 c3        1 YDI      0.127400
     17 C19         0.2480    0.2660    0.2990 ca        1 YDI     -0.037000
     18 C20         0.8340   -0.9230    0.7700 ca        1 YDI     -0.090500
     19 C21         2.2090   -1.0380    0.8980 ca        1 YDI     -0.177000
     20 C22         3.0290    0.0550    0.5530 ca        1 YDI      0.132100
     21 C2          7.7410    0.4470   -1.6970 c3        1 YDI      0.162600
     22 C23         2.4630    1.2450    0.0820 ca        1 YDI     -0.177000
     23 C24         1.0780    1.3410   -0.0440 ca        1 YDI     -0.090500
     24 O1          4.3800   -0.1540    0.7380 os        1 YDI     -0.323900
     25 H06        -5.6110    0.0380   -0.3620 hn        1 YDI      0.366500
     26 H04        -1.4970    2.5110    0.4480 ha        1 YDI      0.146000
     27 H081       -7.1020   -1.8750   -0.8020 hn        1 YDI      0.320000
     28 H082       -6.4410   -3.4400   -0.7670 hn        1 YDI      0.320000
     29 H121       -3.1070    3.8310    0.8000 hn        1 YDI      0.313000
     30 H122       -4.7310    4.2930    0.5800 hn        1 YDI      0.313000
     31 H141        7.4740   -2.1800    0.3910 h1        1 YDI      0.031200
     32 H142        8.3140   -2.0610   -1.2220 h1        1 YDI      0.031200
     33 H143        8.9840   -1.1690    0.2190 h1        1 YDI      0.031200
     34 H161        6.6600   -0.3080    1.3850 h1        1 YDI      0.047200
     35 H162        7.3240    1.2500    0.7080 h1        1 YDI      0.047200
     36 H21C        7.9620   -0.1850   -2.5960 h1        1 YDI      0.031200
     37 H22C        6.9880    1.2280   -1.9820 h1        1 YDI      0.031200
     38 H23C        8.6890    0.9650   -1.3830 h1        1 YDI      0.031200
     39 H171        5.0880    1.8030    0.8830 h1        1 YDI      0.043700
     40 H172        5.0220    1.1050   -0.8140 h1        1 YDI      0.043700
     41 H20         0.1900   -1.7750    1.0440 ha        1 YDI      0.135000
     42 H24         0.6330    2.2730   -0.4230 ha        1 YDI      0.135000
     43 H21         2.6730   -1.9650    1.2640 ha        1 YDI      0.143500
     44 H23         3.0910    2.1030   -0.1930 ha        1 YDI      0.143500
@<TRIPOS>BOND
     1    1    2 1   
     2    1    5 1   
     3    2    3 2   
     4    2    6 1   
     5    3    4 1   
     6    3   10 1   
     7    4    5 2   
     8    4   26 1   
     9    5   17 1   
    10    6    7 1   
    11    6   25 1   
    12    7    8 1   
    13    7    9 2   
    14    8   27 1   
    15    8   28 1   
    16   10   11 2   
    17   10   12 1   
    18   12   29 1   
    19   12   30 1   
    20   13   14 1   
    21   13   31 1   
    22   13   32 1   
    23   13   33 1   
    24   14   15 1   
    25   14   21 1   
    26   15   16 1   
    27   15   34 1   
    28   15   35 1   
    29   16   24 1   
    30   16   39 1   
    31   16   40 1   
    32   17   18 ar  
    33   17   23 ar  
    34   18   19 ar  
    35   18   41 1   
    36   19   20 ar  
    37   19   43 1   
    38   20   22 ar  
    39   20   24 1   
    40   21   36 1   
    41   21   37 1   
    42   21   38 1   
    43   22   23 ar  
    44   22   44 1   
    45   23   42 1   
@<TRIPOS>SUBSTRUCTURE
     1 YDI         1 TEMP              0 ****  ****    0 ROOT
