@<TRIPOS>MOLECULE
YDI
   47    48     1     0     0
SMALL
bcc


@<TRIPOS>ATOM
      1 S01         0.0380    0.1910    0.2660 ss        1 YDI      0.325200
      2 C02         1.6940    0.1490    0.0210 cc        1 YDI      0.034500
      3 C03         2.3690   -0.1790    1.2330 cd        1 YDI     -0.267600
      4 C04         1.4380   -0.3770    2.3000 cd        1 YDI     -0.112000
      5 C05         0.1300   -0.2060    1.8870 cc        1 YDI     -0.038100
      6 N06         2.3580    0.3930   -1.1840 ns        1 YDI     -0.402100
      7 C07         1.6750    0.7180   -2.3380 c         1 YDI      0.638100
      8 N08         2.4830    0.9800   -3.5990 nz        1 YDI     -0.732400
      9 O09         0.4540    0.8220   -2.4760 o         1 YDI     -0.445100
     10 C10         3.7980   -0.3000    1.3330 c         1 YDI      0.603700
     11 O11         4.6450   -0.1310    0.4570 o         1 YDI     -0.472100
     12 N12         4.3740   -0.6900    2.6740 nz        1 YDI     -0.745400
     13 C14        -8.2990   -1.2660    6.4520 c3        1 YDI      0.080600
     14 N15        -6.8260   -1.2670    6.6770 nx        1 YDI     -0.678400
     15 C16        -6.2520    0.0880    6.3930 c3        1 YDI      0.098800
     16 C17        -4.7450    0.0850    6.1220 c3        1 YDI      0.103400
     17 C19        -1.0560   -0.3300    2.7070 ca        1 YDI     -0.095000
     18 C20        -2.1930   -0.9950    2.2090 ca        1 YDI     -0.062500
     19 C21        -3.3440   -1.1050    2.9770 ca        1 YDI     -0.156500
     20 C22        -3.3640   -0.5430    4.2680 ca        1 YDI      0.152100
     21 C2         -6.5140   -1.7170    8.0600 c3        1 YDI      0.080600
     22 C23        -2.2400    0.1120    4.7830 ca        1 YDI     -0.156500
     23 C24        -1.0930    0.2150    3.9980 ca        1 YDI     -0.062500
     24 O1         -4.5470   -0.7320    4.9630 os        1 YDI     -0.356900
     25 H06         3.3620    0.3310   -1.1740 hn        1 YDI      0.381500
     26 H04         1.7130   -0.6420    3.3250 ha        1 YDI      0.171000
     27 H081        3.1190    1.7780   -3.4770 hn        1 YDI      0.495133
     28 H082        1.8060    1.2050   -4.3510 hn        1 YDI      0.495133
     29 H121        3.9990   -1.5990    2.9680 hn        1 YDI      0.482800
     30 H122        4.1340    0.0150    3.3800 hn        1 YDI      0.482800
     31 H141       -8.7090   -2.2840    6.6960 hx        1 YDI      0.111367
     32 H142       -8.7810   -0.5000    7.1170 hx        1 YDI      0.111367
     33 H143       -8.5140   -1.0240    5.3770 hx        1 YDI      0.111367
     34 H161       -6.7830    0.5010    5.4860 hx        1 YDI      0.123200
     35 H162       -6.4590    0.7590    7.2760 hx        1 YDI      0.123200
     36 H21C       -7.0060   -1.0310    8.8010 hx        1 YDI      0.111367
     37 H22C       -5.4030   -1.7080    8.2150 hx        1 YDI      0.111367
     38 H23C       -6.9050   -2.7610    8.2060 hx        1 YDI      0.111367
     39 H171       -4.1550   -0.3440    6.9740 h1        1 YDI      0.086200
     40 H172       -4.4260    1.1450    5.9290 h1        1 YDI      0.086200
     41 H20        -2.1760   -1.4440    1.2020 ha        1 YDI      0.147500
     42 H24        -0.2110    0.7390    4.4000 ha        1 YDI      0.147500
     43 H21        -4.2340   -1.6260    2.5900 ha        1 YDI      0.167000
     44 H23        -2.2430    0.5450    5.7950 ha        1 YDI      0.167000
     45 H083        3.0230    0.1520   -3.8770 hn        1 YDI      0.495133
     46 H123        5.4020   -0.7570    2.6020 hn        1 YDI      0.482800
     47 H151       -6.3960   -1.9310    6.0140 hn        1 YDI      0.462800
@<TRIPOS>BOND
     1    1    2 1   
     2    1    5 1   
     3    2    3 2   
     4    2    6 1   
     5    3    4 1   
     6    3   10 1   
     7    4    5 2   
     8    4   26 1   
     9    5   17 1   
    10    6    7 1   
    11    6   25 1   
    12    7    8 1   
    13    7    9 2   
    14    8   27 1   
    15    8   28 1   
    16    8   45 1   
    17   10   11 2   
    18   10   12 1   
    19   12   29 1   
    20   12   30 1   
    21   12   46 1   
    22   13   14 1   
    23   13   31 1   
    24   13   32 1   
    25   13   33 1   
    26   14   15 1   
    27   14   21 1   
    28   14   47 1   
    29   15   16 1   
    30   15   34 1   
    31   15   35 1   
    32   16   24 1   
    33   16   39 1   
    34   16   40 1   
    35   17   18 ar  
    36   17   23 ar  
    37   18   19 ar  
    38   18   41 1   
    39   19   20 ar  
    40   19   43 1   
    41   20   22 ar  
    42   20   24 1   
    43   21   36 1   
    44   21   37 1   
    45   21   38 1   
    46   22   23 ar  
    47   22   44 1   
    48   23   42 1   
@<TRIPOS>SUBSTRUCTURE
     1 YDI         1 TEMP              0 ****  ****    0 ROOT
