@<TRIPOS>MOLECULE
YDJ
   44    46     1     0     0
SMALL
bcc


@<TRIPOS>ATOM
      1 C1          4.2260   -3.0720    0.9280 ca        1 YDJ     -0.102000
      2 C2          3.0690   -2.3020    0.8520 ca        1 YDJ     -0.141000
      3 C3          3.0750   -1.0770    0.1640 ca        1 YDJ      0.008000
      4 C4          4.2540   -0.6330   -0.4470 ca        1 YDJ     -0.142000
      5 C5          5.4170   -1.4180   -0.3650 ca        1 YDJ      0.127900
      6 C6          5.4060   -2.6450    0.3250 ca        1 YDJ     -0.160000
      7 F1          6.5580   -0.9900   -0.9570 f         1 YDJ     -0.137900
      8 C7          1.8700   -0.2810    0.0860 cc        1 YDJ     -0.018100
      9 C8          1.8180    1.0880   -0.0800 cd        1 YDJ     -0.170000
     10 C9          0.4580    1.5760   -0.1220 cd        1 YDJ      0.147600
     11 C10        -0.4570    0.5130    0.0190 cc        1 YDJ     -0.275700
     12 S1          0.3390   -0.9580    0.1890 ss        1 YDJ      0.025200
     13 C11        -1.9160    0.6480    0.0220 c         1 YDJ      0.728700
     14 O1         -2.4930    1.7610   -0.0360 o         1 YDJ     -0.649100
     15 N1         -2.6580   -0.5160    0.1050 n         1 YDJ     -0.563900
     16 C12        -4.1000   -0.5260    0.0800 c3        1 YDJ      0.063700
     17 C13        -4.6670   -1.2530   -1.1530 c3        1 YDJ     -0.095400
     18 C14        -6.1800   -1.2390   -1.1220 c3        1 YDJ     -0.113400
     19 C15        -6.7050   -1.8250    0.1890 c3        1 YDJ      0.147800
     20 N2         -6.1350   -1.2470    1.3900 n3        1 YDJ     -0.796200
     21 C16        -4.6900   -1.1960    1.3590 c3        1 YDJ      0.140800
     22 N3          0.0800    2.8930   -0.2880 n         1 YDJ     -0.455100
     23 C17         0.9720    3.9790   -0.4070 c         1 YDJ      0.776100
     24 O2          2.2160    3.8330   -0.4650 o         1 YDJ     -0.636100
     25 N4          0.4370    5.2650   -0.4380 n         1 YDJ     -0.665000
     26 H1          4.2110   -4.0290    1.4710 ha        1 YDJ      0.140000
     27 H2          2.1450   -2.6490    1.3400 ha        1 YDJ      0.138000
     28 H6          6.3230   -3.2480    0.3820 ha        1 YDJ      0.151000
     29 H4          4.2780    0.3240   -0.9920 ha        1 YDJ      0.162000
     30 H8          2.6900    1.7480   -0.1610 ha        1 YDJ      0.203000
     31 H3         -0.9050    3.0740   -0.2240 hn        1 YDJ      0.359500
     32 HA         -2.2010   -1.3960    0.0960 hn        1 YDJ      0.307500
     33 H12        -4.4510    0.5500    0.0480 h1        1 YDJ      0.090700
     34 H131       -4.3050   -0.7530   -2.0890 hc        1 YDJ      0.046200
     35 H132       -4.3030   -2.3130   -1.1700 hc        1 YDJ      0.046200
     36 H161       -4.3100   -2.2540    1.4270 h1        1 YDJ      0.056700
     37 H162       -4.3370   -0.6360    2.2680 h1        1 YDJ      0.056700
     38 H141       -6.5520   -0.1890   -1.2460 hc        1 YDJ      0.047700
     39 H142       -6.5790   -1.8410   -1.9790 hc        1 YDJ      0.047700
     40 H151       -7.8230   -1.7000    0.2330 h1        1 YDJ      0.053200
     41 H152       -6.4800   -2.9290    0.2070 h1        1 YDJ      0.053200
     42 HB         -6.5050   -0.3230    1.5320 hn        1 YDJ      0.354800
     43 H41N       -0.5270    5.4230   -0.5830 hn        1 YDJ      0.319000
     44 H42N        1.0720    5.9930   -0.6560 hn        1 YDJ      0.319000
@<TRIPOS>BOND
     1    1    2 ar  
     2    1    6 ar  
     3    1   26 1   
     4    2    3 ar  
     5    2   27 1   
     6    3    4 ar  
     7    3    8 1   
     8    4    5 ar  
     9    4   29 1   
    10    5    6 ar  
    11    5    7 1   
    12    6   28 1   
    13    8    9 2   
    14    8   12 1   
    15    9   10 1   
    16    9   30 1   
    17   10   11 2   
    18   10   22 1   
    19   11   12 1   
    20   11   13 1   
    21   13   14 2   
    22   13   15 1   
    23   15   16 1   
    24   15   32 1   
    25   16   17 1   
    26   16   21 1   
    27   16   33 1   
    28   17   18 1   
    29   17   34 1   
    30   17   35 1   
    31   18   19 1   
    32   18   38 1   
    33   18   39 1   
    34   19   20 1   
    35   19   40 1   
    36   19   41 1   
    37   20   21 1   
    38   20   42 1   
    39   21   36 1   
    40   21   37 1   
    41   22   23 1   
    42   22   31 1   
    43   23   24 2   
    44   23   25 1   
    45   25   43 1   
    46   25   44 1   
@<TRIPOS>SUBSTRUCTURE
     1 YDJ         1 TEMP              0 ****  ****    0 ROOT
