@<TRIPOS>MOLECULE
YDJ
   47    49     1     0     0
SMALL
bcc


@<TRIPOS>ATOM
      1 C1          0.2950    0.5570   -0.4610 ca        1 YDJ     -0.095000
      2 C2          1.6320    0.2490   -0.2520 ca        1 YDJ     -0.079000
      3 C3          2.1660    0.2010    1.0610 ca        1 YDJ     -0.100000
      4 C4          1.3150    0.4720    2.1560 ca        1 YDJ     -0.102000
      5 C5         -0.0340    0.7840    1.9340 ca        1 YDJ      0.152900
      6 C6         -0.5520    0.8260    0.6160 ca        1 YDJ     -0.026000
      7 F1         -0.8390    1.0440    2.9830 f         1 YDJ     -0.079900
      8 C7          3.5370   -0.1180    1.2520 cc        1 YDJ      0.081900
      9 C8          4.1580   -0.3600    2.5170 cd        1 YDJ     -0.094000
     10 C9          5.5130   -0.6600    2.3620 cd        1 YDJ     -0.024400
     11 C10         5.9420   -0.6360    0.9890 cc        1 YDJ     -0.383700
     12 S1          4.6320   -0.2580    0.0210 ss        1 YDJ      0.344200
     13 C11         7.2900   -0.8980    0.6080 c         1 YDJ      0.641700
     14 O1          8.2250   -1.0150    1.4290 o         1 YDJ     -0.637100
     15 N1          7.6450   -1.0760   -0.8290 n4        1 YDJ     -0.651800
     16 C12         8.7480   -0.1290   -1.2860 c3        1 YDJ      0.115500
     17 C13         9.4480   -0.6590   -2.5420 c3        1 YDJ     -0.104400
     18 C14        10.5720    0.3010   -2.8970 c3        1 YDJ     -0.082400
     19 C15        10.0740    1.7380   -3.0300 c3        1 YDJ      0.139800
     20 N2          9.2870    2.1670   -1.8850 n3        1 YDJ     -0.825200
     21 C16         8.1830    1.2880   -1.5850 c3        1 YDJ      0.164800
     22 N3          6.3690   -1.0570    3.4740 n4        1 YDJ     -0.478200
     23 C17         7.0660    0.1210    4.1060 c         1 YDJ      0.491100
     24 O2          6.4400    1.0250    4.6270 o         1 YDJ     -0.251100
     25 N4          8.5570    0.1530    4.0900 n4        1 YDJ     -0.725400
     26 H1         -0.1120    0.5870   -1.4900 ha        1 YDJ      0.196000
     27 H2          2.2790    0.0290   -1.1180 ha        1 YDJ      0.139000
     28 H6         -1.6200    1.0710    0.4560 ha        1 YDJ      0.211000
     29 H4          1.6880    0.4560    3.1910 ha        1 YDJ      0.157000
     30 H8          3.6050   -0.3260    3.4670 ha        1 YDJ      0.221000
     31 H3          5.7700   -1.4910    4.2100 hn        1 YDJ      0.517800
     32 HA          6.8220   -0.9510   -1.4290 hn        1 YDJ      0.476300
     33 H12         9.4930   -0.0850   -0.4350 hx        1 YDJ      0.125700
     34 H131        9.8770   -1.6800   -2.3640 hc        1 YDJ      0.078700
     35 H132        8.7240   -0.7230   -3.3970 hc        1 YDJ      0.078700
     36 H161        7.4330    1.1990   -2.4260 h1        1 YDJ      0.035700
     37 H162        7.6520    1.6900   -0.6780 h1        1 YDJ      0.035700
     38 H141       11.0210   -0.0150   -3.8780 hc        1 YDJ      0.092700
     39 H142       11.3810    0.2430   -2.1220 hc        1 YDJ      0.092700
     40 H151       10.9650    2.4290   -3.0910 h1        1 YDJ      0.081200
     41 H152        9.4960    1.8340   -3.9960 h1        1 YDJ      0.081200
     42 HB          8.9710    3.1140   -1.9940 hn        1 YDJ      0.416800
     43 H41N        8.8650    1.0880    4.4380 hn        1 YDJ      0.525133
     44 H42N        8.9360    0.0120    3.1320 hn        1 YDJ      0.525133
     45 H121        8.0010   -2.0390   -0.9570 hn        1 YDJ      0.476300
     46 H32         7.0490   -1.7610    3.1220 hn        1 YDJ      0.517800
     47 H43         8.9530   -0.5680    4.7190 hn        1 YDJ      0.525133
@<TRIPOS>BOND
     1    1    2 ar  
     2    1    6 ar  
     3    1   26 1   
     4    2    3 ar  
     5    2   27 1   
     6    3    4 ar  
     7    3    8 1   
     8    4    5 ar  
     9    4   29 1   
    10    5    6 ar  
    11    5    7 1   
    12    6   28 1   
    13    8    9 2   
    14    8   12 1   
    15    9   10 1   
    16    9   30 1   
    17   10   11 2   
    18   10   22 1   
    19   11   12 1   
    20   11   13 1   
    21   13   14 2   
    22   13   15 1   
    23   15   16 1   
    24   15   32 1   
    25   15   45 1   
    26   16   17 1   
    27   16   21 1   
    28   16   33 1   
    29   17   18 1   
    30   17   34 1   
    31   17   35 1   
    32   18   19 1   
    33   18   38 1   
    34   18   39 1   
    35   19   20 1   
    36   19   40 1   
    37   19   41 1   
    38   20   21 1   
    39   20   42 1   
    40   21   36 1   
    41   21   37 1   
    42   22   23 1   
    43   22   31 1   
    44   22   46 1   
    45   23   24 2   
    46   23   25 1   
    47   25   43 1   
    48   25   44 1   
    49   25   47 1   
@<TRIPOS>SUBSTRUCTURE
     1 YDJ         1 TEMP              0 ****  ****    0 ROOT
