@<TRIPOS>MOLECULE
YDJ
   46    48     1     0     0
SMALL
bcc


@<TRIPOS>ATOM
      1 C1          0.5790    0.7380   -0.4830 ca        1 YDJ     -0.092000
      2 C2          1.9360    0.5200   -0.2690 ca        1 YDJ     -0.115000
      3 C3          2.4160    0.2430    1.0250 ca        1 YDJ     -0.076000
      4 C4          1.5180    0.1860    2.1020 ca        1 YDJ     -0.117000
      5 C5          0.1480    0.4070    1.8750 ca        1 YDJ      0.145900
      6 C6         -0.3250    0.6850    0.5760 ca        1 YDJ     -0.097000
      7 F1         -0.7150    0.3500    2.9120 f         1 YDJ     -0.104900
      8 C7          3.8210    0.0140    1.2360 cc        1 YDJ      0.102900
      9 C8          4.4890    0.1070    2.4650 cd        1 YDJ     -0.203000
     10 C9          5.8700   -0.1840    2.3400 cd        1 YDJ      0.138600
     11 C10         6.2200   -0.4930    0.9870 cc        1 YDJ     -0.352700
     12 S1          4.8560   -0.4090    0.0090 ss        1 YDJ      0.168200
     13 C11         7.5430   -0.8340    0.5710 c         1 YDJ      0.622700
     14 O1          8.5520   -0.9260    1.2760 o         1 YDJ     -0.510100
     15 N1          7.7590   -1.1550   -0.8890 ny        1 YDJ     -0.664800
     16 C12         8.7900   -0.2510   -1.5300 c3        1 YDJ      0.112500
     17 C13         9.3770   -0.8880   -2.7940 c3        1 YDJ     -0.102400
     18 C14        10.4270    0.0470   -3.3660 c3        1 YDJ     -0.080400
     19 C15         9.8660    1.4490   -3.6000 c3        1 YDJ      0.147800
     20 N2          9.2070    1.9870   -2.4240 n7        1 YDJ     -0.823200
     21 C16         8.1760    1.1290   -1.8920 c3        1 YDJ      0.165800
     22 N3          6.8040   -0.1710    3.3840 ns        1 YDJ     -0.415100
     23 C17         6.4510    0.0940    4.6880 c         1 YDJ      0.654100
     24 O2          5.3470    0.3550    5.1650 o         1 YDJ     -0.437100
     25 N4          7.5730    0.0740    5.7320 nz        1 YDJ     -0.747400
     26 H1          0.2110    0.9580   -1.5000 ha        1 YDJ      0.171000
     27 H2          2.6360    0.5770   -1.1170 ha        1 YDJ      0.133000
     28 H6         -1.4030    0.8570    0.4130 ha        1 YDJ      0.185000
     29 H4          1.8630   -0.0390    3.1220 ha        1 YDJ      0.158000
     30 H8          3.9890    0.3860    3.4020 ha        1 YDJ      0.215000
     31 H3          7.7570   -0.3790    3.1410 hn        1 YDJ      0.378500
     32 HA          8.1120   -2.1210   -0.9540 hn        1 YDJ      0.460300
     33 H12         9.6140   -0.1140   -0.7630 hx        1 YDJ      0.137700
     34 H131        9.8520   -1.8770   -2.5570 hc        1 YDJ      0.068200
     35 H132        8.5700   -1.0580   -3.5540 hc        1 YDJ      0.068200
     36 H161        7.7640    1.6190   -0.9650 h1        1 YDJ      0.039700
     37 H162        7.3220    0.9580   -2.6130 h1        1 YDJ      0.039700
     38 H141       11.3080    0.0980   -2.6740 hc        1 YDJ      0.083700
     39 H142       10.7870   -0.3640   -4.3460 hc        1 YDJ      0.083700
     40 H151        9.1750    1.4150   -4.4930 h1        1 YDJ      0.066200
     41 H152       10.7180    2.1460   -3.8480 h1        1 YDJ      0.066200
     42 HB          8.8520    2.9100   -2.5920 hn        1 YDJ      0.407800
     43 H41N        7.1380    0.2920    6.6450 hn        1 YDJ      0.485800
     44 H42N        8.2860    0.7820    5.5270 hn        1 YDJ      0.485800
     45 H121        6.8810   -1.0930   -1.4130 hn        1 YDJ      0.460300
     46 H43         8.0140   -0.8500    5.7880 hn        1 YDJ      0.485800
@<TRIPOS>BOND
     1    1    2 ar  
     2    1    6 ar  
     3    1   26 1   
     4    2    3 ar  
     5    2   27 1   
     6    3    4 ar  
     7    3    8 1   
     8    4    5 ar  
     9    4   29 1   
    10    5    6 ar  
    11    5    7 1   
    12    6   28 1   
    13    8    9 2   
    14    8   12 1   
    15    9   10 1   
    16    9   30 1   
    17   10   11 2   
    18   10   22 1   
    19   11   12 1   
    20   11   13 1   
    21   13   14 2   
    22   13   15 1   
    23   15   16 1   
    24   15   32 1   
    25   15   45 1   
    26   16   17 1   
    27   16   21 1   
    28   16   33 1   
    29   17   18 1   
    30   17   34 1   
    31   17   35 1   
    32   18   19 1   
    33   18   38 1   
    34   18   39 1   
    35   19   20 1   
    36   19   40 1   
    37   19   41 1   
    38   20   21 1   
    39   20   42 1   
    40   21   36 1   
    41   21   37 1   
    42   22   23 1   
    43   22   31 1   
    44   23   24 2   
    45   23   25 1   
    46   25   43 1   
    47   25   44 1   
    48   25   46 1   
@<TRIPOS>SUBSTRUCTURE
     1 YDJ         1 TEMP              0 ****  ****    0 ROOT
