@<TRIPOS>MOLECULE
YDK
   47    49     1     0     0
SMALL
bcc


@<TRIPOS>ATOM
      1 S01         0.0780   -0.8320    0.2650 ss        1 YDK      0.303200
      2 C02         1.7100   -0.4420    0.0490 cc        1 YDK     -0.254500
      3 C03         2.2490    0.1100    1.2680 cd        1 YDK     -0.127600
      4 C04         1.2890    0.1650    2.2690 cd        1 YDK     -0.100000
      5 C05         0.0110   -0.3200    1.8380 cc        1 YDK      0.092900
      6 N06         2.4200   -0.6080   -1.1650 n4        1 YDK     -0.398200
      7 C07         2.2980    0.5910   -2.1140 c         1 YDK      0.426100
      8 N08         2.9000    0.4840   -3.4860 n4        1 YDK     -0.737400
      9 O09         1.7480    1.6300   -1.8030 o         1 YDK     -0.276100
     10 C10         3.6450    0.5380    1.3750 c         1 YDK      0.597700
     11 O11         4.4150    0.5740    0.4080 o         1 YDK     -0.503100
     12 N12         4.1980    0.9650    2.6890 n4        1 YDK     -0.659800
     13 C13         5.4270    0.1550    3.0970 c3        1 YDK      0.114500
     14 C14         5.0120   -1.2020    3.7310 c3        1 YDK      0.167800
     15 N15         6.2050   -1.9690    3.9950 n3        1 YDK     -0.824200
     16 C16         7.1340   -1.3080    4.8950 c3        1 YDK      0.142800
     17 C17         7.5140    0.0930    4.4210 c3        1 YDK     -0.081400
     18 C18         6.2870    0.9320    4.0980 c3        1 YDK     -0.104400
     19 C19        -1.1610   -0.3890    2.6250 ca        1 YDK     -0.127000
     20 C20        -2.3990   -0.7390    2.0140 ca        1 YDK     -0.047000
     21 C21        -3.5590   -0.8210    2.7610 ca        1 YDK     -0.124500
     22 C22        -3.5290   -0.5570    4.1410 ca        1 YDK      0.026000
     23 C23        -2.3210   -0.2110    4.7600 ca        1 YDK     -0.124500
     24 C24        -1.1510   -0.1270    4.0200 ca        1 YDK     -0.047000
     25 H06         2.0660   -1.4480   -1.6510 hn        1 YDK      0.502300
     26 H04         1.4350    0.5400    3.2900 ha        1 YDK      0.195000
     27 H081        3.9210    0.3380   -3.4420 hn        1 YDK      0.510467
     28 H082        2.4720   -0.2780   -4.0340 hn        1 YDK      0.510467
     29 H12         3.4890    0.8900    3.4270 hn        1 YDK      0.476800
     30 H13         6.0210   -0.0180    2.1480 hx        1 YDK      0.134700
     31 H141        4.3740   -1.7860    3.0100 h1        1 YDK      0.036200
     32 H142        4.3990   -0.9870    4.6560 h1        1 YDK      0.036200
     33 H181        6.6160    1.9150    3.6680 hc        1 YDK      0.075700
     34 H182        5.7110    1.1310    5.0400 hc        1 YDK      0.075700
     35 H15         5.9770   -2.8940    4.3120 hn        1 YDK      0.417800
     36 H161        8.0650   -1.9460    4.9310 h1        1 YDK      0.078700
     37 H162        6.7240   -1.2370    5.9450 h1        1 YDK      0.078700
     38 H171        8.1780    0.0280    3.5190 hc        1 YDK      0.092700
     39 H172        8.0970    0.6030    5.2340 hc        1 YDK      0.092700
     40 H20        -2.4340   -0.9380    0.9290 ha        1 YDK      0.139000
     41 H24        -0.2110    0.1370    4.5270 ha        1 YDK      0.139000
     42 H21        -4.5160   -1.0920    2.2780 ha        1 YDK      0.192000
     43 H22        -4.4600   -0.6230    4.7360 ha        1 YDK      0.197000
     44 H23        -2.3040   -0.0060    5.8460 ha        1 YDK      0.192000
     45 H062        3.4330   -0.7210   -0.9510 hn        1 YDK      0.502300
     46 H083        2.7260    1.3800   -3.9910 hn        1 YDK      0.510467
     47 H122        4.4960    1.9530    2.6150 hn        1 YDK      0.476800
@<TRIPOS>BOND
     1    1    2 1   
     2    1    5 1   
     3    2    3 2   
     4    2    6 1   
     5    3    4 1   
     6    3   10 1   
     7    4    5 2   
     8    4   26 1   
     9    5   19 1   
    10    6    7 1   
    11    6   25 1   
    12    6   45 1   
    13    7    8 1   
    14    7    9 2   
    15    8   27 1   
    16    8   28 1   
    17    8   46 1   
    18   10   11 2   
    19   10   12 1   
    20   12   13 1   
    21   12   29 1   
    22   12   47 1   
    23   13   14 1   
    24   13   18 1   
    25   13   30 1   
    26   14   15 1   
    27   14   31 1   
    28   14   32 1   
    29   15   16 1   
    30   15   35 1   
    31   16   17 1   
    32   16   36 1   
    33   16   37 1   
    34   17   18 1   
    35   17   38 1   
    36   17   39 1   
    37   18   33 1   
    38   18   34 1   
    39   19   20 ar  
    40   19   24 ar  
    41   20   21 ar  
    42   20   40 1   
    43   21   22 ar  
    44   21   42 1   
    45   22   23 ar  
    46   22   43 1   
    47   23   24 ar  
    48   23   44 1   
    49   24   41 1   
@<TRIPOS>SUBSTRUCTURE
     1 YDK         1 TEMP              0 ****  ****    0 ROOT
