@<TRIPOS>MOLECULE
YDK
   46    48     1     0     0
SMALL
bcc


@<TRIPOS>ATOM
      1 S01         0.2630   -0.6490    0.1550 ss        1 YDK      0.355200
      2 C02         1.8350   -0.1760   -0.1310 cc        1 YDK     -0.064500
      3 C03         2.4650    0.2430    1.0750 cd        1 YDK     -0.230600
      4 C04         1.5750    0.1350    2.1760 cd        1 YDK     -0.128000
      5 C05         0.3220   -0.3300    1.7840 cc        1 YDK     -0.012100
      6 N06         2.4670   -0.2870   -1.3800 ns        1 YDK     -0.366100
      7 C07         2.1190    0.5930   -2.3990 c         1 YDK      0.624100
      8 N08         2.9420    0.5230   -3.6880 nz        1 YDK     -0.744400
      9 O09         1.1570    1.3560   -2.4680 o         1 YDK     -0.435100
     10 C10         3.8330    0.7040    1.1160 c         1 YDK      0.605700
     11 O11         4.6220    0.7400    0.1670 o         1 YDK     -0.504100
     12 N12         4.3760    1.2250    2.4170 ny        1 YDK     -0.665800
     13 C13         5.2620    0.2100    3.1100 c3        1 YDK      0.115500
     14 C14         4.4170   -0.8100    3.9220 c3        1 YDK      0.163800
     15 N15         5.2920   -1.8080    4.4870 n7        1 YDK     -0.824200
     16 C16         6.3150   -1.2610    5.3590 c3        1 YDK      0.147800
     17 C17         7.1430   -0.1720    4.6780 c3        1 YDK     -0.081400
     18 C18         6.2610    0.8930    4.0500 c3        1 YDK     -0.102400
     19 C19        -0.8150   -0.5360    2.6480 ca        1 YDK     -0.094000
     20 C20        -2.1180   -0.3540    2.1500 ca        1 YDK     -0.097500
     21 C21        -3.2170   -0.5570    2.9780 ca        1 YDK     -0.114000
     22 C22        -3.0330   -0.9450    4.3080 ca        1 YDK     -0.070000
     23 C23        -1.7420   -1.1280    4.8080 ca        1 YDK     -0.114000
     24 C24        -0.6360   -0.9250    3.9860 ca        1 YDK     -0.097500
     25 H06         3.4180   -0.6120   -1.3330 hn        1 YDK      0.357500
     26 H04         1.8170    0.3750    3.2170 ha        1 YDK      0.174000
     27 H081        3.9130    0.8030   -3.5240 hn        1 YDK      0.484467
     28 H082        2.5110    1.1760   -4.3640 hn        1 YDK      0.484467
     29 H12         4.9520    2.0570    2.2200 hn        1 YDK      0.466800
     30 H13         5.8310   -0.3270    2.2900 hx        1 YDK      0.129700
     31 H141        3.6850   -1.3290    3.2400 h1        1 YDK      0.040700
     32 H142        3.8280   -0.2360    4.7000 h1        1 YDK      0.040700
     33 H181        6.9040    1.6210    3.4880 hc        1 YDK      0.069700
     34 H182        5.7160    1.4530    4.8560 hc        1 YDK      0.069700
     35 H15         4.7650   -2.5300    4.9430 hn        1 YDK      0.408800
     36 H161        6.9970   -2.1150    5.6420 h1        1 YDK      0.067200
     37 H162        5.8770   -0.8390    6.3100 h1        1 YDK      0.067200
     38 H171        7.8050    0.3080    5.4460 hc        1 YDK      0.084200
     39 H172        7.8040   -0.6270    3.8950 hc        1 YDK      0.084200
     40 H20        -2.2720   -0.0360    1.1070 ha        1 YDK      0.130000
     41 H24         0.3770   -1.0820    4.3830 ha        1 YDK      0.130000
     42 H21        -4.2360   -0.4100    2.5840 ha        1 YDK      0.163000
     43 H22        -3.9060   -1.1060    4.9610 ha        1 YDK      0.168000
     44 H23        -1.5970   -1.4370    5.8550 ha        1 YDK      0.163000
     45 H083        2.9230   -0.4240   -4.0850 hn        1 YDK      0.484467
     46 H122        3.6090    1.4960    3.0410 hn        1 YDK      0.466800
@<TRIPOS>BOND
     1    1    2 1   
     2    1    5 1   
     3    2    3 2   
     4    2    6 1   
     5    3    4 1   
     6    3   10 1   
     7    4    5 2   
     8    4   26 1   
     9    5   19 1   
    10    6    7 1   
    11    6   25 1   
    12    7    8 1   
    13    7    9 2   
    14    8   27 1   
    15    8   28 1   
    16    8   45 1   
    17   10   11 2   
    18   10   12 1   
    19   12   13 1   
    20   12   29 1   
    21   12   46 1   
    22   13   14 1   
    23   13   18 1   
    24   13   30 1   
    25   14   15 1   
    26   14   31 1   
    27   14   32 1   
    28   15   16 1   
    29   15   35 1   
    30   16   17 1   
    31   16   36 1   
    32   16   37 1   
    33   17   18 1   
    34   17   38 1   
    35   17   39 1   
    36   18   33 1   
    37   18   34 1   
    38   19   20 ar  
    39   19   24 ar  
    40   20   21 ar  
    41   20   40 1   
    42   21   22 ar  
    43   21   42 1   
    44   22   23 ar  
    45   22   43 1   
    46   23   24 ar  
    47   23   44 1   
    48   24   41 1   
@<TRIPOS>SUBSTRUCTURE
     1 YDK         1 TEMP              0 ****  ****    0 ROOT
