@<TRIPOS>MOLECULE
YDK
   44    46     1     0     0
SMALL
bcc


@<TRIPOS>ATOM
      1 S01         2.4470   -1.0850   -0.0140 ss        1 YDK      0.152200
      2 C02         0.8330   -1.5800    0.1160 cc        1 YDK      0.113500
      3 C03        -0.0340   -0.4670    0.1530 cd        1 YDK     -0.264600
      4 C04         0.6990    0.7550    0.0940 cd        1 YDK     -0.094000
      5 C05         2.0620    0.5500   -0.0000 cc        1 YDK     -0.133100
      6 N06         0.4230   -2.8950    0.1910 n         1 YDK     -0.443100
      7 C07         1.3320   -3.9620    0.0620 c         1 YDK      0.763100
      8 N08         0.8510   -5.2640    0.0500 n         1 YDK     -0.655000
      9 O09         2.5630   -3.7350   -0.0670 o         1 YDK     -0.641100
     10 C10        -1.4990   -0.5740    0.2490 c         1 YDK      0.715700
     11 O11        -2.0720   -1.6530    0.5400 o         1 YDK     -0.658100
     12 N12        -2.2480    0.5580   -0.0030 n         1 YDK     -0.563900
     13 C13        -3.6890    0.5810    0.0720 c3        1 YDK      0.099700
     14 C14        -4.3190    0.9150   -1.3130 c3        1 YDK      0.149800
     15 N15        -5.7650    0.9410   -1.2610 n3        1 YDK     -0.818200
     16 C16        -6.3070    1.8260   -0.2490 c3        1 YDK      0.161800
     17 C17        -5.7190    1.5690    1.1370 c3        1 YDK     -0.076400
     18 C18        -4.2070    1.5980    1.1040 c3        1 YDK     -0.093400
     19 C19         3.0740    1.5760   -0.0790 ca        1 YDK      0.005000
     20 C20         4.3890    1.3030    0.3360 ca        1 YDK     -0.126000
     21 C21         5.3710    2.2870    0.2600 ca        1 YDK     -0.124000
     22 C22         5.0570    3.5560   -0.2290 ca        1 YDK     -0.131000
     23 C23         3.7560    3.8350   -0.6440 ca        1 YDK     -0.124000
     24 C24         2.7690    2.8540   -0.5730 ca        1 YDK     -0.126000
     25 H06        -0.5620   -3.0580    0.2780 hn        1 YDK      0.367500
     26 H04         0.2380    1.7450    0.1420 ha        1 YDK      0.148000
     27 H081       -0.0740   -5.4750    0.3290 hn        1 YDK      0.322000
     28 H082        1.5340   -5.9810    0.0910 hn        1 YDK      0.322000
     29 H12        -1.7940    1.4020   -0.2540 hn        1 YDK      0.308500
     30 H13        -4.0390   -0.4510    0.3800 h1        1 YDK      0.105700
     31 H141       -3.8890    1.8960   -1.6750 h1        1 YDK      0.030700
     32 H142       -4.0260    0.1160   -2.0500 h1        1 YDK      0.030700
     33 H181       -3.8030    1.3490    2.1190 hc        1 YDK      0.044700
     34 H182       -3.8530    2.6280    0.8390 hc        1 YDK      0.044700
     35 H15        -6.1320    1.1830   -2.1620 hn        1 YDK      0.365800
     36 H161       -6.1410    2.9150   -0.5060 h1        1 YDK      0.027700
     37 H162       -7.4190    1.6520   -0.2160 h1        1 YDK      0.027700
     38 H171       -6.0980    2.3580    1.8370 hc        1 YDK      0.051200
     39 H172       -6.0700    0.5750    1.5180 hc        1 YDK      0.051200
     40 H20         4.6410    0.3050    0.7270 ha        1 YDK      0.132500
     41 H24         1.7470    3.0780   -0.9100 ha        1 YDK      0.132500
     42 H21         6.3960    2.0620    0.5870 ha        1 YDK      0.132000
     43 H22         5.8340    4.3320   -0.2870 ha        1 YDK      0.132000
     44 H23         3.5050    4.8330   -1.0330 ha        1 YDK      0.132000
@<TRIPOS>BOND
     1    1    2 1   
     2    1    5 1   
     3    2    3 2   
     4    2    6 1   
     5    3    4 1   
     6    3   10 1   
     7    4    5 2   
     8    4   26 1   
     9    5   19 1   
    10    6    7 1   
    11    6   25 1   
    12    7    8 1   
    13    7    9 2   
    14    8   27 1   
    15    8   28 1   
    16   10   11 2   
    17   10   12 1   
    18   12   13 1   
    19   12   29 1   
    20   13   14 1   
    21   13   18 1   
    22   13   30 1   
    23   14   15 1   
    24   14   31 1   
    25   14   32 1   
    26   15   16 1   
    27   15   35 1   
    28   16   17 1   
    29   16   36 1   
    30   16   37 1   
    31   17   18 1   
    32   17   38 1   
    33   17   39 1   
    34   18   33 1   
    35   18   34 1   
    36   19   20 ar  
    37   19   24 ar  
    38   20   21 ar  
    39   20   40 1   
    40   21   22 ar  
    41   21   42 1   
    42   22   23 ar  
    43   22   43 1   
    44   23   24 ar  
    45   23   44 1   
    46   24   41 1   
@<TRIPOS>SUBSTRUCTURE
     1 YDK         1 TEMP              0 ****  ****    0 ROOT
