@<TRIPOS>MOLECULE
YDP
   82    83     1     0     0
SMALL
bcc


@<TRIPOS>ATOM
      1 N1        -10.3070  193.4330  -95.9030 n4        1 YDP     -0.759400
      2 C5        -10.8610  193.8800  -92.8860 ca        1 YDP     -0.094500
      3 C6        -11.8220  193.7480  -93.8950 ca        1 YDP     -0.116600
      4 C8        -11.5240  194.1010  -95.2960 c         1 YDP      0.554700
      5 C20       -11.2070  193.5810  -91.5680 ca        1 YDP     -0.002000
      6 C24       -13.6040  194.1270  -87.4300 c3        1 YDP      0.099500
      7 C27       -12.4990  193.1450  -91.2380 ca        1 YDP     -0.390500
      8 C18       -13.4480  193.0260  -92.2630 ca        1 YDP     -0.002000
      9 C2        -13.1220  193.3300  -93.5870 ca        1 YDP     -0.094500
     10 S9        -12.8480  192.6000  -89.6710 sy        1 YDP      1.451200
     11 O40       -11.6360  192.3120  -89.0760 o         1 YDP     -0.539300
     12 N32       -13.3880  194.2130  -88.9170 n4        1 YDP     -0.628300
     13 C33       -14.6200  194.7420  -89.5890 c3        1 YDP      0.167000
     14 C34       -15.0720  196.0690  -89.1000 c2        1 YDP     -0.281200
     15 C35       -14.4450  197.2380  -89.3160 c2        1 YDP     -0.007400
     16 C11       -13.1490  197.3750  -90.0220 c3        1 YDP     -0.092400
     17 C25       -14.4330  192.8810  -87.0210 c3        1 YDP      0.110800
     18 N22       -13.4400  191.8330  -86.8400 n3        1 YDP     -0.857200
     19 O11       -13.9820  191.8180  -89.7370 o         1 YDP     -0.539300
     20 O2        -12.1360  194.8440  -96.0410 o         1 YDP     -0.346100
     21 N2         60.0920 -656.0720  276.9240 n4        1 YDP     -0.753400
     22 C3         57.8970 -654.6180  275.2770 ca        1 YDP     -0.099500
     23 O3         60.9030 -653.9080  277.0390 o         1 YDP     -0.320100
     24 C7         59.8140 -653.4960  274.2880 ca        1 YDP     -0.099500
     25 C4         59.2550 -654.2800  275.3070 ca        1 YDP     -0.051600
     26 C9         60.1330 -654.6420  276.4470 c         1 YDP      0.536700
     27 C12       -14.6740  194.2700  -82.2460 c3        1 YDP     -0.075400
     28 C13       -12.7850  193.0180  -81.1600 c3        1 YDP     -0.075400
     29 O12        57.3060 -652.0740  271.0770 o         1 YDP     -0.341400
     30 C19        57.0990 -654.1640  274.2300 ca        1 YDP      0.048000
     31 C21        59.0090 -653.0490  273.2420 ca        1 YDP      0.048000
     32 C23       -12.2320  193.9400  -86.6540 c3        1 YDP      0.173500
     33 C26       -12.2800  192.4460  -86.1960 c3        1 YDP      0.098800
     34 C28        57.6310 -653.3660  273.1880 ca        1 YDP     -0.549500
     35 N36       -12.0480  194.9740  -85.6710 n3        1 YDP     -0.829200
     36 C37       -12.8970  194.9610  -84.4950 c3        1 YDP      0.197000
     37 C38       -12.4570  194.1140  -83.3460 c2        1 YDP     -0.271200
     38 C39       -13.2630  193.8170  -82.3130 c2        1 YDP     -0.060400
     39 O41        55.4160 -653.1820  272.0550 o         1 YDP     -0.341400
     40 HN1        -9.4770  193.6050  -95.3260 hn        1 YDP      0.479467
     41 HN1A      -10.4600  192.4190  -95.9650 hn        1 YDP      0.479467
     42 H5         -9.8400  194.2350  -93.1040 ha        1 YDP      0.176500
     43 H10       -14.2620  199.0930  -88.2530 hc        1 YDP      0.064533
     44 H10A      -15.3480  199.1380  -89.7050 hc        1 YDP      0.064533
     45 H10B      -15.9170  198.3460  -88.1750 hc        1 YDP      0.064533
     46 H20       -10.4340  193.6620  -90.7780 ha        1 YDP      0.192500
     47 H24       -14.1310  195.0710  -87.1060 hx        1 YDP      0.139700
     48 H18       -14.4710  192.6640  -92.0320 ha        1 YDP      0.192500
     49 H2        -13.8910  193.2420  -94.3760 ha        1 YDP      0.176500
     50 H33       -15.4400  193.9800  -89.4260 hx        1 YDP      0.091700
     51 H33A      -14.3880  194.7980  -90.6940 hx        1 YDP      0.091700
     52 H34       -16.0330  196.0490  -88.5560 ha        1 YDP      0.167000
     53 H11       -13.1490  198.3010  -90.6530 hc        1 YDP      0.064533
     54 H11A      -12.9360  196.5030  -90.6890 hc        1 YDP      0.064533
     55 H11B      -12.3190  197.4730  -89.2760 hc        1 YDP      0.064533
     56 H25       -15.1900  192.5520  -87.7830 h1        1 YDP      0.086200
     57 H25A      -14.9940  193.1490  -86.0780 h1        1 YDP      0.086200
     58 HN22      -13.7950  191.0480  -86.3280 hn        1 YDP      0.414800
     59 HN2        60.4100 -656.7060  276.1800 hn        1 YDP      0.487467
     60 HN2A       59.1410 -656.3370  277.2040 hn        1 YDP      0.487467
     61 H3         57.4270 -655.2110  276.0810 ha        1 YDP      0.197000
     62 H7         60.8850 -653.2100  274.3150 ha        1 YDP      0.197000
     63 H12       -15.1320  194.0260  -81.2560 hc        1 YDP      0.054033
     64 H12A      -15.2810  193.7730  -83.0440 hc        1 YDP      0.054033
     65 H12B      -14.7370  195.3770  -82.3990 hc        1 YDP      0.054033
     66 H13       -11.7370  192.6590  -81.3050 hc        1 YDP      0.054033
     67 H13A      -13.4480  192.1290  -81.0060 hc        1 YDP      0.054033
     68 H13B      -12.8180  193.6400  -80.2290 hc        1 YDP      0.054033
     69 H19        56.0200 -654.4300  274.2240 ha        1 YDP      0.209500
     70 H21        59.4670 -652.4230  272.4450 ha        1 YDP      0.209500
     71 H23       -11.3640  194.0390  -87.3720 h1        1 YDP      0.061700
     72 H26       -12.3140  192.3770  -85.0730 h1        1 YDP      0.087700
     73 H26A      -11.3630  191.9070  -86.5610 h1        1 YDP      0.087700
     74 H37       -13.9430  194.6680  -84.8000 h1        1 YDP      0.060700
     75 H37A      -12.9390  196.0370  -84.1420 h1        1 YDP      0.060700
     76 H38       -11.4070  193.7800  -83.3450 ha        1 YDP      0.131000
     77 S10        56.7100 -652.8280  272.0130 s4        1 YDP      1.648300
     78 C10       -15.0280  198.5140  -88.8300 c3        1 YDP     -0.092400
     79 H131      -10.1400  193.8000  -96.8520 hn        1 YDP      0.479467
     80 H321      -12.6580  194.9220  -89.0400 hn        1 YDP      0.448800
     81 H231       60.7190 -656.1820  277.7400 hn        1 YDP      0.487467
     82 H361      -11.0800  195.0280  -85.4060 hn        1 YDP      0.396800
@<TRIPOS>BOND
     1    1    4 1   
     2    1   40 1   
     3    1   41 1   
     4    1   79 1   
     5    2    3 ar  
     6    2    5 ar  
     7    2   42 1   
     8    3    4 1   
     9    3    9 ar  
    10    4   20 2   
    11    5    7 ar  
    12    5   46 1   
    13    6   12 1   
    14    6   17 1   
    15    6   32 1   
    16    6   47 1   
    17    7    8 ar  
    18    7   10 1   
    19    8    9 ar  
    20    8   48 1   
    21    9   49 1   
    22   10   11 2   
    23   10   12 1   
    24   10   19 2   
    25   12   13 1   
    26   12   80 1   
    27   13   14 1   
    28   13   50 1   
    29   13   51 1   
    30   14   15 2   
    31   14   52 1   
    32   15   16 1   
    33   15   78 1   
    34   16   53 1   
    35   16   54 1   
    36   16   55 1   
    37   17   18 1   
    38   17   56 1   
    39   17   57 1   
    40   18   33 1   
    41   18   58 1   
    42   21   26 1   
    43   21   59 1   
    44   21   60 1   
    45   21   81 1   
    46   22   25 ar  
    47   22   30 ar  
    48   22   61 1   
    49   23   26 2   
    50   24   25 ar  
    51   24   31 ar  
    52   24   62 1   
    53   25   26 1   
    54   27   38 1   
    55   27   63 1   
    56   27   64 1   
    57   27   65 1   
    58   28   38 1   
    59   28   66 1   
    60   28   67 1   
    61   28   68 1   
    62   29   77 1   
    63   30   34 ar  
    64   30   69 1   
    65   31   34 ar  
    66   31   70 1   
    67   32   33 1   
    68   32   35 1   
    69   32   71 1   
    70   33   72 1   
    71   33   73 1   
    72   34   77 1   
    73   35   36 1   
    74   35   82 1   
    75   36   37 1   
    76   36   74 1   
    77   36   75 1   
    78   37   38 2   
    79   37   76 1   
    80   39   77 1   
    81   43   78 1   
    82   44   78 1   
    83   45   78 1   
@<TRIPOS>SUBSTRUCTURE
     1 YDP         1 TEMP              0 ****  ****    0 ROOT
