@<TRIPOS>MOLECULE
YDP
   78    71     1     0     0
SMALL
bcc


@<TRIPOS>ATOM
      1 N1         -8.5630   -0.1210    3.4440 n         1 YDP     -0.430000
      2 C5         -6.5420    0.4030    1.4010 c1        1 YDP     -0.080250
      3 C6         -6.2070    0.5510    2.7460 c1        1 YDP     -0.057000
      4 C8         -7.2550    0.3080    3.8140 c2        1 YDP      0.335500
      5 C10        -0.2200    4.8250   -0.7590 c3        1 YDP     -0.188250
      6 C20        -5.5530    0.4520    0.4320 c1        1 YDP     -0.080250
      7 C24        -0.7760   -0.3250    0.8740 c3        1 YDP     -0.004000
      8 C27        -4.2250    0.6500    0.7990 c1        1 YDP     -0.806000
      9 C18        -3.8880    0.7980    2.1450 c1        1 YDP     -0.021000
     10 C2         -4.8760    0.7490    3.1160 c1        1 YDP     -0.107500
     11 S9         -2.9380    0.7040   -0.4660 s4        1 YDP      2.052800
     12 O40        -2.9950   -0.4500   -1.3150 o         1 YDP     -0.539400
     13 N32        -1.4310    0.8620    0.2450 n2        1 YDP     -0.817500
     14 C33        -0.7210    2.1240    0.1640 c3        1 YDP      0.002000
     15 C34        -1.6810    3.2790    0.5260 c2        1 YDP     -0.217000
     16 C35        -1.4260    4.5540    0.0790 c2        1 YDP     -0.091500
     17 C11        -2.3630    5.6750    0.4310 c3        1 YDP     -0.188250
     18 C25        -1.6660   -1.0500    1.4910 c3        1 YDP     -0.111000
     19 N22        -1.1860   -2.4990    1.3260 n3        1 YDP     -0.272000
     20 O11        -3.1820    1.7560   -1.4110 o         1 YDP     -0.539400
     21 O2         -6.9710    0.4350    4.9720 o         1 YDP     -0.357000
     22 N2          8.7700   -2.6410    1.3660 n         1 YDP     -0.430000
     23 C3          5.8980   -2.1970    0.9810 c1        1 YDP     -0.080250
     24 O3          9.0900   -0.5700    0.4140 o         1 YDP     -0.357000
     25 C7          6.3550   -0.0930   -0.1380 c1        1 YDP     -0.107500
     26 C4          6.8080   -1.2160    0.5640 c1        1 YDP     -0.057000
     27 C9          8.2950   -1.4240    0.7770 c2        1 YDP      0.335500
     28 S10         2.4030   -0.4450    0.5450 ss        1 YDP      2.840000
     29 C12         1.4150   -1.0450   -4.9560 c3        1 YDP     -0.188250
     30 C13         1.7070   -3.6690   -4.6440 c3        1 YDP     -0.188250
     31 O12         2.0570   -1.0940    1.7820 o         1 YDP     -0.933000
     32 C19         4.5360   -2.0540    0.6960 c1        1 YDP     -0.080250
     33 C21         4.9830    0.0510   -0.4250 c1        1 YDP     -0.021000
     34 C23        -0.1250   -1.2850   -0.2740 c3        1 YDP     -0.004000
     35 C26        -0.0430   -2.4450    0.2380 c3        1 YDP     -0.111000
     36 C28         4.0790   -0.9240   -0.0110 c1        1 YDP     -0.799000
     37 N36         1.2700   -0.7810   -0.6570 n2        1 YDP     -0.817500
     38 C37         1.6480   -0.6810   -2.0630 c3        1 YDP      0.002000
     39 C38         1.7330   -2.0950   -2.6730 c2        1 YDP     -0.217000
     40 C39         1.6220   -2.2670   -4.0410 c2        1 YDP     -0.091500
     41 O41         2.3580    0.9320    0.9310 o         1 YDP     -0.933000
     42 HN1        -9.2600   -0.0110    4.0240 hn        1 YDP      0.230000
     43 HN1A       -8.7020   -0.5210    2.6300 hn        1 YDP      0.230000
     44 H5         -7.4710    0.2660    1.1420 ha        1 YDP      0.151250
     45 H10         0.5870    4.6330   -0.2400 hc        1 YDP      0.085500
     46 H10A       -0.2180    5.7620   -1.0300 hc        1 YDP      0.085500
     47 H10B       -0.2400    4.2530   -1.5570 hc        1 YDP      0.085500
     48 H20        -5.7880    0.3490   -0.5060 ha        1 YDP      0.151250
     49 H24        -0.0860   -0.0360    1.5000 h1        1 YDP      0.125000
     50 H18        -2.9570    0.9360    2.4020 ha        1 YDP      0.169000
     51 H2         -4.6390    0.8530    4.0640 ha        1 YDP      0.164500
     52 H33         0.0260    2.1160    0.7880 h1        1 YDP      0.108250
     53 H33A       -0.3840    2.2530   -0.7510 h1        1 YDP      0.108250
     54 H34        -2.4690    3.1050    1.0740 ha        1 YDP      0.137000
     55 H11        -3.1000    5.7040   -0.2200 hc        1 YDP      0.085500
     56 H11A       -1.8770    6.5270    0.4130 hc        1 YDP      0.085500
     57 H11B       -2.7270    5.5260    1.3290 hc        1 YDP      0.085500
     58 H25        -2.5430   -0.9340    1.0780 h1        1 YDP      0.104250
     59 H25A       -1.7010   -0.8080    2.4470 h1        1 YDP      0.104250
     60 HN22       -0.8400   -2.8000    2.1190 hn        1 YDP      0.179000
     61 HN2         8.3220   -3.4300    1.2150 hn        1 YDP      0.230000
     62 HN2A        9.5090   -2.6300    1.9120 hn        1 YDP      0.230000
     63 H3          6.2190   -2.9890    1.4760 ha        1 YDP      0.151250
     64 H7          6.9950    0.5970   -0.4310 ha        1 YDP      0.164500
     65 H12         0.5300   -0.6520   -4.7840 hc        1 YDP      0.085500
     66 H12A        2.1100   -0.3770   -4.7720 hc        1 YDP      0.085500
     67 H12B        1.4710   -1.3280   -5.9010 hc        1 YDP      0.085500
     68 H13         1.3180   -4.3150   -4.0230 hc        1 YDP      0.085500
     69 H13A        2.6460   -3.8970   -4.8070 hc        1 YDP      0.085500
     70 H13B        1.2130   -3.6920   -5.4930 hc        1 YDP      0.085500
     71 H19         3.8980   -2.7410    0.9890 ha        1 YDP      0.151250
     72 H21         4.6680    0.8300   -0.9130 ha        1 YDP      0.153000
     73 H23        -0.7050   -1.3070   -1.0650 h1        1 YDP      0.125000
     74 H26         0.8210   -2.5660    0.6550 h1        1 YDP      0.104250
     75 H26A       -0.1940   -3.1420   -0.4560 h1        1 YDP      0.104250
     76 H37         2.5250   -0.2390   -2.1360 h1        1 YDP      0.108250
     77 H37A        0.9800   -0.1600   -2.5430 h1        1 YDP      0.108250
     78 H38         1.8640   -2.8720   -2.0910 ha        1 YDP      0.137000
@<TRIPOS>BOND
     1    1    4 1   
     2    1   42 1   
     3    1   43 1   
     4    2    6 1   
     5    2   44 1   
     6    3    4 1   
     7    3   10 1   
     8    4   21 1   
     9    5   16 1   
    10    5   45 1   
    11    5   46 1   
    12    5   47 1   
    13    6   48 1   
    14    7   13 1   
    15    7   18 1   
    16    7   34 1   
    17    7   49 1   
    18    8    9 1   
    19    8   11 1   
    20    9   50 1   
    21   10   51 1   
    22   11   12 1   
    23   11   20 1   
    24   13   14 1   
    25   14   15 1   
    26   14   52 1   
    27   14   53 1   
    28   15   16 1   
    29   15   54 1   
    30   16   17 1   
    31   17   55 1   
    32   17   56 1   
    33   17   57 1   
    34   18   19 1   
    35   18   58 1   
    36   18   59 1   
    37   19   35 1   
    38   19   60 1   
    39   22   27 1   
    40   22   61 1   
    41   22   62 1   
    42   23   32 1   
    43   23   63 1   
    44   24   27 1   
    45   25   26 1   
    46   25   64 1   
    47   26   27 1   
    48   28   31 1   
    49   28   41 1   
    50   29   40 1   
    51   29   65 1   
    52   29   66 1   
    53   29   67 1   
    54   30   40 1   
    55   30   68 1   
    56   30   69 1   
    57   30   70 1   
    58   32   71 1   
    59   33   36 1   
    60   33   72 1   
    61   34   35 1   
    62   34   37 1   
    63   34   73 1   
    64   35   74 1   
    65   35   75 1   
    66   37   38 1   
    67   38   39 1   
    68   38   76 1   
    69   38   77 1   
    70   39   40 1   
    71   39   78 1   
@<TRIPOS>SUBSTRUCTURE
     1 YDP         1 TEMP              0 ****  ****    0 ROOT
