@<TRIPOS>MOLECULE
YDP
   78    80     1     0     0
SMALL
bcc


@<TRIPOS>ATOM
      1 N1          5.7590    2.3510    0.8490 n         1 YDP     -0.657500
      2 C5          2.8030    2.9470    0.5790 ca        1 YDP     -0.121750
      3 C6          3.3840    1.7640    1.0460 ca        1 YDP     -0.080100
      4 C8          4.7870    1.4030    0.6840 c         1 YDP      0.666700
      5 C20         1.4740    3.2270    0.8880 ca        1 YDP     -0.027500
      6 C24        -2.4120    0.7360    1.1250 c3        1 YDP      0.197500
      7 C27         0.7150    2.3440    1.6630 ca        1 YDP     -0.351500
      8 C18         1.3150    1.1750    2.1380 ca        1 YDP     -0.027500
      9 C2          2.6420    0.8780    1.8320 ca        1 YDP     -0.121750
     10 S9         -0.9040    2.7080    2.0540 sy        1 YDP      1.500700
     11 O40        -1.0430    4.1100    1.9860 o         1 YDP     -0.652050
     12 N32        -1.7400    1.9810    0.8570 n3        1 YDP     -0.798500
     13 C33        -1.8550    2.6170   -0.4340 c3        1 YDP      0.255000
     14 C34        -3.2260    3.0690   -0.8250 c2        1 YDP     -0.216700
     15 C35        -3.5960    3.2370   -2.1050 c2        1 YDP     -0.095900
     16 C11        -4.9520    3.7300   -2.4540 c3        1 YDP     -0.068400
     17 C25        -3.7600    0.8970    1.9090 c3        1 YDP      0.122300
     18 N22        -4.6320   -0.2160    1.5660 n3        1 YDP     -0.781200
     19 O11        -1.1990    2.0980    3.2930 o         1 YDP     -0.652050
     20 O2          5.0770    0.2690    0.2410 o         1 YDP     -0.627600
     21 N2          5.2150   -2.7260   -0.6060 n         1 YDP     -0.657500
     22 C3          1.8920   -3.6990   -1.7940 ca        1 YDP     -0.121750
     23 O3          4.6510   -4.3780   -2.0630 o         1 YDP     -0.627600
     24 C7          2.6580   -1.4320   -1.4200 ca        1 YDP     -0.121750
     25 C4          2.9340   -2.7970   -1.5410 ca        1 YDP     -0.080100
     26 C9          4.3220   -3.3460   -1.4380 c         1 YDP      0.666700
     27 C12        -1.1190   -3.8620    2.9340 c3        1 YDP     -0.068400
     28 C13         0.9520   -2.5250    3.4210 c3        1 YDP     -0.068400
     29 O12        -1.2520   -0.0240   -2.5490 o         1 YDP     -0.652050
     30 C19         0.5850   -3.2350   -1.9020 ca        1 YDP     -0.027500
     31 C21         1.3450   -0.9810   -1.5370 ca        1 YDP     -0.027500
     32 C23        -2.8060   -0.1550   -0.1080 c3        1 YDP      0.197500
     33 C26        -4.2500   -0.6650    0.2360 c3        1 YDP      0.122300
     34 C28         0.2900   -1.8720   -1.7670 ca        1 YDP     -0.351500
     35 N36        -1.8660   -1.1980   -0.4350 n3        1 YDP     -0.798500
     36 C37        -1.6150   -2.2150    0.5530 c3        1 YDP      0.255000
     37 C38        -0.4470   -1.9840    1.4620 c2        1 YDP     -0.216700
     38 C39        -0.2210   -2.7490    2.5420 c2        1 YDP     -0.095900
     39 O41        -2.0120   -2.2870   -2.6810 o         1 YDP     -0.652050
     40 HN1         5.5480    3.2380    1.2280 hn        1 YDP      0.323000
     41 HN1A        6.7000    2.1320    0.6300 hn        1 YDP      0.323000
     42 H5          3.3810    3.6490   -0.0400 ha        1 YDP      0.158750
     43 H10        -2.3520    1.8860   -3.2270 hc        1 YDP      0.047533
     44 H10A       -3.2150    3.1360   -4.2240 hc        1 YDP      0.047533
     45 H10B       -1.7930    3.6090   -3.2040 hc        1 YDP      0.047533
     46 H20         1.0130    4.1660    0.5300 ha        1 YDP      0.159000
     47 H24        -1.7150    0.1330    1.7900 h1        1 YDP      0.082200
     48 H18         0.7310    0.4830    2.7740 ha        1 YDP      0.159000
     49 H2          3.1040   -0.0540    2.1950 ha        1 YDP      0.158750
     50 H33        -1.1910    3.5370   -0.4150 h1        1 YDP      0.061700
     51 H33A       -1.4370    1.9260   -1.2300 h1        1 YDP      0.061700
     52 H34        -3.9240    3.2990   -0.0040 ha        1 YDP      0.131000
     53 H11        -5.4760    2.9810   -3.0980 hc        1 YDP      0.047533
     54 H11A       -5.5750    3.9140   -1.5450 hc        1 YDP      0.047533
     55 H11B       -4.8720    4.6880   -3.0270 hc        1 YDP      0.047533
     56 H25        -3.5540    0.9440    3.0120 h1        1 YDP      0.069200
     57 H25A       -4.2850    1.8430    1.6020 h1        1 YDP      0.069200
     58 HN22       -4.5200   -0.9610    2.2310 hn        1 YDP      0.349800
     59 HN2         6.1500   -3.0500   -0.5860 hn        1 YDP      0.323000
     60 HN2A        5.0070   -1.8540   -0.1850 hn        1 YDP      0.323000
     61 H3          2.1240   -4.7700   -1.9210 ha        1 YDP      0.158750
     62 H7          3.4660   -0.7030   -1.2370 ha        1 YDP      0.158750
     63 H12        -0.6750   -4.4690    3.7600 hc        1 YDP      0.047533
     64 H12A       -2.1030   -3.4580    3.2850 hc        1 YDP      0.047533
     65 H12B       -1.3130   -4.5380    2.0640 hc        1 YDP      0.047533
     66 H13         1.6040   -3.4350    3.4270 hc        1 YDP      0.047533
     67 H13A        1.5660   -1.6550    3.0790 hc        1 YDP      0.047533
     68 H13B        0.6130   -2.3300    4.4690 hc        1 YDP      0.047533
     69 H19        -0.2340   -3.9460   -2.1180 ha        1 YDP      0.159000
     70 H21         1.1310    0.1000   -1.4650 ha        1 YDP      0.159000
     71 H23        -2.9130    0.5020   -1.0260 h1        1 YDP      0.082200
     72 H26        -4.3480   -1.7770    0.1340 h1        1 YDP      0.069200
     73 H26A       -4.9640   -0.1910   -0.4950 h1        1 YDP      0.069200
     74 H37        -2.5380   -2.3550    1.1930 h1        1 YDP      0.061700
     75 H37A       -1.4440   -3.1950    0.0070 h1        1 YDP      0.061700
     76 H38         0.2440   -1.1690    1.1950 ha        1 YDP      0.131000
     77 S10        -1.2870   -1.3130   -1.9680 sy        1 YDP      1.500700
     78 C10        -2.6990    2.9540   -3.2500 c3        1 YDP     -0.068400
@<TRIPOS>BOND
     1    1    4 1   
     2    1   40 1   
     3    1   41 1   
     4    2    3 ar  
     5    2    5 ar  
     6    2   42 1   
     7    3    4 1   
     8    3    9 ar  
     9    4   20 2   
    10    5    7 ar  
    11    5   46 1   
    12    6   12 1   
    13    6   17 1   
    14    6   32 1   
    15    6   47 1   
    16    7    8 ar  
    17    7   10 1   
    18    8    9 ar  
    19    8   48 1   
    20    9   49 1   
    21   10   11 2   
    22   10   12 1   
    23   10   19 2   
    24   12   13 1   
    25   13   14 1   
    26   13   50 1   
    27   13   51 1   
    28   14   15 2   
    29   14   52 1   
    30   15   16 1   
    31   15   78 1   
    32   16   53 1   
    33   16   54 1   
    34   16   55 1   
    35   17   18 1   
    36   17   56 1   
    37   17   57 1   
    38   18   33 1   
    39   18   58 1   
    40   21   26 1   
    41   21   59 1   
    42   21   60 1   
    43   22   25 ar  
    44   22   30 ar  
    45   22   61 1   
    46   23   26 2   
    47   24   25 ar  
    48   24   31 ar  
    49   24   62 1   
    50   25   26 1   
    51   27   38 1   
    52   27   63 1   
    53   27   64 1   
    54   27   65 1   
    55   28   38 1   
    56   28   66 1   
    57   28   67 1   
    58   28   68 1   
    59   29   77 2   
    60   30   34 ar  
    61   30   69 1   
    62   31   34 ar  
    63   31   70 1   
    64   32   33 1   
    65   32   35 1   
    66   32   71 1   
    67   33   72 1   
    68   33   73 1   
    69   34   77 1   
    70   35   36 1   
    71   35   77 1   
    72   36   37 1   
    73   36   74 1   
    74   36   75 1   
    75   37   38 2   
    76   37   76 1   
    77   39   77 2   
    78   43   78 1   
    79   44   78 1   
    80   45   78 1   
@<TRIPOS>SUBSTRUCTURE
     1 YDP         1 TEMP              0 ****  ****    0 ROOT
