@<TRIPOS>MOLECULE
YDR
   45    46     1     0     0
SMALL
bcc


@<TRIPOS>ATOM
      1 C1         -1.7020   -0.6380   -0.4350 c3        1 YDR      0.170200
      2 C2         -2.8250   -1.4520    0.2080 c3        1 YDR      0.098100
      3 O2         -2.3290   -2.3950    1.1450 oh        1 YDR     -0.610800
      4 C3         -3.7500   -0.5200    1.0110 c3        1 YDR      0.122100
      5 O3         -3.1070   -0.0080    2.1660 oh        1 YDR     -0.603800
      6 C4         -4.1980    0.6950    0.1800 c3        1 YDR      0.121100
      7 O4         -5.2240    0.3160   -0.7240 oh        1 YDR     -0.586800
      8 C5         -3.0800    1.3160   -0.6660 c3        1 YDR      0.101100
      9 O5         -2.2350    0.3560   -1.2970 os        1 YDR     -0.391600
     10 C6         -2.2530    2.2920    0.1780 c3        1 YDR      0.105400
     11 O6         -1.2090    2.8670   -0.5790 oh        1 YDR     -0.605800
     12 CAA         4.0240   -1.2200   -0.2570 c3        1 YDR      0.307900
     13 OAB         3.7240   -2.2000    0.7080 oh        1 YDR     -0.625800
     14 CAC         4.2920    0.1020    0.4870 c3        1 YDR      0.094100
     15 OAD         4.9090    1.0360   -0.3850 oh        1 YDR     -0.599800
     16 CAE         2.9900    0.7500    0.9750 c3        1 YDR      0.119100
     17 OAF         3.2010    2.0610    1.4510 oh        1 YDR     -0.591800
     18 CAG         1.9460    0.7570   -0.1540 c3        1 YDR      0.084100
     19 OAH         0.7040    1.2440    0.3250 oh        1 YDR     -0.614800
     20 CAI         1.7110   -0.6800   -0.6470 c3        1 YDR      0.149100
     21 CAJ         0.7190   -0.7390   -1.7980 c3        1 YDR     -0.009300
     22 SAK        -0.7130   -1.7140   -1.4640 ss        1 YDR     -0.275200
     23 OAL         2.9400   -1.2090   -1.1620 os        1 YDR     -0.441600
     24 H1         -1.0610   -0.1590    0.3560 h2        1 YDR      0.097700
     25 H2         -3.4240   -1.9750   -0.5890 h1        1 YDR      0.078700
     26 HO2        -1.6240   -2.8900    0.7030 ho        1 YDR      0.426000
     27 H3         -4.6550   -1.1140    1.3290 h1        1 YDR      0.048700
     28 HO3        -2.6890   -0.7580    2.6120 ho        1 YDR      0.429000
     29 H4         -4.5880    1.4790    0.8920 h1        1 YDR      0.062700
     30 HO4        -5.9760    0.0280   -0.1920 ho        1 YDR      0.403000
     31 H5         -3.5350    1.8530   -1.5510 h1        1 YDR      0.107700
     32 H6         -2.8890    3.1560    0.5060 h1        1 YDR      0.060200
     33 H6A        -1.8300    1.7660    1.0770 h1        1 YDR      0.060200
     34 HO6        -0.7410    2.1400   -1.0160 ho        1 YDR      0.417000
     35 HOAB        3.4540   -2.9990    0.2360 ho        1 YDR      0.427000
     36 HAC         4.9600   -0.1090    1.3690 h1        1 YDR      0.075700
     37 HOAD        5.7920    0.7030   -0.5820 ho        1 YDR      0.415000
     38 HAE         2.5980    0.1760    1.8620 h1        1 YDR      0.104700
     39 HOAF        3.6830    2.5480    0.7670 ho        1 YDR      0.422000
     40 HAG         2.3100    1.4050   -0.9990 h1        1 YDR      0.065700
     41 HOAH        0.8780    2.0900    0.7630 ho        1 YDR      0.437000
     42 HAI         1.3720   -1.3210    0.2140 h1        1 YDR      0.072700
     43 HAJ         0.4090    0.2970   -2.0850 h1        1 YDR      0.101200
     44 HAJA        1.1980   -1.2240   -2.6890 h1        1 YDR      0.101200
     45 HAA         4.9090   -1.5130   -0.8940 h2        1 YDR      0.071700
@<TRIPOS>BOND
     1    1    2 1   
     2    1    9 1   
     3    1   22 1   
     4    1   24 1   
     5    2    3 1   
     6    2    4 1   
     7    2   25 1   
     8    3   26 1   
     9    4    5 1   
    10    4    6 1   
    11    4   27 1   
    12    5   28 1   
    13    6    7 1   
    14    6    8 1   
    15    6   29 1   
    16    7   30 1   
    17    8    9 1   
    18    8   10 1   
    19    8   31 1   
    20   10   11 1   
    21   10   32 1   
    22   10   33 1   
    23   11   34 1   
    24   12   13 1   
    25   12   14 1   
    26   12   23 1   
    27   12   45 1   
    28   13   35 1   
    29   14   15 1   
    30   14   16 1   
    31   14   36 1   
    32   15   37 1   
    33   16   17 1   
    34   16   18 1   
    35   16   38 1   
    36   17   39 1   
    37   18   19 1   
    38   18   20 1   
    39   18   40 1   
    40   19   41 1   
    41   20   21 1   
    42   20   23 1   
    43   20   42 1   
    44   21   22 1   
    45   21   43 1   
    46   21   44 1   
@<TRIPOS>SUBSTRUCTURE
     1 YDR         1 TEMP              0 ****  ****    0 ROOT
