@<TRIPOS>MOLECULE
YDR
   45    46     1     0     0
SMALL
bcc


@<TRIPOS>ATOM
      1 C1         -0.1030   -0.8220   -0.3450 c3        1 YDR      0.170200
      2 C2          1.3680   -0.4180   -0.2350 c3        1 YDR      0.098100
      3 O2          1.8140    0.2810   -1.3870 oh        1 YDR     -0.610800
      4 C3          1.5540    0.5590    0.9390 c3        1 YDR      0.122100
      5 O3          0.9590    1.8180    0.6750 oh        1 YDR     -0.603800
      6 C4          0.9100    0.0280    2.2310 c3        1 YDR      0.121100
      7 O4          1.7380   -0.9660    2.8170 oh        1 YDR     -0.586800
      8 C5         -0.4650   -0.6190    2.0210 c3        1 YDR      0.101100
      9 O5         -0.5430   -1.4370    0.8570 os        1 YDR     -0.391600
     10 C6         -1.5600    0.4530    2.0030 c3        1 YDR      0.105400
     11 O6         -2.8340   -0.1200    1.7980 oh        1 YDR     -0.605800
     12 CAA        -3.7980   -0.6460   -4.7570 c3        1 YDR      0.307900
     13 OAB        -2.7500    0.0510   -5.3880 oh        1 YDR     -0.625800
     14 CAC        -4.7430    0.3960   -4.1290 c3        1 YDR      0.094100
     15 OAD        -5.9710   -0.2140   -3.7660 oh        1 YDR     -0.599800
     16 CAE        -4.1510    0.9910   -2.8440 c3        1 YDR      0.119100
     17 OAF        -5.0960    1.7700   -2.1420 oh        1 YDR     -0.591800
     18 CAG        -3.6110   -0.1280   -1.9400 c3        1 YDR      0.084100
     19 OAH        -2.9560    0.4210   -0.8100 oh        1 YDR     -0.614800
     20 CAI        -2.5680   -0.9540   -2.7120 c3        1 YDR      0.149100
     21 CAJ        -2.0240   -2.1110   -1.8870 c3        1 YDR     -0.009300
     22 SAK        -0.2790   -2.0510   -1.6300 ss        1 YDR     -0.275200
     23 OAL        -3.1910   -1.5490   -3.8580 os        1 YDR     -0.441600
     24 H1         -0.7410    0.0750   -0.5740 h2        1 YDR      0.097700
     25 H2          2.0040   -1.3310   -0.0650 h1        1 YDR      0.078700
     26 HO2         1.5590   -0.2480   -2.1560 ho        1 YDR      0.426000
     27 H3          2.6610    0.7050    1.1010 h1        1 YDR      0.048700
     28 HO3         1.2420    2.0840   -0.2110 ho        1 YDR      0.429000
     29 H4          0.7940    0.8950    2.9440 h1        1 YDR      0.062700
     30 HO4         2.5680   -0.5350    3.0550 ho        1 YDR      0.403000
     31 H5         -0.6580   -1.3620    2.8500 h1        1 YDR      0.107700
     32 H6         -1.3470    1.2130    1.2020 h1        1 YDR      0.060200
     33 H6A        -1.6230    0.9600    3.0020 h1        1 YDR      0.060200
     34 HO6        -2.7620   -0.7050    1.0290 ho        1 YDR      0.417000
     35 HOAB       -2.1060   -0.6040   -5.6880 ho        1 YDR      0.427000
     36 HAC        -4.9210    1.2190   -4.8760 h1        1 YDR      0.075700
     37 HOAD       -6.4190   -0.4630   -4.5830 ho        1 YDR      0.415000
     38 HAE        -3.3240    1.7080   -3.1120 h1        1 YDR      0.104700
     39 HOAF       -5.8930    1.2330   -2.0290 ho        1 YDR      0.422000
     40 HAG        -4.4610   -0.7870   -1.6070 h1        1 YDR      0.065700
     41 HOAH       -3.5690    1.0520   -0.4040 ho        1 YDR      0.437000
     42 HAI        -1.7370   -0.2780   -3.0600 h1        1 YDR      0.072700
     43 HAJ        -2.2050   -3.0790   -2.4240 h1        1 YDR      0.101200
     44 HAJA       -2.5470   -2.1510   -0.9000 h1        1 YDR      0.101200
     45 HAA        -4.3550   -1.3130   -5.4790 h2        1 YDR      0.071700
@<TRIPOS>BOND
     1    1    2 1   
     2    1    9 1   
     3    1   22 1   
     4    1   24 1   
     5    2    3 1   
     6    2    4 1   
     7    2   25 1   
     8    3   26 1   
     9    4    5 1   
    10    4    6 1   
    11    4   27 1   
    12    5   28 1   
    13    6    7 1   
    14    6    8 1   
    15    6   29 1   
    16    7   30 1   
    17    8    9 1   
    18    8   10 1   
    19    8   31 1   
    20   10   11 1   
    21   10   32 1   
    22   10   33 1   
    23   11   34 1   
    24   12   13 1   
    25   12   14 1   
    26   12   23 1   
    27   12   45 1   
    28   13   35 1   
    29   14   15 1   
    30   14   16 1   
    31   14   36 1   
    32   15   37 1   
    33   16   17 1   
    34   16   18 1   
    35   16   38 1   
    36   17   39 1   
    37   18   19 1   
    38   18   20 1   
    39   18   40 1   
    40   19   41 1   
    41   20   21 1   
    42   20   23 1   
    43   20   42 1   
    44   21   22 1   
    45   21   43 1   
    46   21   44 1   
@<TRIPOS>SUBSTRUCTURE
     1 YDR         1 TEMP              0 ****  ****    0 ROOT
