@<TRIPOS>MOLECULE
YE6
   27    27     1     0     0
SMALL
bcc


@<TRIPOS>ATOM
      1 ClAP      316.6310  347.4490  -14.1850 cl        1 YE6      0.048000
      2 CAG       316.0840  345.8630  -13.9820 ca        1 YE6      0.015000
      3 CAH       315.1140  345.4080  -14.8850 ca        1 YE6     -0.138000
      4 CAI       314.5930  344.1220  -14.7800 ca        1 YE6     -0.031000
      5 CAJ       315.0360  343.2690  -13.7620 ca        1 YE6     -0.135000
      6 CAK       315.9940  343.7060  -12.8630 ca        1 YE6     -0.052000
      7 CAF       316.5450  345.0100  -12.9500 ca        1 YE6     -0.133000
      8 CAD       317.5290  345.3490  -11.9680 c2        1 YE6      0.251000
      9 OAN       318.2950  346.4860  -12.1070 os        1 YE6     -0.037000
     10 CAC       317.9050  344.6560  -10.7710 c2        1 YE6     -0.234000
     11 CAB       318.9230  345.3870  -10.1570 c2        1 YE6      0.064000
     12 CAA       319.1690  346.5270  -10.9810 c2        1 YE6     -0.224000
     13 CAE       320.0190  347.5710  -10.8860 c1        1 YE6      0.452000
     14 OAO       320.7650  348.4600  -10.7780 o         1 YE6      0.060000
     15 NAL      -901.3970 -988.1250   26.7080 n8        1 YE6     -0.264000
     16 NAM      -901.8050 -989.3120   26.1110 nz        1 YE6      0.005000
     17 HAH       314.7590  346.0790  -15.6870 ha        1 YE6      0.180000
     18 HAI       313.8290  343.7760  -15.4980 ha        1 YE6      0.172000
     19 HAJ       314.6220  342.2500  -13.6780 ha        1 YE6      0.171000
     20 HAK       316.3390  343.0210  -12.0710 ha        1 YE6      0.152000
     21 HAC       317.4600  343.7290  -10.4060 ha        1 YE6      0.211000
     22 HAB       319.4440  345.1510   -9.2240 ha        1 YE6      0.208000
     23 HNAM     -902.6720 -989.1150   25.5750 hn        1 YE6      0.270000
     24 H8       -900.5200 -988.2500   27.2050 hn        1 YE6      0.225000
     25 H9       -901.0710 -989.5930   25.4330 hn        1 YE6      0.270000
     26 HAL2     -902.1060 -987.7770   27.3460 hn        1 YE6      0.225000
     27 HAM3     -901.9820 -990.1000   26.7560 hn        1 YE6      0.270000
@<TRIPOS>BOND
     1    1    2 1   
     2    2    3 1   
     3    2    7 1   
     4    3    4 1   
     5    3   17 1   
     6    4    5 1   
     7    4   18 1   
     8    5    6 1   
     9    5   19 1   
    10    6    7 1   
    11    6   20 1   
    12    7    8 1   
    13    8    9 1   
    14    8   10 1   
    15    9   12 1   
    16   10   11 1   
    17   10   21 1   
    18   11   12 1   
    19   11   22 1   
    20   12   13 1   
    21   13   14 1   
    22   15   16 1   
    23   15   24 1   
    24   15   26 1   
    25   16   23 1   
    26   16   25 1   
    27   16   27 1   
@<TRIPOS>SUBSTRUCTURE
     1 YE6         1 TEMP              0 ****  ****    0 ROOT
