@<TRIPOS>MOLECULE
YE6
   25    26     1     0     0
SMALL
bcc


@<TRIPOS>ATOM
      1 CLAP        1.3070   -1.9070    1.0760 cl        1 YE6     -0.070400
      2 CAG         2.2220   -0.7430    0.2460 ca        1 YE6      0.047400
      3 CAH         3.5320   -1.0670   -0.1290 ca        1 YE6     -0.131000
      4 CAI         4.3180   -0.1290   -0.7920 ca        1 YE6     -0.105000
      5 CAJ         3.8060    1.1360   -1.0820 ca        1 YE6     -0.134000
      6 CAK         2.5040    1.4610   -0.7140 ca        1 YE6     -0.094000
      7 CAF         1.6950    0.5260   -0.0490 ca        1 YE6     -0.138500
      8 CAD         0.3540    0.9220    0.3270 cc        1 YE6      0.332200
      9 OAN        -0.7100    0.1640   -0.1760 os        1 YE6     -0.344800
     10 CAC        -0.1300    1.9690    1.0980 cd        1 YE6     -0.258300
     11 CAB        -1.5670    1.8660    1.0880 cd        1 YE6     -0.169300
     12 CAA        -1.8800    0.7640    0.3090 cc        1 YE6      0.183200
     13 CAE        -3.1790    0.1860   -0.0590 c         1 YE6      0.560600
     14 OAO        -4.2430    0.7840    0.2000 o         1 YE6     -0.596100
     15 NAL        -3.1860   -1.0880   -0.6430 n         1 YE6     -0.430300
     16 NAM        -4.2810   -1.6540   -1.2160 n3        1 YE6     -0.626800
     17 HAH         3.9380   -2.0630    0.1040 ha        1 YE6      0.152000
     18 HAI         5.3470   -0.3880   -1.0850 ha        1 YE6      0.142000
     19 HAJ         4.4290    1.8770   -1.6050 ha        1 YE6      0.142000
     20 HAK         2.0950    2.4570   -0.9460 ha        1 YE6      0.146000
     21 HAC         0.4520    2.7220    1.6230 ha        1 YE6      0.171000
     22 HAB        -2.2690    2.5260    1.5940 ha        1 YE6      0.180000
     23 HNAM       -4.8680   -2.0230   -0.4740 hn        1 YE6      0.350800
     24 H8         -2.3310   -1.4070   -1.0620 hn        1 YE6      0.340500
     25 H9         -4.8380   -0.9470   -1.6890 hn        1 YE6      0.350800
@<TRIPOS>BOND
     1    1    2 1   
     2    2    3 ar  
     3    2    7 ar  
     4    3    4 ar  
     5    3   17 1   
     6    4    5 ar  
     7    4   18 1   
     8    5    6 ar  
     9    5   19 1   
    10    6    7 ar  
    11    6   20 1   
    12    7    8 1   
    13    8    9 1   
    14    8   10 2   
    15    9   12 1   
    16   10   11 1   
    17   10   21 1   
    18   11   12 2   
    19   11   22 1   
    20   12   13 1   
    21   13   14 2   
    22   13   15 1   
    23   15   16 1   
    24   15   24 1   
    25   16   23 1   
    26   16   25 1   
@<TRIPOS>SUBSTRUCTURE
     1 YE6         1 TEMP              0 ****  ****    0 ROOT
