@<TRIPOS>MOLECULE
YE7
   27    29     1     0     0
SMALL
bcc


@<TRIPOS>ATOM
      1 CAK         1.0890    0.2620    7.2780 cc        1 YE7     -0.116100
      2 NAM         0.4380    0.1040    6.0630 na        1 YE7     -0.011300
      3 CAH        -0.8870   -0.1640    5.7570 cc        1 YE7     -0.066300
      4 CAI        -1.2820   -0.2760    4.4570 cd        1 YE7     -0.144000
      5 CAE        -0.3450   -0.1220    3.3710 ca        1 YE7     -0.034000
      6 CAF        -0.7580   -0.2380    2.0300 ca        1 YE7     -0.118000
      7 CAA         0.1560   -0.0860    1.0010 ca        1 YE7     -0.116000
      8 CAB         1.5030    0.1860    1.2830 ca        1 YE7     -0.127000
      9 CAC         1.9340    0.3050    2.5950 ca        1 YE7     -0.090000
     10 CAD         1.0160    0.1530    3.6480 ca        1 YE7     -0.006000
     11 CAG         1.4240    0.2690    5.0340 cc        1 YE7     -0.016300
     12 NAN         2.6420    0.5220    5.5750 nd        1 YE7     -0.262600
     13 CAJ         2.4450    0.5200    6.9600 cd        1 YE7     -0.034600
     14 CAL         3.4870    0.7420    7.9790 c         1 YE7      0.678300
     15 OAQ         3.2500    0.5660    9.1930 o         1 YE7     -0.620100
     16 NAO         4.7300    1.2220    7.5520 n         1 YE7     -0.430300
     17 NAP         5.8300    1.2930    8.3490 n3        1 YE7     -0.626800
     18 HAK         0.5970    0.1880    8.2480 h4        1 YE7      0.204000
     19 HAH        -1.5690   -0.2740    6.6170 h4        1 YE7      0.167000
     20 HAI        -2.3340   -0.4890    4.2170 ha        1 YE7      0.154000
     21 HAF        -1.8150   -0.4520    1.8100 ha        1 YE7      0.137000
     22 HAA        -0.1720   -0.1780   -0.0460 ha        1 YE7      0.138000
     23 HAB         2.2190    0.3040    0.4560 ha        1 YE7      0.140000
     24 HAC         2.9910    0.5190    2.8210 ha        1 YE7      0.158000
     25 HNAO        4.9740    1.1160    6.5850 hn        1 YE7      0.346500
     26 HAP1        5.7270    2.1020    8.9550 hn        1 YE7      0.347300
     27 HAP2        5.8690    0.4860    8.9660 hn        1 YE7      0.347300
@<TRIPOS>BOND
     1    1    2 1   
     2    1   13 2   
     3    1   18 1   
     4    2    3 1   
     5    2   11 1   
     6    3    4 2   
     7    3   19 1   
     8    4    5 1   
     9    4   20 1   
    10    5    6 ar  
    11    5   10 ar  
    12    6    7 ar  
    13    6   21 1   
    14    7    8 ar  
    15    7   22 1   
    16    8    9 ar  
    17    8   23 1   
    18    9   10 ar  
    19    9   24 1   
    20   10   11 1   
    21   11   12 2   
    22   12   13 1   
    23   13   14 1   
    24   14   15 2   
    25   14   16 1   
    26   16   17 1   
    27   16   25 1   
    28   17   26 1   
    29   17   27 1   
@<TRIPOS>SUBSTRUCTURE
     1 YE7         1 TEMP              0 ****  ****    0 ROOT
