@<TRIPOS>MOLECULE
YE7
   29    30     1     0     0
SMALL
bcc


@<TRIPOS>ATOM
      1 CAK       206.9740   -7.5010  275.9500 cc        1 YE7      0.312500
      2 NAM       206.6650   -7.3840  274.6300 na        1 YE7     -0.046100
      3 CAH       207.4850   -7.2290  273.5080 ca        1 YE7     -0.135300
      4 CAI       206.9260   -7.1330  272.2700 ca        1 YE7     -0.042000
      5 CAE       205.4980   -7.1860  272.0680 ca        1 YE7     -0.052000
      6 CAF       204.9460   -7.0840  270.7810 ca        1 YE7     -0.092000
      7 CAA       203.5670   -7.1370  270.6050 ca        1 YE7     -0.088000
      8 CAB       202.7170   -7.2920  271.7060 ca        1 YE7     -0.096000
      9 CAC       203.2410   -7.3940  272.9920 ca        1 YE7     -0.077000
     10 CAD       204.6290   -7.3420  273.1780 ca        1 YE7     -0.036000
     11 CAG       205.2180   -7.4450  274.5020 ca        1 YE7      0.047700
     12 NAN       204.6330   -7.5970  275.7030 nc        1 YE7     -0.186600
     13 CAJ       205.7100   -7.6350  276.6350 cc        1 YE7     -0.265100
     14 CAL       205.5110   -7.7810  277.9770 c1        1 YE7      0.792600
     15 OAQ       205.3410   -7.9040  279.1200 o         1 YE7     -0.169500
     16 NAO      -638.8420   22.9600 -865.9060 n8        1 YE7     -0.673600
     17 NAP      -639.5620   23.1220 -867.0850 nz        1 YE7     -0.609400
     18 HAK       207.9940   -7.4890  276.3510 h4        1 YE7      0.098800
     19 HAH       208.5710   -7.1930  273.7040 h4        1 YE7      0.192000
     20 HAI       207.5780   -7.0100  271.3870 ha        1 YE7      0.184000
     21 HAF       205.6110   -6.9620  269.9110 ha        1 YE7      0.159000
     22 HAA       203.1400   -7.0570  269.5910 ha        1 YE7      0.165000
     23 HAB       201.6250   -7.3320  271.5550 ha        1 YE7      0.165000
     24 HAC       202.5670   -7.5160  273.8560 ha        1 YE7      0.167000
     25 HNAO     -638.1050   23.6530 -865.8320 hn        1 YE7      0.429800
     26 HAP1     -639.0190   23.0170 -867.9590 hn        1 YE7      0.474800
     27 HAP2     -639.9890   24.0670 -867.0670 hn        1 YE7      0.474800
     28 HAO2     -638.4440   22.0280 -865.8490 hn        1 YE7      0.429800
     29 HAP3     -640.3320   22.4270 -867.0830 hn        1 YE7      0.474800
@<TRIPOS>BOND
     1    1    2 2   
     2    1   13 1   
     3    1   18 1   
     4    2    3 1   
     5    2   11 1   
     6    3    4 ar  
     7    3   19 1   
     8    4    5 ar  
     9    4   20 1   
    10    5    6 ar  
    11    5   10 ar  
    12    6    7 ar  
    13    6   21 1   
    14    7    8 ar  
    15    7   22 1   
    16    8    9 ar  
    17    8   23 1   
    18    9   10 ar  
    19    9   24 1   
    20   10   11 ar  
    21   11   12 2   
    22   12   13 1   
    23   13   14 2   
    24   14   15 2   
    25   16   17 1   
    26   16   25 1   
    27   16   28 1   
    28   17   26 1   
    29   17   27 1   
    30   17   29 1   
@<TRIPOS>SUBSTRUCTURE
     1 YE7         1 TEMP              0 ****  ****    0 ROOT
