@<TRIPOS>MOLECULE
YE7
   29    30     1     0     0
SMALL
bcc


@<TRIPOS>ATOM
      1 CAK       229.7400  -17.6820  476.3110 cc        1 YE7      0.312500
      2 NAM       228.6360  -17.6330  475.5190 na        1 YE7     -0.046100
      3 CAH       228.5090  -17.5710  474.1270 ca        1 YE7     -0.135300
      4 CAI       227.2710  -17.5290  473.5620 ca        1 YE7     -0.042000
      5 CAE       226.0650  -17.5470  474.3560 ca        1 YE7     -0.052000
      6 CAF       224.8000  -17.5030  473.7500 ca        1 YE7     -0.092000
      7 CAA       223.6480  -17.5200  474.5300 ca        1 YE7     -0.088000
      8 CAB       223.7390  -17.5820  475.9250 ca        1 YE7     -0.096000
      9 CAC       224.9820  -17.6260  476.5500 ca        1 YE7     -0.077000
     10 CAD       226.1470  -17.6090  475.7700 ca        1 YE7     -0.036000
     11 CAG       227.4650  -17.6530  476.3800 ca        1 YE7      0.047700
     12 NAN       227.8210  -17.7140  477.6750 nc        1 YE7     -0.186600
     13 CAJ       229.2450  -17.7340  477.6660 cc        1 YE7     -0.265100
     14 CAL       229.9830  -17.7940  478.8120 c1        1 YE7      0.792600
     15 OAQ       230.6120  -17.8450  479.7880 o         1 YE7     -0.169500
     16 NAO      -706.3510   55.1560-1501.3250 n3        1 YE7     -0.673600
     17 NAP      -707.6080   55.3460-1501.8900 n4        1 YE7     -0.609400
     18 HAK       230.7710  -17.6810  475.9380 h4        1 YE7      0.098800
     19 HAH       229.4530  -17.5590  473.5550 h4        1 YE7      0.192000
     20 HAI       227.1760  -17.4800  472.4630 ha        1 YE7      0.184000
     21 HAF       224.7240  -17.4540  472.6510 ha        1 YE7      0.159000
     22 HAA       222.6570  -17.4860  474.0470 ha        1 YE7      0.165000
     23 HAB       222.8200  -17.5960  476.5350 ha        1 YE7      0.165000
     24 HAC       225.0480  -17.6740  477.6490 ha        1 YE7      0.167000
     25 HNAO     -705.8330   56.0290-1501.2920 hn        1 YE7      0.429800
     26 HAP1     -707.6130   55.6890-1502.8660 hn        1 YE7      0.474800
     27 HAP2     -708.1240   56.0200-1501.2940 hn        1 YE7      0.474800
     28 HAO2     -705.8210   54.4620-1501.8430 hn        1 YE7      0.429800
     29 HAP3     -708.1120   54.4400-1501.8510 hn        1 YE7      0.474800
@<TRIPOS>BOND
     1    1    2 2   
     2    1   13 1   
     3    1   18 1   
     4    2    3 1   
     5    2   11 1   
     6    3    4 ar  
     7    3   19 1   
     8    4    5 ar  
     9    4   20 1   
    10    5    6 ar  
    11    5   10 ar  
    12    6    7 ar  
    13    6   21 1   
    14    7    8 ar  
    15    7   22 1   
    16    8    9 ar  
    17    8   23 1   
    18    9   10 ar  
    19    9   24 1   
    20   10   11 ar  
    21   11   12 2   
    22   12   13 1   
    23   13   14 2   
    24   14   15 2   
    25   16   17 1   
    26   16   25 1   
    27   16   28 1   
    28   17   26 1   
    29   17   27 1   
    30   17   29 1   
@<TRIPOS>SUBSTRUCTURE
     1 YE7         1 TEMP              0 ****  ****    0 ROOT
