@<TRIPOS>MOLECULE
YEG
   16    16     1     0     0
SMALL
bcc


@<TRIPOS>ATOM
      1 C01         1.5000    0.7720   -0.0040 c3        1 YEG     -0.076900
      2 C02         1.4900   -0.7410   -0.1830 c3        1 YEG     -0.076900
      3 C03         0.0870   -1.2380    0.1360 c3        1 YEG     -0.097400
      4 C04        -0.7940   -0.0060    0.3720 c3        1 YEG      0.140100
      5 C05         0.0510    1.2300    0.0420 c3        1 YEG     -0.097400
      6 O06        -1.9270   -0.1230   -0.4760 oh        1 YEG     -0.598800
      7 H01         2.0210    1.0450    0.9480 hc        1 YEG      0.042450
      8 H01A        2.0490    1.2700   -0.8400 hc        1 YEG      0.042450
      9 H02         1.7630   -1.0070   -1.2350 hc        1 YEG      0.042450
     10 H02A        2.2440   -1.2220    0.4880 hc        1 YEG      0.042450
     11 H03        -0.3270   -1.8430   -0.7110 hc        1 YEG      0.052200
     12 H03A        0.0880   -1.8830    1.0480 hc        1 YEG      0.052200
     13 H04        -1.1440    0.0330    1.4410 h1        1 YEG      0.032700
     14 H05        -0.0960    2.0290    0.8080 hc        1 YEG      0.052200
     15 H05A       -0.2610    1.6450   -0.9500 hc        1 YEG      0.052200
     16 HO06       -2.4370    0.6890   -0.3720 ho        1 YEG      0.398000
@<TRIPOS>BOND
     1    1    2 1   
     2    1    5 1   
     3    1    7 1   
     4    1    8 1   
     5    2    3 1   
     6    2    9 1   
     7    2   10 1   
     8    3    4 1   
     9    3   11 1   
    10    3   12 1   
    11    4    5 1   
    12    4    6 1   
    13    4   13 1   
    14    5   14 1   
    15    5   15 1   
    16    6   16 1   
@<TRIPOS>SUBSTRUCTURE
     1 YEG         1 TEMP              0 ****  ****    0 ROOT
