@<TRIPOS>MOLECULE
YEG
   16    16     1     0     0
SMALL
bcc


@<TRIPOS>ATOM
      1 C01         0.0750   -0.3030   -0.0300 c3        1 YEG     -0.076900
      2 C02         1.5220    0.1630    0.0720 c3        1 YEG     -0.076900
      3 C03         1.9270    0.0610    1.5330 c3        1 YEG     -0.097400
      4 C04         0.6300    0.0050    2.3500 c3        1 YEG      0.140100
      5 C05        -0.5080   -0.3200    1.3750 c3        1 YEG     -0.097400
      6 O06         0.6590   -1.0220    3.3300 oh        1 YEG     -0.598800
      7 H01         0.0310   -1.3280   -0.4770 hc        1 YEG      0.042450
      8 H01A       -0.5120    0.3760   -0.6960 hc        1 YEG      0.042450
      9 H02         1.6120    1.2220   -0.2810 hc        1 YEG      0.042450
     10 H02A        2.1900   -0.4600   -0.5720 hc        1 YEG      0.042450
     11 H03         2.5540    0.9330    1.8410 hc        1 YEG      0.052200
     12 H03A        2.5240   -0.8690    1.7110 hc        1 YEG      0.052200
     13 H04         0.4460    0.9900    2.8610 h1        1 YEG      0.032700
     14 H05        -0.9400   -1.3240    1.6190 hc        1 YEG      0.052200
     15 H05A       -1.3230    0.4360    1.4800 hc        1 YEG      0.052200
     16 HO06        1.4210   -0.8470    3.8940 ho        1 YEG      0.398000
@<TRIPOS>BOND
     1    1    2 1   
     2    1    5 1   
     3    1    7 1   
     4    1    8 1   
     5    2    3 1   
     6    2    9 1   
     7    2   10 1   
     8    3    4 1   
     9    3   11 1   
    10    3   12 1   
    11    4    5 1   
    12    4    6 1   
    13    4   13 1   
    14    5   14 1   
    15    5   15 1   
    16    6   16 1   
@<TRIPOS>SUBSTRUCTURE
     1 YEG         1 TEMP              0 ****  ****    0 ROOT
