@<TRIPOS>MOLECULE
YEJ
   57    60     1     0     0
SMALL
bcc


@<TRIPOS>ATOM
      1 O3          2.1990   -3.4360   -1.7360 o         1 YEJ     -0.658500
      2 C19         2.6730   -2.3690   -1.2910 c         1 YEJ      0.690700
      3 C1          3.1160   -2.1820    0.1070 cc        1 YEJ     -0.151400
      4 C           3.0010   -3.3620    0.9880 c3        1 YEJ     -0.051900
      5 N3          2.7890   -1.2830   -2.1630 n         1 YEJ     -0.419100
      6 C18         3.2660   -0.0520   -1.7460 ca        1 YEJ     -0.005700
      7 C3          3.6740    0.1330   -0.3960 ca        1 YEJ     -0.098800
      8 C2          3.5880   -0.9800    0.5150 cd        1 YEJ     -0.058200
      9 C6          3.3640    1.0900   -2.6420 ca        1 YEJ      0.547200
     10 N           3.8240    2.2870   -2.2150 nb        1 YEJ     -0.674000
     11 C5          4.1890    2.4250   -0.9230 ca        1 YEJ      0.370200
     12 C4          4.1400    1.3930    0.0120 ca        1 YEJ     -0.198300
     13 N1          2.9000    0.9270   -3.9890 nh        1 YEJ     -0.807900
     14 C7          3.9060    0.3840   -4.9040 c3        1 YEJ      0.176500
     15 C11         3.2470   -0.5530   -5.9520 c3        1 YEJ      0.150100
     16 C10         4.3070   -1.0960   -6.9320 c3        1 YEJ      0.130800
     17 N2          5.0930   -0.0550   -7.5570 n3        1 YEJ     -0.818200
     18 C9          5.7130    0.8450   -6.6050 c3        1 YEJ      0.163800
     19 C8          4.7020    1.4660   -5.6480 c3        1 YEJ     -0.107400
     20 O           2.7150   -1.6570   -5.2180 os        1 YEJ     -0.436600
     21 C12         1.7490   -2.4220   -5.9410 c3        1 YEJ      0.139400
     22 C13         1.0650   -3.3170   -4.9110 c3        1 YEJ     -0.098700
     23 C17         0.6680   -4.6420   -5.5450 c3        1 YEJ     -0.041900
     24 C16         0.0500   -5.5690   -4.5240 c3        1 YEJ     -0.320100
     25 S          -1.3640   -4.9570   -3.7880 s6        1 YEJ      1.325000
     26 O1         -1.6920   -5.7620   -2.6870 o         1 YEJ     -0.656800
     27 O2         -2.3680   -4.7740   -4.7520 o         1 YEJ     -0.656800
     28 C15        -0.7880   -3.4530   -3.2390 c3        1 YEJ     -0.320100
     29 C14        -0.1520   -2.6150   -4.3240 c3        1 YEJ     -0.041900
     30 H3          2.4930   -1.4040   -3.1150 hn        1 YEJ      0.372500
     31 HC1         3.6260   -4.1990    0.5860 hc        1 YEJ      0.057033
     32 HC2         3.3340   -3.1260    2.0280 hc        1 YEJ      0.057033
     33 HC3         1.9390   -3.7150    1.0160 hc        1 YEJ      0.057033
     34 H2          3.9190   -0.8170    1.5530 ha        1 YEJ      0.146000
     35 H4          4.4560    1.5560    1.0510 ha        1 YEJ      0.149000
     36 H1          2.5170    1.7830   -4.3520 hn        1 YEJ      0.392800
     37 H5          4.5450    3.4340   -0.6450 h4        1 YEJ      0.028100
     38 H7          4.6270   -0.2520   -4.3090 h1        1 YEJ      0.071700
     39 H11         2.4330   -0.0170   -6.5090 h1        1 YEJ      0.060700
     40 H81C        4.0010    2.1310   -6.2190 hc        1 YEJ      0.061200
     41 H82C        5.2530    2.1030   -4.9080 hc        1 YEJ      0.061200
     42 H101        4.9410   -1.8410   -6.3650 h1        1 YEJ      0.039700
     43 H102        3.7750   -1.6570   -7.7510 h1        1 YEJ      0.039700
     44 HA          5.7890   -0.4630   -8.1530 hn        1 YEJ      0.369800
     45 H91C        6.5140    0.3340   -5.9930 h1        1 YEJ      0.034200
     46 H92C        6.2090    1.6680   -7.1950 h1        1 YEJ      0.034200
     47 H121        1.0130   -1.7450   -6.4490 h1        1 YEJ      0.035700
     48 H122        2.2840   -3.0330   -6.7160 h1        1 YEJ      0.035700
     49 H13         1.7980   -3.5180   -4.0730 hc        1 YEJ      0.098700
     50 H171       -0.0630   -4.4620   -6.3790 hc        1 YEJ      0.057950
     51 H172        1.5740   -5.1290   -5.9910 hc        1 YEJ      0.057950
     52 H141        0.1710   -1.6270   -3.9020 hc        1 YEJ      0.057950
     53 H142       -0.9050   -2.4100   -5.1310 hc        1 YEJ      0.057950
     54 H161       -0.1770   -6.5460   -5.0310 h1        1 YEJ      0.124700
     55 H162        0.8260   -5.8110   -3.7470 h1        1 YEJ      0.124700
     56 H151       -1.6260   -2.8600   -2.7820 h1        1 YEJ      0.124700
     57 H152       -0.0320   -3.5860   -2.4120 h1        1 YEJ      0.124700
@<TRIPOS>BOND
     1    1    2 2   
     2    2    3 1   
     3    2    5 1   
     4    3    4 1   
     5    3    8 2   
     6    4   31 1   
     7    4   32 1   
     8    4   33 1   
     9    5    6 1   
    10    5   30 1   
    11    6    7 ar  
    12    6    9 ar  
    13    7    8 1   
    14    7   12 ar  
    15    8   34 1   
    16    9   10 ar  
    17    9   13 1   
    18   10   11 ar  
    19   11   12 ar  
    20   11   37 1   
    21   12   35 1   
    22   13   14 1   
    23   13   36 1   
    24   14   15 1   
    25   14   19 1   
    26   14   38 1   
    27   15   16 1   
    28   15   20 1   
    29   15   39 1   
    30   16   17 1   
    31   16   42 1   
    32   16   43 1   
    33   17   18 1   
    34   17   44 1   
    35   18   19 1   
    36   18   45 1   
    37   18   46 1   
    38   19   40 1   
    39   19   41 1   
    40   20   21 1   
    41   21   22 1   
    42   21   47 1   
    43   21   48 1   
    44   22   23 1   
    45   22   29 1   
    46   22   49 1   
    47   23   24 1   
    48   23   50 1   
    49   23   51 1   
    50   24   25 1   
    51   24   54 1   
    52   24   55 1   
    53   25   26 2   
    54   25   27 2   
    55   25   28 1   
    56   28   29 1   
    57   28   56 1   
    58   28   57 1   
    59   29   52 1   
    60   29   53 1   
@<TRIPOS>SUBSTRUCTURE
     1 YEJ         1 TEMP              0 ****  ****    0 ROOT
