@<TRIPOS>MOLECULE
YEJ
   57    60     1     0     0
SMALL
bcc


@<TRIPOS>ATOM
      1 O3          1.7770   -3.0830   -1.5900 o         1 YEJ     -0.658500
      2 C19         2.5550   -2.1880   -1.1970 c         1 YEJ      0.692700
      3 C1          3.1780   -2.1650    0.1440 cc        1 YEJ     -0.151400
      4 C           2.8550   -3.3040    1.0290 c3        1 YEJ     -0.050900
      5 N3          2.8590   -1.1420   -2.0720 ns        1 YEJ     -0.420100
      6 C18         3.6720   -0.0850   -1.7030 ca        1 YEJ     -0.004700
      7 C3          4.2610   -0.0570   -0.4090 ca        1 YEJ     -0.098800
      8 C2          3.9880   -1.1410    0.5010 cd        1 YEJ     -0.058200
      9 C6          3.9530    1.0300   -2.5960 ca        1 YEJ      0.547200
     10 N           4.7520    2.0530   -2.2190 nb        1 YEJ     -0.674000
     11 C5          5.2870    2.0450   -0.9810 ca        1 YEJ      0.370200
     12 C4          5.0790    1.0270   -0.0510 ca        1 YEJ     -0.198300
     13 N1          3.3020    1.0450   -3.8730 nu        1 YEJ     -0.809900
     14 C7          4.0180    0.3140   -4.9200 c3        1 YEJ      0.173500
     15 C11         3.0160   -0.3830   -5.8800 c3        1 YEJ      0.149100
     16 C10         3.7690   -1.1170   -7.0090 c3        1 YEJ      0.134800
     17 N2          4.6950   -0.2640   -7.7220 n7        1 YEJ     -0.819200
     18 C9          5.6430    0.4020   -6.8520 c3        1 YEJ      0.163800
     19 C8          4.9580    1.2020   -5.7490 c3        1 YEJ     -0.107400
     20 O           2.3370   -1.3770   -5.1090 os        1 YEJ     -0.436600
     21 C12         1.0110   -1.6460   -5.5660 c3        1 YEJ      0.138400
     22 C13         0.4640   -2.7440   -4.6590 c3        1 YEJ     -0.094700
     23 C17         1.0860   -4.0880   -5.0100 c3        1 YEJ     -0.040900
     24 C16         0.6290   -5.1570   -4.0450 c3        1 YEJ     -0.319100
     25 S          -1.0500   -5.4250   -4.0720 s6        1 YEJ      1.323000
     26 O1         -1.4170   -6.2170   -2.9730 o         1 YEJ     -0.657300
     27 O2         -1.4520   -5.8820   -5.3360 o         1 YEJ     -0.657300
     28 C15        -1.6200   -3.8330   -3.8180 c3        1 YEJ     -0.319100
     29 C14        -1.0520   -2.8080   -4.7720 c3        1 YEJ     -0.040900
     30 H3          2.4540   -1.1550   -2.9910 hn        1 YEJ      0.371500
     31 HC1         1.7460   -3.3850    1.1570 hc        1 YEJ      0.057033
     32 HC2         3.2150   -4.2580    0.5680 hc        1 YEJ      0.057033
     33 HC3         3.3290   -3.1840    2.0330 hc        1 YEJ      0.057033
     34 H2          4.4600   -1.1030    1.4960 ha        1 YEJ      0.146000
     35 H4          5.5400    1.0680    0.9450 ha        1 YEJ      0.149000
     36 H1          3.1040    1.9850   -4.1710 hn        1 YEJ      0.391800
     37 H5          5.9220    2.9170   -0.7420 h4        1 YEJ      0.028100
     38 H7          4.6270   -0.5060   -4.4360 h1        1 YEJ      0.071700
     39 H11         2.2930    0.3620   -6.3060 h1        1 YEJ      0.062700
     40 H81C        5.7440    1.6410   -5.0820 hc        1 YEJ      0.060700
     41 H82C        4.3800    2.0490   -6.2040 hc        1 YEJ      0.060700
     42 H101        3.0110   -1.4940   -7.7520 h1        1 YEJ      0.040700
     43 H102        4.2720   -2.0180   -6.5490 h1        1 YEJ      0.040700
     44 HA          5.1800   -0.7950   -8.4210 hn        1 YEJ      0.369800
     45 H91C        6.3630   -0.3240   -6.3690 h1        1 YEJ      0.034200
     46 H92C        6.2480    1.1070   -7.4900 h1        1 YEJ      0.034200
     47 H121        0.3910   -0.7140   -5.4810 h1        1 YEJ      0.035700
     48 H122        1.0380   -1.9780   -6.6360 h1        1 YEJ      0.035700
     49 H13         0.7430   -2.4950   -3.5920 hc        1 YEJ      0.091700
     50 H171        0.8080   -4.3800   -6.0580 hc        1 YEJ      0.058200
     51 H172        2.2020   -3.9890   -4.9700 hc        1 YEJ      0.058200
     52 H141       -1.3450   -3.0690   -5.8240 hc        1 YEJ      0.058200
     53 H142       -1.4880   -1.8010   -4.5420 hc        1 YEJ      0.058200
     54 H161        0.9820   -4.8670   -3.0130 h1        1 YEJ      0.124700
     55 H162        1.1770   -6.1070   -4.2850 h1        1 YEJ      0.124700
     56 H151       -1.4030   -3.5020   -2.7660 h1        1 YEJ      0.124700
     57 H152       -2.7400   -3.8130   -3.9100 h1        1 YEJ      0.124700
@<TRIPOS>BOND
     1    1    2 2   
     2    2    3 1   
     3    2    5 1   
     4    3    4 1   
     5    3    8 2   
     6    4   31 1   
     7    4   32 1   
     8    4   33 1   
     9    5    6 1   
    10    5   30 1   
    11    6    7 ar  
    12    6    9 ar  
    13    7    8 1   
    14    7   12 ar  
    15    8   34 1   
    16    9   10 ar  
    17    9   13 1   
    18   10   11 ar  
    19   11   12 ar  
    20   11   37 1   
    21   12   35 1   
    22   13   14 1   
    23   13   36 1   
    24   14   15 1   
    25   14   19 1   
    26   14   38 1   
    27   15   16 1   
    28   15   20 1   
    29   15   39 1   
    30   16   17 1   
    31   16   42 1   
    32   16   43 1   
    33   17   18 1   
    34   17   44 1   
    35   18   19 1   
    36   18   45 1   
    37   18   46 1   
    38   19   40 1   
    39   19   41 1   
    40   20   21 1   
    41   21   22 1   
    42   21   47 1   
    43   21   48 1   
    44   22   23 1   
    45   22   29 1   
    46   22   49 1   
    47   23   24 1   
    48   23   50 1   
    49   23   51 1   
    50   24   25 1   
    51   24   54 1   
    52   24   55 1   
    53   25   26 2   
    54   25   27 2   
    55   25   28 1   
    56   28   29 1   
    57   28   56 1   
    58   28   57 1   
    59   29   52 1   
    60   29   53 1   
@<TRIPOS>SUBSTRUCTURE
     1 YEJ         1 TEMP              0 ****  ****    0 ROOT
