@<TRIPOS>MOLECULE
YEN
   65    64     1     0     0
SMALL
bcc


@<TRIPOS>ATOM
      1 C1         -3.4340   -0.0720   -1.3550 ca        1 YEN     -0.069500
      2 C2         -4.6530    0.1770   -1.9420 ca        1 YEN     -0.318500
      3 C3         -5.7930    0.5990   -1.1660 ca        1 YEN      0.313000
      4 C4         -5.5660    0.7280    0.2540 ca        1 YEN     -0.318500
      5 C5         -4.3360    0.4740    0.8080 ca        1 YEN     -0.069500
      6 C6         -3.2270    0.0870    0.0250 ca        1 YEN     -0.326000
      7 O1         -6.9210    0.8370   -1.7030 o         1 YEN     -0.545000
      8 P1         -9.1210    1.4690   -1.6090 p3        1 YEN      2.497000
      9 O2         -9.0250    2.6310   -2.5220 o         1 YEN     -1.174333
     10 O3         -9.7080    0.2130   -2.1330 o         1 YEN     -1.174333
     11 O4         -9.1730    1.7190   -0.1500 o         1 YEN     -1.174333
     12 C7         -1.9350   -0.2190    0.6820 c3        1 YEN     -0.063000
     13 C8         -0.7030    0.2480   -0.0900 c3        1 YEN     -0.107000
     14 C9          0.5660   -0.0440    0.7160 c2        1 YEN      0.296000
     15 O5          0.5590   -0.2150    1.9490 o         1 YEN     -0.361000
     16 C10        -0.7510    1.7010   -0.5290 c3        1 YEN     -0.175000
     17 C11        -0.8810    2.7200    0.5900 c2        1 YEN      0.308000
     18 N1         -2.1340    2.9310    1.1140 n         1 YEN     -0.369000
     19 C12        -2.3720    3.8130    2.2070 c3        1 YEN     -0.068000
     20 O7          0.1050    3.4000    0.9590 o         1 YEN     -0.423000
     21 N2          1.7400   -0.1950   -0.0250 n         1 YEN     -0.364000
     22 C13         3.0390   -0.2500    0.6280 c3        1 YEN      0.024000
     23 C14         4.1300    0.1470   -0.4010 c2        1 YEN      0.286000
     24 O8          3.9360    1.1410   -1.1480 o         1 YEN     -0.443000
     25 C15         3.2970   -1.5980    1.3240 c3        1 YEN     -0.155000
     26 C16         4.3440   -1.4790    2.4130 c3        1 YEN     -0.230000
     27 C17         5.3790   -2.6070    2.3660 c2        1 YEN      0.321000
     28 O9          6.1330   -2.6910    1.3350 o         1 YEN     -0.586000
     29 O10         5.5000   -3.3820    3.3500 o         1 YEN     -0.586000
     30 N3          5.2910   -0.5720   -0.4920 n         1 YEN     -0.371000
     31 C18         6.3610   -0.1880   -1.3770 c3        1 YEN      0.035000
     32 C19         6.1530   -0.6940   -2.8300 c2        1 YEN      0.288000
     33 O12         7.0190   -1.3670   -3.4310 o         1 YEN     -0.417000
     34 C20         7.7300   -0.6930   -0.8980 c3        1 YEN     -0.185000
     35 C21         8.2200    0.1140    0.2890 c2        1 YEN      0.300000
     36 O13         9.0080    1.0800    0.1340 o         1 YEN     -0.448000
     37 N4          7.7940   -0.2450    1.5320 n         1 YEN     -0.421000
     38 N5          5.0020   -0.3320   -3.4730 n         1 YEN     -0.427000
     39 H1         -2.5920   -0.4050   -1.9840 ha        1 YEN      0.072000
     40 H2         -4.7930    0.0540   -3.0230 ha        1 YEN      0.125000
     41 H3         -6.4250    1.0330    0.8680 ha        1 YEN      0.125000
     42 H4         -4.2020    0.5660    1.8980 ha        1 YEN      0.072000
     43 H7         -1.9060    0.2250    1.7140 hc        1 YEN      0.071500
     44 H8         -1.8330   -1.3330    0.8170 hc        1 YEN      0.071500
     45 H9         -0.6600   -0.3670   -1.0380 hc        1 YEN      0.103000
     46 H11         0.1840    1.9570   -1.0930 hc        1 YEN      0.114500
     47 H12        -1.6270    1.8070   -1.2310 hc        1 YEN      0.114500
     48 H13        -2.8760    2.3140    0.8410 hn        1 YEN      0.273000
     49 H14        -1.5400    4.5620    2.2910 h1        1 YEN      0.070000
     50 H15        -3.3430    4.3530    2.0420 h1        1 YEN      0.070000
     51 H16        -2.4410    3.2470    3.1760 h1        1 YEN      0.070000
     52 H17         1.7440    0.2340   -0.9250 hn        1 YEN      0.218000
     53 H19         3.0830    0.5580    1.4260 h1        1 YEN      0.116000
     54 H20         2.3340   -1.9430    1.7910 hc        1 YEN      0.103500
     55 H21         3.5890   -2.3780    0.5740 hc        1 YEN      0.103500
     56 H22         4.9010   -0.5090    2.3290 hc        1 YEN      0.076500
     57 H23         3.8440   -1.4900    3.4150 hc        1 YEN      0.076500
     58 H26         5.4480   -1.3830    0.0930 hn        1 YEN      0.304000
     59 H28         6.3910    0.9450   -1.4440 h1        1 YEN      0.126000
     60 H29         7.6730   -1.7870   -0.6440 hc        1 YEN      0.136000
     61 H30         8.4680   -0.5640   -1.7330 hc        1 YEN      0.136000
     62 H31         7.2140   -1.0500    1.6660 hn        1 YEN      0.245000
     63 H32         8.1050    0.2630    2.3200 hn        1 YEN      0.245000
     64 H34         4.3100    0.2170   -3.0190 hn        1 YEN      0.231500
     65 H35         4.8260   -0.6670   -4.3850 hn        1 YEN      0.231500
@<TRIPOS>BOND
     1    1    2 1   
     2    1    6 1   
     3    1   39 1   
     4    2    3 1   
     5    2   40 1   
     6    3    4 1   
     7    3    7 1   
     8    4    5 1   
     9    4   41 1   
    10    5    6 1   
    11    5   42 1   
    12    6   12 1   
    13    8    9 1   
    14    8   10 1   
    15    8   11 1   
    16   12   13 1   
    17   12   43 1   
    18   12   44 1   
    19   13   14 1   
    20   13   16 1   
    21   13   45 1   
    22   14   15 1   
    23   14   21 1   
    24   16   17 1   
    25   16   46 1   
    26   16   47 1   
    27   17   18 1   
    28   17   20 1   
    29   18   19 1   
    30   18   48 1   
    31   19   49 1   
    32   19   50 1   
    33   19   51 1   
    34   21   22 1   
    35   21   52 1   
    36   22   23 1   
    37   22   25 1   
    38   22   53 1   
    39   23   24 1   
    40   23   30 1   
    41   25   26 1   
    42   25   54 1   
    43   25   55 1   
    44   26   27 1   
    45   26   56 1   
    46   26   57 1   
    47   27   28 1   
    48   27   29 1   
    49   30   31 1   
    50   30   58 1   
    51   31   32 1   
    52   31   34 1   
    53   31   59 1   
    54   32   33 1   
    55   32   38 1   
    56   34   35 1   
    57   34   60 1   
    58   34   61 1   
    59   35   36 1   
    60   35   37 1   
    61   37   62 1   
    62   37   63 1   
    63   38   64 1   
    64   38   65 1   
@<TRIPOS>SUBSTRUCTURE
     1 YEN         1 TEMP              0 ****  ****    0 ROOT
