@<TRIPOS>MOLECULE
YEN
   65    62     1     0     0
SMALL
bcc


@<TRIPOS>ATOM
      1 C1          4.0570    1.1570   -1.2250 c1        1 YEN     -0.001500
      2 C2          5.3480    1.0250   -1.7270 c1        1 YEN     -0.280500
      3 C3          6.3950    1.7140   -1.1360 c1        1 YEN      0.339600
      4 C4          6.1570    2.5350   -0.0440 c1        1 YEN     -0.132000
      5 C5          4.8670    2.6670    0.4590 c1        1 YEN     -0.132000
      6 C6          3.8180    1.9780   -0.1330 c1        1 YEN     -0.307100
      7 O1          7.7170    1.5190   -1.5960 os        1 YEN     -0.335000
      8 P1          8.2510    2.4350   -2.7780 p5        1 YEN      1.302900
      9 O2          9.0360    1.5890   -3.7540 o         1 YEN     -0.853833
     10 O3          7.0810    3.0710   -3.4910 o         1 YEN     -0.853833
     11 O4          9.1450    3.5150   -2.2150 o         1 YEN     -0.853833
     12 C7          2.3690    2.2630    0.3080 c3        1 YEN     -0.008300
     13 C8          1.7060    0.9700    0.7350 c3        1 YEN     -0.123700
     14 C9          0.2020    1.0660    0.5000 c         1 YEN      0.666100
     15 O5         -0.4110    2.0470    0.8790 o         1 YEN     -0.640100
     16 C10         1.9710    0.7270    2.2030 c3        1 YEN     -0.139400
     17 C11         2.6110   -0.6470    2.3840 c         1 YEN      0.653100
     18 N1          2.8640   -1.1510    3.7020 n         1 YEN     -0.555900
     19 C12         3.2900   -2.5210    3.8840 c3        1 YEN      0.085300
     20 O7          2.9550   -1.2840    1.4180 o         1 YEN     -0.679100
     21 N2         -0.5020   -0.0280   -0.1130 n         1 YEN     -0.564900
     22 C13        -1.8480    0.1540   -0.5770 c3        1 YEN      0.042700
     23 C14        -2.7470   -0.8810    0.0650 c         1 YEN      0.654100
     24 O8         -2.2760   -1.7190    0.7970 o         1 YEN     -0.624100
     25 C15        -1.8890   -0.0020   -2.0730 c3        1 YEN     -0.097400
     26 C16        -2.2720    1.3320   -2.7170 c3        1 YEN     -0.183400
     27 C17        -2.4210    1.1470   -4.2200 c         1 YEN      0.900600
     28 O9         -3.5690    1.0690   -4.7340 o         1 YEN     -0.872800
     29 O10        -1.3980    1.1320   -4.9570 o         1 YEN     -0.872800
     30 N3         -4.1690   -0.8290   -0.1460 n         1 YEN     -0.517900
     31 C18        -5.0200   -1.8030    0.4730 c3        1 YEN      0.050700
     32 C19        -4.7360   -3.1580   -0.1070 c         1 YEN      0.646100
     33 O12        -4.3830   -3.2600   -1.2610 o         1 YEN     -0.611100
     34 C20        -6.4590   -1.4430    0.2230 c3        1 YEN     -0.178400
     35 C21        -7.2490   -1.5910    1.5110 c         1 YEN      0.650100
     36 O13        -6.6960   -1.9800    2.5240 o         1 YEN     -0.716100
     37 N4         -8.6520   -1.3120    1.5250 n         1 YEN     -0.626000
     38 N5         -4.9570   -4.3180    0.6700 n         1 YEN     -0.685000
     39 H1          3.3150    0.7100   -1.6690 ha        1 YEN      0.019500
     40 H2          5.5170    0.4470   -2.4960 ha        1 YEN      0.052500
     41 H3          6.8950    3.0210    0.3730 ha        1 YEN      0.053000
     42 H4          4.6950    3.2680    1.2050 ha        1 YEN      0.053000
     43 H7          2.3750    2.8920    1.0610 hc        1 YEN      0.023700
     44 H8          1.8710    2.6540   -0.4400 hc        1 YEN      0.023700
     45 H9          2.0690    0.2340    0.2150 hc        1 YEN      0.072700
     46 H11         1.1290    0.7610    2.6960 hc        1 YEN      0.081200
     47 H12         2.5750    1.4150    2.5420 hc        1 YEN      0.081200
     48 H13         2.7390   -0.6100    4.4310 hn        1 YEN      0.365500
     49 H14         2.7910   -3.1040    3.2690 h1        1 YEN      0.035700
     50 H15         4.2550   -2.5940    3.6950 h1        1 YEN      0.035700
     51 H16         3.1170   -2.7970    4.8100 h1        1 YEN      0.035700
     52 H17        -0.1060   -0.8510   -0.1710 hn        1 YEN      0.317500
     53 H19        -2.1570    1.0460   -0.3350 h1        1 YEN      0.106700
     54 H20        -1.0100   -0.2780   -2.3960 hc        1 YEN      0.054200
     55 H21        -2.5520   -0.6810   -2.3120 hc        1 YEN      0.054200
     56 H22        -1.5730    1.9940   -2.5360 hc        1 YEN      0.043700
     57 H23        -3.1230    1.6430   -2.3410 hc        1 YEN      0.043700
     58 H26        -4.5340   -0.1480   -0.6380 hn        1 YEN      0.338500
     59 H28        -4.8520   -1.8190    1.4340 h1        1 YEN      0.092700
     60 H29        -6.8290   -2.0380   -0.4560 hc        1 YEN      0.094700
     61 H30        -6.5130   -0.5240   -0.0860 hc        1 YEN      0.094700
     62 H31        -9.0880   -1.1030    0.7410 hn        1 YEN      0.334000
     63 H32        -9.1130   -1.3350    2.3120 hn        1 YEN      0.334000
     64 H34        -4.9220   -5.1430    0.2790 hn        1 YEN      0.307500
     65 H35        -5.1580   -4.2420    1.5550 hn        1 YEN      0.307500
@<TRIPOS>BOND
     1    1    6 3   
     2    1   39 1   
     3    2    3 3   
     4    2   40 1   
     5    3    7 1   
     6    4    5 3   
     7    4   41 1   
     8    5   42 1   
     9    6   12 1   
    10    7    8 1   
    11    8    9 1   
    12    8   10 1   
    13    8   11 1   
    14   12   13 1   
    15   12   43 1   
    16   12   44 1   
    17   13   14 1   
    18   13   16 1   
    19   13   45 1   
    20   14   15 2   
    21   14   21 1   
    22   16   17 1   
    23   16   46 1   
    24   16   47 1   
    25   17   18 1   
    26   17   20 2   
    27   18   19 1   
    28   18   48 1   
    29   19   49 1   
    30   19   50 1   
    31   19   51 1   
    32   21   22 1   
    33   21   52 1   
    34   22   23 1   
    35   22   25 1   
    36   22   53 1   
    37   23   24 2   
    38   23   30 1   
    39   25   26 1   
    40   25   54 1   
    41   25   55 1   
    42   26   27 1   
    43   26   56 1   
    44   26   57 1   
    45   27   28 1   
    46   27   29 1   
    47   30   31 1   
    48   30   58 1   
    49   31   32 1   
    50   31   34 1   
    51   31   59 1   
    52   32   33 2   
    53   32   38 1   
    54   34   35 1   
    55   34   60 1   
    56   34   61 1   
    57   35   36 2   
    58   35   37 1   
    59   37   62 1   
    60   37   63 1   
    61   38   64 1   
    62   38   65 1   
@<TRIPOS>SUBSTRUCTURE
     1 YEN         1 TEMP              0 ****  ****    0 ROOT
