@<TRIPOS>MOLECULE
YES
   34    33     1     0     0
SMALL
bcc


@<TRIPOS>ATOM
      1 O1          1.2580   -2.1640    1.4120 oh        1 YES     -0.606800
      2 C1          1.7050   -1.6170    0.1890 c3        1 YES      0.133733
      3 C2          1.0850   -0.2380   -0.1120 c3        1 YES     -0.120000
      4 C3          1.7320    0.7840    0.8430 c3        1 YES      0.133733
      5 O3          3.1400    0.8010    0.7240 oh        1 YES     -0.606800
      6 C4          1.4270    0.0990   -1.5720 c3        1 YES      0.133733
      7 O4          1.7290    1.4840   -1.6700 oh        1 YES     -0.606800
      8 C5         -0.4340   -0.2440    0.1370 c3        1 YES     -0.046700
      9 C6         -1.0640    1.1230   -0.1160 c3        1 YES     -0.088900
     10 C7         -1.4810    1.7900    1.1850 c3        1 YES      0.131400
     11 O7         -2.0390    3.0490    0.8430 oh        1 YES     -0.602300
     12 C8         -1.1590   -1.3100   -0.6770 c3        1 YES     -0.088900
     13 C9         -2.5200   -1.6180   -0.0690 c3        1 YES      0.131400
     14 O9         -3.2090   -2.4360   -1.0030 oh        1 YES     -0.602300
     15 H1          2.8250   -1.5120    0.1950 h1        1 YES      0.047367
     16 H3          1.3150    1.8090    0.6560 h1        1 YES      0.047367
     17 H4          2.3330   -0.4820   -1.9020 h1        1 YES      0.047367
     18 H4A         0.5670   -0.1590   -2.2440 h1        1 YES      0.047367
     19 HO4         1.7300    1.7020   -2.6080 ho        1 YES      0.409000
     20 H5         -0.5610   -0.5180    1.2270 hc        1 YES      0.057700
     21 H6         -0.3530    1.7950   -0.6670 hc        1 YES      0.062950
     22 H6A        -1.9730    1.0250   -0.7670 hc        1 YES      0.062950
     23 H7         -2.2480    1.1670    1.7200 h1        1 YES      0.021700
     24 H7A        -0.5950    1.9330    1.8610 h1        1 YES      0.021700
     25 HO7        -2.2720    3.4810    1.6730 ho        1 YES      0.399500
     26 H8         -1.3020   -0.9740   -1.7370 hc        1 YES      0.062950
     27 H8A        -0.5680   -2.2610   -0.7000 hc        1 YES      0.062950
     28 H9         -2.4000   -2.1620    0.9060 h1        1 YES      0.021700
     29 H15         1.6340   -1.6250    2.1190 ho        1 YES      0.409000
     30 H16         1.4090   -2.3720   -0.5870 h1        1 YES      0.047367
     31 H17         1.5370    0.4890    1.9100 h1        1 YES      0.047367
     32 H18         3.3460    1.1930   -0.1350 ho        1 YES      0.409000
     33 H19        -3.1030   -0.6750    0.1120 h1        1 YES      0.021700
     34 H20        -4.0460   -2.6780   -0.5900 ho        1 YES      0.399500
@<TRIPOS>BOND
     1    1    2 1   
     2    1   29 1   
     3    2    3 1   
     4    2   15 1   
     5    2   30 1   
     6    3    4 1   
     7    3    6 1   
     8    3    8 1   
     9    4    5 1   
    10    4   16 1   
    11    4   31 1   
    12    5   32 1   
    13    6    7 1   
    14    6   17 1   
    15    6   18 1   
    16    7   19 1   
    17    8    9 1   
    18    8   12 1   
    19    8   20 1   
    20    9   10 1   
    21    9   21 1   
    22    9   22 1   
    23   10   11 1   
    24   10   23 1   
    25   10   24 1   
    26   11   25 1   
    27   12   13 1   
    28   12   26 1   
    29   12   27 1   
    30   13   14 1   
    31   13   28 1   
    32   13   33 1   
    33   14   34 1   
@<TRIPOS>SUBSTRUCTURE
     1 YES         1 TEMP              0 ****  ****    0 ROOT
