@<TRIPOS>MOLECULE
YES
   34    33     1     0     0
SMALL
bcc


@<TRIPOS>ATOM
      1 O1          0.1020    0.4860   -0.1220 oh        1 YES     -0.606800
      2 C1          1.4320    0.0410    0.0360 c3        1 YES      0.133733
      3 C2          1.9150    0.1010    1.4990 c3        1 YES     -0.120000
      4 C3          1.2040   -1.0280    2.2720 c3        1 YES      0.133733
      5 O3          1.4380   -2.2950    1.6910 oh        1 YES     -0.606800
      6 C4          3.4330   -0.1330    1.4810 c3        1 YES      0.133733
      7 O4          3.7910   -0.9410    2.5940 oh        1 YES     -0.606800
      8 C5          1.5460    1.4450    2.1510 c3        1 YES     -0.046700
      9 C6          1.9790    1.5120    3.6140 c3        1 YES     -0.088900
     10 C7          0.7830    1.4400    4.5500 c3        1 YES      0.131400
     11 O7          1.2890    1.4980    5.8740 oh        1 YES     -0.602300
     12 C8          2.1030    2.6410    1.3890 c3        1 YES     -0.088900
     13 C9          1.3440    3.9100    1.7490 c3        1 YES      0.131400
     14 O9          2.0640    4.9930    1.1800 oh        1 YES     -0.602300
     15 H1          1.5350   -1.0180   -0.3310 h1        1 YES      0.047367
     16 H3          1.5300   -1.0290    3.3450 h1        1 YES      0.047367
     17 H4          3.7310   -0.6780    0.5420 h1        1 YES      0.047367
     18 H4A         3.9800    0.8460    1.5210 h1        1 YES      0.047367
     19 HO4         4.7510   -0.8940    2.6740 ho        1 YES      0.409000
     20 H5          0.4190    1.5110    2.0920 hc        1 YES      0.057700
     21 H6          2.5280    2.4690    3.8200 hc        1 YES      0.062950
     22 H6A         2.6920    0.6800    3.8590 hc        1 YES      0.062950
     23 H7          0.2140    0.4820    4.3960 h1        1 YES      0.021450
     24 H7A         0.0880    2.3050    4.3700 h1        1 YES      0.021450
     25 HO7         0.5300    1.4190    6.4630 ho        1 YES      0.399500
     26 H8          3.1900    2.7910    1.6190 hc        1 YES      0.062950
     27 H8A         2.0090    2.4850    0.2840 hc        1 YES      0.062950
     28 H9          0.3020    3.8770    1.3300 h1        1 YES      0.021450
     29 H15        -0.4690   -0.1690    0.2970 ho        1 YES      0.409000
     30 H16         2.0410    0.7200   -0.6190 h1        1 YES      0.047367
     31 H17         0.0910   -0.8880    2.2170 h1        1 YES      0.047367
     32 H18         2.3650   -2.5130    1.8530 ho        1 YES      0.409000
     33 H19         1.2820    4.0400    2.8640 h1        1 YES      0.021450
     34 H20         1.5500    5.7890    1.3590 ho        1 YES      0.399500
@<TRIPOS>BOND
     1    1    2 1   
     2    1   29 1   
     3    2    3 1   
     4    2   15 1   
     5    2   30 1   
     6    3    4 1   
     7    3    6 1   
     8    3    8 1   
     9    4    5 1   
    10    4   16 1   
    11    4   31 1   
    12    5   32 1   
    13    6    7 1   
    14    6   17 1   
    15    6   18 1   
    16    7   19 1   
    17    8    9 1   
    18    8   12 1   
    19    8   20 1   
    20    9   10 1   
    21    9   21 1   
    22    9   22 1   
    23   10   11 1   
    24   10   23 1   
    25   10   24 1   
    26   11   25 1   
    27   12   13 1   
    28   12   26 1   
    29   12   27 1   
    30   13   14 1   
    31   13   28 1   
    32   13   33 1   
    33   14   34 1   
@<TRIPOS>SUBSTRUCTURE
     1 YES         1 TEMP              0 ****  ****    0 ROOT
