@<TRIPOS>MOLECULE
YET
   62    67     1     0     0
SMALL
bcc


@<TRIPOS>ATOM
      1 O31         0.0000    0.0000    0.0000 o         1 YET     -0.438000
      2 C11         1.2130    0.0000    0.0000 c2        1 YET      0.221000
      3 N27         1.8870    0.0000    1.1680 n         1 YET      0.148000
      4 C20         1.2790   -0.0020    2.5070 c3        1 YET     -0.158500
      5 C16         2.4330    0.0240    3.5320 c3        1 YET     -0.163000
      6 C19         3.3540   -0.0060    1.3130 c3        1 YET     -0.158500
      7 C15         3.6120    0.6100    2.7120 c3        1 YET     -0.163000
      8 C23         1.9670   -0.0050   -1.3040 c3        1 YET     -0.183000
      9 N26         1.0150   -0.0090   -2.4180 n         1 YET      0.360000
     10 C10         0.5800   -1.1690   -2.9140 c2        1 YET      0.073000
     11 O30         0.9790   -2.2140   -2.4450 o         1 YET     -0.328000
     12 C18         0.5390    1.2660   -2.9800 c3        1 YET     -0.373000
     13 C14        -0.9200    1.4690   -2.5660 DU        1 YET     -0.228000
     14 C13        -1.8600    0.7910   -3.5450 c3        1 YET     -0.263000
     15 C17        -1.7660   -0.7240   -3.5370 c3        1 YET     -0.105000
     16 C21        -0.4090   -1.1860   -4.0600 DU        1 YET     -0.066000
     17 N29        -0.5270   -2.5470   -4.5880 ny        1 YET      0.187000
     18 C12         0.3330   -2.9810   -5.5670 c2        1 YET     -0.026000
     19 N25         1.3950   -2.1900   -5.9510 ny        1 YET      0.279000
     20 C1          1.6630   -1.0440   -5.2800 c1        1 YET      0.021000
     21 N24         1.8690   -0.0810   -4.7140 n1        1 YET      0.146000
     22 N28         0.1460   -4.1480   -6.1340 n2        1 YET      0.248000
     23 C7         -0.8670   -4.9660   -5.7020 ca        1 YET     -0.080000
     24 C2         -0.9590   -5.3100   -4.3480 ca        1 YET     -0.209000
     25 C4         -1.8050   -5.4490   -6.6070 ca        1 YET      0.036000
     26 C6         -2.8290   -6.2790   -6.1560 ca        1 YET     -0.104000
     27 C8         -2.9140   -6.6250   -4.7970 ca        1 YET      0.108000
     28 C3         -1.9710   -6.1290   -3.9030 ca        1 YET     -0.054000
     29 O32        -3.9900   -7.4260   -4.6550 os        1 YET     -0.005000
     30 C9         -4.6040   -7.6190   -5.8350 c2        1 YET      0.055000
     31 C22        -5.8370   -8.4600   -6.0380 c3        1 YET     -0.055000
     32 C5         -3.9600   -6.9540   -6.8040 c2        1 YET     -0.200000
     33 H20         0.8260    0.6690    3.2260 h1        1 YET      0.109500
     34 H20A        0.5770   -0.8250    2.5570 h1        1 YET      0.109500
     35 H16         3.0490   -0.8670    3.5230 hc        1 YET      0.087500
     36 H16A        2.4030    0.5480    4.4790 hc        1 YET      0.087500
     37 H19         3.9670    0.8870    1.3000 h1        1 YET      0.109500
     38 H19A        3.7850   -0.8290    0.7560 h1        1 YET      0.109500
     39 H15         4.4630    0.1010    3.1490 hc        1 YET      0.087500
     40 H15A        3.9220    1.5190    3.2140 hc        1 YET      0.087500
     41 H23         3.0430    0.0310   -1.1860 h1        1 YET      0.112000
     42 H23A        1.8320    1.0290   -1.6000 h1        1 YET      0.112000
     43 H18         0.7640    2.1800   -2.4440 h1        1 YET      0.157000
     44 H18A       -0.4920    1.1410   -3.2880 DU        1 YET      0.340000
     45 H14        -0.7350    2.1200   -1.7200 ha        1 YET      0.134000
     46 H14A       -1.2010    2.2550   -3.2560 ha        1 YET      0.134000
     47 H13        -2.7080    0.4930   -2.9410 hc        1 YET      0.168500
     48 H13A       -2.3560    1.7080   -3.8390 hc        1 YET      0.168500
     49 H17        -2.6860   -1.2220   -3.2550 hc        1 YET      0.184000
     50 H17A       -1.3620   -1.0170   -4.4980 DU        1 YET      0.037000
     51 H21        -0.0730   -0.5140   -4.8410 hx        1 YET      0.104000
     52 HN29        0.2090   -2.5990   -5.2650 hn        1 YET     -0.008500
     53 HN25        1.3180   -1.4310   -5.3040 hn        1 YET      0.052000
     54 H2         -0.3510   -5.7950   -3.5940 ha        1 YET      0.206000
     55 H4         -1.6270   -5.9790   -7.5350 ha        1 YET      0.179000
     56 H3         -1.8880   -6.4400   -2.8680 ha        1 YET      0.145000
     57 H22        -6.8330   -8.1430   -5.7510 hc        1 YET      0.082000
     58 H22A       -5.9020   -8.4300   -7.1190 hc        1 YET      0.082000
     59 H22B       -5.5890   -9.5070   -5.9160 hc        1 YET      0.082000
     60 H5         -4.7920   -6.5980   -7.4000 ha        1 YET      0.174000
     61 H292        0.1100   -3.2400   -4.2500 hn        1 YET     -0.008500
     62 H252        1.5400   -2.3290   -6.9310 hn        1 YET      0.052000
@<TRIPOS>BOND
     1    1    2 1   
     2    2    3 1   
     3    2    8 1   
     4    3    4 1   
     5    3    6 1   
     6    4    5 1   
     7    4   33 1   
     8    4   34 1   
     9    5    7 1   
    10    5   35 1   
    11    5   36 1   
    12    6    7 1   
    13    6   37 1   
    14    6   38 1   
    15    7   39 1   
    16    7   40 1   
    17    8    9 1   
    18    8   41 1   
    19    8   42 1   
    20    9   10 1   
    21    9   12 1   
    22   10   11 1   
    23   10   16 1   
    24   12   13 1   
    25   12   43 1   
    26   12   44 1   
    27   13   14 1   
    28   13   44 1   
    29   13   45 1   
    30   13   46 1   
    31   14   15 1   
    32   14   47 1   
    33   14   48 1   
    34   15   16 1   
    35   15   49 1   
    36   15   50 1   
    37   16   17 1   
    38   16   50 1   
    39   16   51 1   
    40   17   18 1   
    41   17   52 1   
    42   17   61 1   
    43   18   19 1   
    44   18   22 1   
    45   19   20 1   
    46   19   53 1   
    47   19   62 1   
    48   20   21 1   
    49   22   23 1   
    50   23   24 1   
    51   23   25 1   
    52   24   28 1   
    53   24   54 1   
    54   25   26 1   
    55   25   55 1   
    56   26   27 1   
    57   26   32 1   
    58   27   28 1   
    59   27   29 1   
    60   28   56 1   
    61   29   30 1   
    62   30   31 1   
    63   30   32 1   
    64   31   57 1   
    65   31   58 1   
    66   31   59 1   
    67   32   60 1   
@<TRIPOS>SUBSTRUCTURE
     1 YET         1 TEMP              0 ****  ****    0 ROOT
