@<TRIPOS>MOLECULE
YET
   60    63     1     0     0
SMALL
bcc


@<TRIPOS>ATOM
      1 O31         3.9130    0.9120   -1.7860 o         1 YET     -0.611100
      2 C11         4.1200    0.7880   -0.5620 c         1 YET      0.637100
      3 N27         4.9840    1.6530    0.0830 n         1 YET     -0.469800
      4 C20         5.5160    2.8300   -0.5850 c3        1 YET      0.087500
      5 C16         6.0080    3.7990    0.5010 c3        1 YET     -0.090400
      6 C19         5.0800    1.7690    1.5250 c3        1 YET      0.087500
      7 C15         5.7860    3.0990    1.8390 c3        1 YET     -0.090400
      8 C23         3.5120   -0.3410    0.2840 c3        1 YET      0.023000
      9 N26         2.6540   -1.2630   -0.4140 n         1 YET     -0.441800
     10 C10         1.2890   -1.0020   -0.4610 c         1 YET      0.673500
     11 O30         0.8050   -0.0440    0.1770 o         1 YET     -0.658500
     12 C18         3.2670   -2.2240   -1.3050 c3        1 YET      0.097000
     13 C14         3.1010   -1.9630   -2.8010 c3        1 YET     -0.119400
     14 C13         1.7590   -2.4050   -3.3360 c3        1 YET     -0.077400
     15 C17         0.5910   -1.6300   -2.7670 c3        1 YET     -0.084400
     16 C21         0.3750   -1.9510   -1.2740 c3        1 YET      0.142500
     17 N29        -1.0270   -1.8330   -0.9170 nh        1 YET     -0.800200
     18 C12        -1.4990   -2.3570    0.3310 c2        1 YET      0.765100
     19 N25        -0.8450   -3.5900    0.7570 nh        1 YET     -0.583800
     20 C1         -1.0100   -3.9510    2.0690 c1        1 YET      0.329600
     21 N24        -1.0530   -4.2550    3.1960 n1        1 YET     -0.363800
     22 N28        -2.5000   -1.8980    1.0460 ne        1 YET     -0.636100
     23 C7         -3.1290   -0.6620    0.7870 ca        1 YET      0.120400
     24 C2         -2.3960    0.5540    0.7260 ca        1 YET     -0.147000
     25 C4         -4.5380   -0.6490    0.7030 ca        1 YET     -0.072000
     26 C6         -5.1820    0.5720    0.5530 ca        1 YET     -0.098800
     27 C8         -4.4130    1.7740    0.4940 ca        1 YET      0.054100
     28 C3         -3.0270    1.7850    0.5830 ca        1 YET     -0.110000
     29 O32        -5.2510    2.8800    0.3440 os        1 YET     -0.204200
     30 C9         -6.5660    2.3570    0.3100 cc        1 YET      0.038900
     31 C22        -7.6270    3.3550    0.1590 c3        1 YET     -0.039900
     32 C5         -6.5680    0.9870    0.4310 cd        1 YET     -0.177200
     33 H20         6.3600    2.5120   -1.2570 h1        1 YET      0.050450
     34 H20A        4.7240    3.3030   -1.2300 h1        1 YET      0.050450
     35 H16         7.0890    4.0360    0.3470 hc        1 YET      0.054200
     36 H16A        5.4360    4.7570    0.4530 hc        1 YET      0.054200
     37 H19         4.0590    1.7480    2.0000 h1        1 YET      0.050450
     38 H19A        5.6670    0.8980    1.9270 h1        1 YET      0.050450
     39 H15         6.7580    2.9060    2.3540 hc        1 YET      0.054200
     40 H15A        5.1540    3.7210    2.5180 hc        1 YET      0.054200
     41 H23         4.3610   -0.9260    0.7430 h1        1 YET      0.086700
     42 H23A        2.9110    0.1360    1.1150 h1        1 YET      0.086700
     43 H18         4.3720   -2.2470   -1.0780 h1        1 YET      0.050700
     44 H18A        2.8480   -3.2420   -1.0570 h1        1 YET      0.050700
     45 H14         3.2640   -0.8730   -3.0230 hc        1 YET      0.072700
     46 H14A        3.9050   -2.5380   -3.3330 hc        1 YET      0.072700
     47 H13         1.7590   -2.2670   -4.4510 hc        1 YET      0.045700
     48 H13A        1.6150   -3.5010   -3.1400 hc        1 YET      0.045700
     49 H17         0.7590   -0.5280   -2.8950 hc        1 YET      0.066200
     50 H17A       -0.3300   -1.8990   -3.3510 hc        1 YET      0.066200
     51 H21         0.7040   -3.0160   -1.0890 h1        1 YET      0.090700
     52 HN29       -1.3620   -0.8970   -1.0710 hn        1 YET      0.420800
     53 HN25       -1.0520   -4.3510    0.1310 hn        1 YET      0.429800
     54 H2         -1.2940    0.5330    0.8150 ha        1 YET      0.169000
     55 H4         -5.1190   -1.5810    0.7600 ha        1 YET      0.150000
     56 H3         -2.4550    2.7220    0.5440 ha        1 YET      0.153000
     57 H22        -7.4830    3.9360   -0.7870 hc        1 YET      0.060700
     58 H22A       -8.6230    2.8480    0.1300 hc        1 YET      0.060700
     59 H22B       -7.6080    4.0750    1.0160 hc        1 YET      0.060700
     60 H5         -7.4280    0.3240    0.4400 ha        1 YET      0.164000
@<TRIPOS>BOND
     1    1    2 2   
     2    2    3 1   
     3    2    8 1   
     4    3    4 1   
     5    3    6 1   
     6    4    5 1   
     7    4   33 1   
     8    4   34 1   
     9    5    7 1   
    10    5   35 1   
    11    5   36 1   
    12    6    7 1   
    13    6   37 1   
    14    6   38 1   
    15    7   39 1   
    16    7   40 1   
    17    8    9 1   
    18    8   41 1   
    19    8   42 1   
    20    9   10 1   
    21    9   12 1   
    22   10   11 2   
    23   10   16 1   
    24   12   13 1   
    25   12   43 1   
    26   12   44 1   
    27   13   14 1   
    28   13   45 1   
    29   13   46 1   
    30   14   15 1   
    31   14   47 1   
    32   14   48 1   
    33   15   16 1   
    34   15   49 1   
    35   15   50 1   
    36   16   17 1   
    37   16   51 1   
    38   17   18 1   
    39   17   52 1   
    40   18   19 1   
    41   18   22 2   
    42   19   20 1   
    43   19   53 1   
    44   20   21 3   
    45   22   23 1   
    46   23   24 ar  
    47   23   25 ar  
    48   24   28 ar  
    49   24   54 1   
    50   25   26 ar  
    51   25   55 1   
    52   26   27 ar  
    53   26   32 1   
    54   27   28 ar  
    55   27   29 1   
    56   28   56 1   
    57   29   30 1   
    58   30   31 1   
    59   30   32 2   
    60   31   57 1   
    61   31   58 1   
    62   31   59 1   
    63   32   60 1   
@<TRIPOS>SUBSTRUCTURE
     1 YET         1 TEMP              0 ****  ****    0 ROOT
