@<TRIPOS>MOLECULE
YEX
   32    35     1     0     0
SMALL
bcc


@<TRIPOS>ATOM
      1 C1         -0.0500    0.2020   -0.0660 cc        1 YEX     -0.204000
      2 C7          4.2430   -0.0530    0.8420 ca        1 YEX     -0.144000
      3 C8          5.5520   -0.0620    1.2920 ca        1 YEX     -0.083000
      4 C2          1.3720    0.3310   -0.0500 cc        1 YEX     -0.158000
      5 C19         3.4380   -0.0030    3.1240 ca        1 YEX     -0.171000
      6 C5         -0.4440   -0.2110    1.2180 cd        1 YEX     -0.141300
      7 C6          3.1710   -0.0220    1.7550 ca        1 YEX      0.049000
      8 C9          5.8570   -0.0480    2.6630 ca        1 YEX     -0.102000
      9 C18         4.7720   -0.0230    3.5880 ca        1 YEX      0.094700
     10 C3          1.8140   -0.0040    1.2500 cd        1 YEX     -0.103300
     11 C11         7.5000   -0.0200    4.4780 cc        1 YEX     -0.135000
     12 C10         7.2280   -0.0590    3.1470 cd        1 YEX     -0.008300
     13 C12         6.4120    0.0290    5.4320 cc        1 YEX      0.018700
     14 C15         4.2230    0.1000    6.1030 c         1 YEX      0.634300
     15 C20         8.3330   -0.1100    2.1590 c3        1 YEX     -0.064800
     16 N13         6.4370    0.1540    6.7740 nd        1 YEX     -0.227600
     17 N4          0.6840   -0.3320    2.0120 na        1 YEX     -0.161100
     18 N14         5.1500    0.1000    7.2110 ns        1 YEX     -0.249900
     19 N17         5.0630   -0.0370    4.9510 n         1 YEX     -0.138200
     20 O16         2.9840    0.0870    6.1470 o         1 YEX     -0.608500
     21 H1         -0.7060    0.3870   -0.9110 ha        1 YEX      0.155000
     22 H2          2.0000    0.6410   -0.8790 ha        1 YEX      0.151000
     23 H5         -1.4400   -0.4230    1.6100 h4        1 YEX      0.168000
     24 H8          6.3730   -0.0840    0.5580 ha        1 YEX      0.140000
     25 H19         2.6210    0.0410    3.8640 ha        1 YEX      0.165000
     26 H4          0.7020   -0.6140    2.9580 hn        1 YEX      0.302700
     27 H11         8.5230   -0.0200    4.8810 ha        1 YEX      0.166000
     28 H201        8.2920    0.7850    1.4880 hc        1 YEX      0.054700
     29 H202        9.3290   -0.1230    2.6670 hc        1 YEX      0.054700
     30 H203        8.2460   -1.0310    1.5300 hc        1 YEX      0.054700
     31 H14         4.9410    0.6600    8.0140 hn        1 YEX      0.345500
     32 H7          4.0330   -0.0740   -0.2380 ha        1 YEX      0.146000
@<TRIPOS>BOND
     1    1    4 1   
     2    1    6 2   
     3    1   21 1   
     4    2    3 ar  
     5    2    7 ar  
     6    2   32 1   
     7    3    8 ar  
     8    3   24 1   
     9    4   10 2   
    10    4   22 1   
    11    5    7 ar  
    12    5    9 ar  
    13    5   25 1   
    14    6   17 1   
    15    6   23 1   
    16    7   10 1   
    17    8    9 ar  
    18    8   12 1   
    19    9   19 1   
    20   10   17 1   
    21   11   12 2   
    22   11   13 1   
    23   11   27 1   
    24   12   15 1   
    25   13   16 2   
    26   13   19 1   
    27   14   18 1   
    28   14   19 1   
    29   14   20 2   
    30   15   28 1   
    31   15   29 1   
    32   15   30 1   
    33   16   18 1   
    34   17   26 1   
    35   18   31 1   
@<TRIPOS>SUBSTRUCTURE
     1 YEX         1 TEMP              0 ****  ****    0 ROOT
