@<TRIPOS>MOLECULE
YEX
   32    35     1     0     0
SMALL
bcc


@<TRIPOS>ATOM
      1 C1         -0.0520    0.2030   -0.0640 cc        1 YEX     -0.204000
      2 C7          4.2430   -0.0380    0.8410 ca        1 YEX     -0.144000
      3 C8          5.5520   -0.0440    1.2910 ca        1 YEX     -0.083000
      4 C2          1.3690    0.3390   -0.0460 cc        1 YEX     -0.158000
      5 C19         3.4390   -0.0090    3.1250 ca        1 YEX     -0.171000
      6 C5         -0.4440   -0.2220    1.2180 cd        1 YEX     -0.141300
      7 C6          3.1700   -0.0190    1.7550 ca        1 YEX      0.049000
      8 C9          5.8570   -0.0390    2.6620 ca        1 YEX     -0.102000
      9 C18         4.7720   -0.0270    3.5870 ca        1 YEX      0.094700
     10 C3          1.8130   -0.0040    1.2500 cd        1 YEX     -0.103300
     11 C11         7.5000   -0.0170    4.4770 cc        1 YEX     -0.135000
     12 C10         7.2280   -0.0470    3.1460 cd        1 YEX     -0.008300
     13 C12         6.4130    0.0190    5.4320 cc        1 YEX      0.018700
     14 C15         4.2230    0.0730    6.1040 c         1 YEX      0.634300
     15 C20         8.3330   -0.0850    2.1570 c3        1 YEX     -0.064800
     16 N13         6.4370    0.1330    6.7740 nd        1 YEX     -0.227600
     17 N4          0.6850   -0.3430    2.0100 na        1 YEX     -0.161100
     18 N14         5.1510    0.0690    7.2120 n         1 YEX     -0.249900
     19 N17         5.0640   -0.0500    4.9500 n         1 YEX     -0.138200
     20 O16         2.9850    0.0540    6.1480 o         1 YEX     -0.608500
     21 H1         -0.7090    0.3920   -0.9060 ha        1 YEX      0.155000
     22 H2          1.9960    0.6590   -0.8740 ha        1 YEX      0.151000
     23 H5         -1.4380   -0.4410    1.6080 h4        1 YEX      0.168000
     24 H8          6.3730   -0.0560    0.5570 ha        1 YEX      0.140000
     25 H19         2.6220    0.0240    3.8650 ha        1 YEX      0.165000
     26 H4          0.7050   -0.6320    2.9540 hn        1 YEX      0.302700
     27 H11         8.5230   -0.0150    4.8800 ha        1 YEX      0.166000
     28 H201        8.2880    0.8150    1.4930 hc        1 YEX      0.054700
     29 H202        9.3300   -0.0970    2.6640 hc        1 YEX      0.054700
     30 H203        8.2510   -1.0010    1.5210 hc        1 YEX      0.054700
     31 H14         4.9400    0.6220    8.0190 hn        1 YEX      0.345500
     32 H7          4.0330   -0.0510   -0.2390 ha        1 YEX      0.146000
@<TRIPOS>BOND
     1    1    4 1   
     2    1    6 2   
     3    1   21 1   
     4    2    3 ar  
     5    2    7 ar  
     6    2   32 1   
     7    3    8 ar  
     8    3   24 1   
     9    4   10 2   
    10    4   22 1   
    11    5    7 ar  
    12    5    9 ar  
    13    5   25 1   
    14    6   17 1   
    15    6   23 1   
    16    7   10 1   
    17    8    9 ar  
    18    8   12 1   
    19    9   19 1   
    20   10   17 1   
    21   11   12 2   
    22   11   13 1   
    23   11   27 1   
    24   12   15 1   
    25   13   16 2   
    26   13   19 1   
    27   14   18 1   
    28   14   19 1   
    29   14   20 2   
    30   15   28 1   
    31   15   29 1   
    32   15   30 1   
    33   16   18 1   
    34   17   26 1   
    35   18   31 1   
@<TRIPOS>SUBSTRUCTURE
     1 YEX         1 TEMP              0 ****  ****    0 ROOT
