@<TRIPOS>MOLECULE
YEX
   32    35     1     0     0
SMALL
bcc


@<TRIPOS>ATOM
      1 C1          5.3800   -0.0070   -0.1780 cc        1 YEX     -0.204000
      2 C7          1.4370   -1.9340    0.0550 ca        1 YEX     -0.144000
      3 C8          0.1280   -2.3850    0.0580 ca        1 YEX     -0.083000
      4 C2          4.2500   -0.8680   -0.3150 cc        1 YEX     -0.158000
      5 C19         0.6660    0.3600    0.0130 ca        1 YEX     -0.171000
      6 C5          4.8990    1.2460    0.2390 cd        1 YEX     -0.141300
      7 C6          1.7200   -0.5540    0.0310 ca        1 YEX      0.049000
      8 C9         -0.9560   -1.4920    0.0440 ca        1 YEX     -0.102000
      9 C18        -0.6700   -0.0950    0.0270 ca        1 YEX      0.094700
     10 C3          3.1010   -0.1170    0.0200 cd        1 YEX     -0.103300
     11 C11        -3.3680   -1.0720    0.0110 cc        1 YEX     -0.135000
     12 C10        -2.3350   -1.9540    0.0490 cd        1 YEX     -0.008300
     13 C12        -3.0980    0.3490   -0.0300 cc        1 YEX      0.018700
     14 C15        -1.7840    2.2260   -0.0880 c         1 YEX      0.634300
     15 C20        -2.5980   -3.4130    0.0920 c3        1 YEX     -0.064800
     16 N13        -3.9420    1.3930   -0.1530 nd        1 YEX     -0.227600
     17 N4          3.5210    1.1770    0.3550 na        1 YEX     -0.161100
     18 N14        -3.1980    2.5290   -0.0910 n         1 YEX     -0.249900
     19 N17        -1.7380    0.8000    0.0420 n         1 YEX     -0.138200
     20 O16        -0.8360    3.0230   -0.0680 o         1 YEX     -0.608500
     21 H1          6.4180   -0.2680   -0.3620 ha        1 YEX      0.155000
     22 H2          4.2660   -1.9070   -0.6300 ha        1 YEX      0.151000
     23 H5          5.4420    2.1670    0.4560 h4        1 YEX      0.168000
     24 H8         -0.0680   -3.4690    0.0730 ha        1 YEX      0.140000
     25 H19         0.8560    1.4460   -0.0250 ha        1 YEX      0.165000
     26 H4          2.9240    1.9100    0.6380 hn        1 YEX      0.302700
     27 H11        -4.4220   -1.3830    0.0060 ha        1 YEX      0.166000
     28 H201       -2.1450   -3.8600    1.0120 hc        1 YEX      0.054700
     29 H202       -3.6950   -3.6260    0.1010 hc        1 YEX      0.054700
     30 H203       -2.1500   -3.9130   -0.8040 hc        1 YEX      0.054700
     31 H14        -3.5250    3.2930   -0.6480 hn        1 YEX      0.345500
     32 H7          2.2670   -2.6560    0.0750 ha        1 YEX      0.146000
@<TRIPOS>BOND
     1    1    4 1   
     2    1    6 2   
     3    1   21 1   
     4    2    3 ar  
     5    2    7 ar  
     6    2   32 1   
     7    3    8 ar  
     8    3   24 1   
     9    4   10 2   
    10    4   22 1   
    11    5    7 ar  
    12    5    9 ar  
    13    5   25 1   
    14    6   17 1   
    15    6   23 1   
    16    7   10 1   
    17    8    9 ar  
    18    8   12 1   
    19    9   19 1   
    20   10   17 1   
    21   11   12 2   
    22   11   13 1   
    23   11   27 1   
    24   12   15 1   
    25   13   16 2   
    26   13   19 1   
    27   14   18 1   
    28   14   19 1   
    29   14   20 2   
    30   15   28 1   
    31   15   29 1   
    32   15   30 1   
    33   16   18 1   
    34   17   26 1   
    35   18   31 1   
@<TRIPOS>SUBSTRUCTURE
     1 YEX         1 TEMP              0 ****  ****    0 ROOT
