@<TRIPOS>MOLECULE
YF1
   18    18     1     0     0
SMALL
bcc


@<TRIPOS>ATOM
      1 C1         -0.3540    0.0200    2.9990 c3        1 YF1     -0.135400
      2 C2         -0.0380    0.0220    1.5220 ca        1 YF1      0.679300
      3 N1          1.2810    0.1570    1.1670 nb        1 YF1     -0.733000
      4 C3          1.5450    0.1590   -0.1510 ca        1 YF1      0.458200
      5 C4          0.5610    0.0280   -1.1460 ca        1 YF1     -0.377900
      6 C5          0.9100    0.0330   -2.5770 c3        1 YF1     -0.034800
      7 C6         -0.7910   -0.1210   -0.6850 ca        1 YF1      0.672200
      8 N2         -1.8180   -0.3490   -1.5960 nh        1 YF1     -0.936500
      9 N3         -1.0840   -0.1060    0.6580 nb        1 YF1     -0.762000
     10 H11         0.0380    0.9560    3.4660 hc        1 YF1      0.061367
     11 H12        -1.4540   -0.0430    3.1810 hc        1 YF1      0.061367
     12 H13         0.1430   -0.8590    3.4790 hc        1 YF1      0.061367
     13 H3          2.6100    0.2730   -0.4280 h4        1 YF1      0.024100
     14 H51         0.5980   -0.9250   -3.0640 hc        1 YF1      0.042700
     15 H52         0.4010    0.8780   -3.1080 hc        1 YF1      0.042700
     16 H53         2.0130    0.1520   -2.7180 hc        1 YF1      0.042700
     17 HN21       -2.7520   -0.2760   -1.2610 hn        1 YF1      0.417300
     18 HN22       -1.6600    0.0010   -2.5120 hn        1 YF1      0.417300
@<TRIPOS>BOND
     1    1    2 1   
     2    1   10 1   
     3    1   11 1   
     4    1   12 1   
     5    2    3 ar  
     6    2    9 ar  
     7    3    4 ar  
     8    4    5 ar  
     9    4   13 1   
    10    5    6 1   
    11    5    7 ar  
    12    6   14 1   
    13    6   15 1   
    14    6   16 1   
    15    7    8 1   
    16    7    9 ar  
    17    8   17 1   
    18    8   18 1   
@<TRIPOS>SUBSTRUCTURE
     1 YF1         1 TEMP              0 ****  ****    0 ROOT
