@<TRIPOS>MOLECULE
YF1
   19    19     1     0     0
SMALL
bcc


@<TRIPOS>ATOM
      1 C1         -0.0380    0.0040    0.0240 c3        1 YF1     -0.151400
      2 C2          1.4690   -0.0190    0.0020 ca        1 YF1      0.713300
      3 N1          2.1270   -0.1440    1.2130 nb        1 YF1     -0.636000
      4 C3          3.4570   -0.1660    1.1930 ca        1 YF1      0.473200
      5 C4          4.2290   -0.0670   -0.0070 ca        1 YF1     -0.267900
      6 C5          5.7000   -0.1000    0.0180 c3        1 YF1     -0.082800
      7 C6          3.4610    0.0570   -1.1810 ca        1 YF1      0.477200
      8 N2          4.1420    0.1750   -2.4890 n4        1 YF1     -0.822300
      9 N3          2.0980    0.0820   -1.2030 nb        1 YF1     -0.699000
     10 H11        -0.3840    0.8640    0.6530 hc        1 YF1      0.091033
     11 H12        -0.4140   -0.9470    0.4810 hc        1 YF1      0.091033
     12 H13        -0.4640    0.1090   -1.0040 hc        1 YF1      0.091033
     13 H3          3.9700   -0.2660    2.1730 h4        1 YF1      0.072100
     14 H51         6.0890   -1.0020   -0.5220 hc        1 YF1      0.075033
     15 H52         6.1330    0.8190   -0.4530 hc        1 YF1      0.075033
     16 H53         6.0800   -0.1500    1.0720 hc        1 YF1      0.075033
     17 HN21        4.5160    1.1260   -2.5830 hn        1 YF1      0.474467
     18 HN22        4.9130   -0.5020   -2.5210 hn        1 YF1      0.474467
     19 H23         3.4870   -0.0090   -3.2630 hn        1 YF1      0.474467
@<TRIPOS>BOND
     1    1    2 1   
     2    1   10 1   
     3    1   11 1   
     4    1   12 1   
     5    2    3 ar  
     6    2    9 ar  
     7    3    4 ar  
     8    4    5 ar  
     9    4   13 1   
    10    5    6 1   
    11    5    7 ar  
    12    6   14 1   
    13    6   15 1   
    14    6   16 1   
    15    7    8 1   
    16    7    9 ar  
    17    8   17 1   
    18    8   18 1   
    19    8   19 1   
@<TRIPOS>SUBSTRUCTURE
     1 YF1         1 TEMP              0 ****  ****    0 ROOT
