@<TRIPOS>MOLECULE
YF1
   18    18     1     0     0
SMALL
bcc


@<TRIPOS>ATOM
      1 C1         -0.0120    0.1090    0.0040 c3        1 YF1     -0.135400
      2 C2          1.4980    0.0640   -0.0070 ca        1 YF1      0.679300
      3 N1          2.1300    0.0650    1.2120 nb        1 YF1     -0.733000
      4 C3          3.4730    0.0230    1.1850 ca        1 YF1      0.458200
      5 C4          4.2300   -0.0150    0.0010 ca        1 YF1     -0.377900
      6 C5          5.7020   -0.0560    0.0330 c3        1 YF1     -0.034800
      7 C6          3.4880   -0.0010   -1.2280 ca        1 YF1      0.672200
      8 N2          4.1570    0.0570   -2.4470 nv        1 YF1     -0.936500
      9 N3          2.1130    0.0220   -1.2210 nb        1 YF1     -0.762000
     10 H11        -0.3460    1.0690    0.4690 hc        1 YF1      0.061367
     11 H12        -0.4070   -0.7420    0.6120 hc        1 YF1      0.061367
     12 H13        -0.4300    0.0410   -1.0290 hc        1 YF1      0.061367
     13 H3          3.9750    0.0210    2.1700 h4        1 YF1      0.024100
     14 H51         6.0860   -0.9820   -0.4680 hc        1 YF1      0.042700
     15 H52         6.0790   -0.0520    1.0860 hc        1 YF1      0.042700
     16 H53         6.1350    0.8320   -0.4950 hc        1 YF1      0.042700
     17 HN21        5.0750   -0.3220   -2.4460 hn        1 YF1      0.417300
     18 HN22        3.6230   -0.1080   -3.2700 hn        1 YF1      0.417300
@<TRIPOS>BOND
     1    1    2 1   
     2    1   10 1   
     3    1   11 1   
     4    1   12 1   
     5    2    3 ar  
     6    2    9 ar  
     7    3    4 ar  
     8    4    5 ar  
     9    4   13 1   
    10    5    6 1   
    11    5    7 ar  
    12    6   14 1   
    13    6   15 1   
    14    6   16 1   
    15    7    8 1   
    16    7    9 ar  
    17    8   17 1   
    18    8   18 1   
@<TRIPOS>SUBSTRUCTURE
     1 YF1         1 TEMP              0 ****  ****    0 ROOT
