@<TRIPOS>MOLECULE
YF3
   32    30     1     0     0
SMALL
bcc


@<TRIPOS>ATOM
      1 N1'        -0.2740   -1.6760    0.4570 n1        1 YF3     -1.000400
      2 C2'         0.7530   -0.9200   -0.0810 ce        1 YF3      0.934600
      3 CM2         0.8720   -0.9160   -1.5930 c3        1 YF3     -0.166400
      4 N3'         1.6220   -0.2200    0.6130 nf        1 YF3     -0.704300
      5 C4'         1.6540   -0.0500    1.9980 cf        1 YF3      0.283600
      6 N4'         3.0510   -0.1770    2.5230 n4        1 YF3     -0.740400
      7 C5'         0.6350    0.3400    2.8050 c2        1 YF3     -0.249200
      8 C6'        -1.1770   -2.3650    0.8310 c1        1 YF3      0.650800
      9 C7'         0.7010    0.6820    4.2530 c3        1 YF3      0.153000
     10 N3         -0.4480    1.5120    4.7040 n4        1 YF3     -0.899600
     11 C4         -4.5970    0.0670    5.1750 c2        1 YF3     -0.265200
     12 CM4        -5.9070    0.3230    5.2010 c2        1 YF3     -0.106000
     13 C2         -3.9260   -0.6170    4.0650 c3        1 YF3      0.122900
     14 HM21        1.0430   -1.9640   -1.9520 hc        1 YF3      0.110033
     15 HM22        1.7170   -0.2710   -1.9400 hc        1 YF3      0.110033
     16 HM23       -0.0830   -0.5320   -2.0380 hc        1 YF3      0.110033
     17 H4'1        3.6570    0.5210    2.0630 hn        1 YF3      0.477467
     18 H4'2        3.4210   -1.1140    2.3010 hn        1 YF3      0.477467
     19 H6'        -0.3820    0.3830    2.3470 ha        1 YF3      0.210000
     20 H7'1       -0.3450    2.4700    4.3630 hn        1 YF3      0.471467
     21 H7'2        1.6430    1.2480    4.5120 hx        1 YF3      0.103700
     22 HN3         0.6810   -0.2780    4.8580 hx        1 YF3      0.103700
     23 H4         -1.4050    1.1150    4.3190 hn        1 YF3      0.471467
     24 HM41       -3.9580    0.3210    6.0370 ha        1 YF3      0.126000
     25 HM42       -6.3890    0.8030    6.0670 ha        1 YF3      0.145000
     26 HM43       -6.5880    0.0620    4.3770 ha        1 YF3      0.145000
     27 HS1        -3.5810    1.5220    2.9250 hs        1 YF3      0.295800
     28 H21        -3.2710   -1.4520    4.4170 h1        1 YF3      0.103700
     29 H22        -4.6430   -1.0110    3.3020 h1        1 YF3      0.103700
     30 S1         -2.7760    0.4820    3.1820 sh        1 YF3     -0.525900
     31 H4'3        3.0760   -0.0380    3.5340 hn        1 YF3      0.477467
     32 H32        -0.4740    1.5290    5.7260 hn        1 YF3      0.471467
@<TRIPOS>BOND
     1    1    2 1   
     2    1    8 3   
     3    2    3 1   
     4    2    4 2   
     5    3   14 1   
     6    3   15 1   
     7    3   16 1   
     8    4    5 1   
     9    5    6 1   
    10    5    7 2   
    11    6   17 1   
    12    6   18 1   
    13    6   31 1   
    14    7    9 1   
    15    7   19 1   
    16    9   10 1   
    17    9   21 1   
    18    9   22 1   
    19   10   20 1   
    20   10   23 1   
    21   10   32 1   
    22   11   12 2   
    23   11   13 1   
    24   11   24 1   
    25   12   25 1   
    26   12   26 1   
    27   13   28 1   
    28   13   29 1   
    29   13   30 1   
    30   27   30 1   
@<TRIPOS>SUBSTRUCTURE
     1 YF3         1 TEMP              0 ****  ****    0 ROOT
