@<TRIPOS>MOLECULE
YF3
   31    30     1     0     0
SMALL
bcc


@<TRIPOS>ATOM
      1 N1'        -0.5320    0.6110    0.4060 ne        1 YF3     -0.692000
      2 C2'         0.3710   -0.4810    0.3040 ce        1 YF3      0.810300
      3 CM2         0.1680   -1.3940   -0.8700 c3        1 YF3     -0.154400
      4 N3'         1.3730   -0.7360    1.1600 nf        1 YF3     -0.777000
      5 C4'         1.5350    0.0920    2.2620 cf        1 YF3      0.590300
      6 N4'         2.5760   -0.1140    3.0760 nv        1 YF3     -0.390100
      7 C5'         0.5620    1.2260    2.5600 c3        1 YF3     -0.317300
      8 C6'        -0.4330    1.3830    1.4440 c2        1 YF3      0.553200
      9 C7'        -0.1870    0.9510    3.9010 c3        1 YF3      0.182800
     10 N3         -1.1310    1.9830    4.1890 n8        1 YF3     -0.957800
     11 C4         -3.9220   -0.7620    4.7050 c2        1 YF3     -0.183200
     12 CM4        -4.2340    0.5320    4.7810 c2        1 YF3     -0.209000
     13 C2         -3.6920   -1.4770    3.4380 c3        1 YF3      0.060900
     14 HM21       -0.8330   -1.8910   -0.7670 hc        1 YF3      0.106033
     15 HM22        0.1650   -0.7900   -1.8150 hc        1 YF3      0.106033
     16 HM23        0.9620   -2.1780   -0.9330 hc        1 YF3      0.106033
     17 H4'1        3.2370   -0.8500    2.9130 hn        1 YF3      0.327700
     18 H4'2        2.7020    0.4590    3.8840 hn        1 YF3      0.327700
     19 H6'         1.1330    2.1980    2.6520 hc        1 YF3      0.140700
     20 H7'1       -1.1450    2.2350    1.5330 h4        1 YF3      0.093800
     21 H7'2       -0.7130   -0.0540    3.8030 h1        1 YF3      0.068700
     22 HN3         0.6050    0.8590    4.7000 h1        1 YF3      0.068700
     23 H4         -2.0240    1.6270    4.4630 hn        1 YF3      0.395300
     24 HM41       -3.8360   -1.3800    5.6150 ha        1 YF3      0.135000
     25 HM42       -4.3540    1.1710    3.8960 ha        1 YF3      0.124500
     26 HM43       -4.4240    1.0280    5.7430 ha        1 YF3      0.124500
     27 HS1        -1.9090   -2.9290    4.1460 hs        1 YF3      0.241800
     28 H21        -4.3450   -2.3830    3.3770 h1        1 YF3      0.092700
     29 H22        -3.9030   -0.8360    2.5440 h1        1 YF3      0.092700
     30 S1         -1.9840   -1.9540    3.2500 sh        1 YF3     -0.462900
     31 H32        -0.7910    2.6650    4.8320 hn        1 YF3      0.395300
@<TRIPOS>BOND
     1    1    2 1   
     2    1    8 2   
     3    2    3 1   
     4    2    4 2   
     5    3   14 1   
     6    3   15 1   
     7    3   16 1   
     8    4    5 1   
     9    5    6 2   
    10    5    7 1   
    11    6   17 1   
    12    6   18 1   
    13    7    8 1   
    14    7    9 1   
    15    7   19 1   
    16    8   20 1   
    17    9   10 1   
    18    9   21 1   
    19    9   22 1   
    20   10   23 1   
    21   10   31 1   
    22   11   12 2   
    23   11   13 1   
    24   11   24 1   
    25   12   25 1   
    26   12   26 1   
    27   13   28 1   
    28   13   29 1   
    29   13   30 1   
    30   27   30 1   
@<TRIPOS>SUBSTRUCTURE
     1 YF3         1 TEMP              0 ****  ****    0 ROOT
