@<TRIPOS>MOLECULE
YF3
   30    30     1     0     0
SMALL
bcc


@<TRIPOS>ATOM
      1 N1'         1.3610    0.9040    2.4850 nb        1 YF3     -0.735000
      2 C2'         0.7300    0.2340    3.5020 ca        1 YF3      0.679300
      3 CM2         1.3430    0.3390    4.8790 c3        1 YF3     -0.135400
      4 N3'        -0.4000   -0.5150    3.3760 nb        1 YF3     -0.764000
      5 C4'        -0.9630   -0.5990    2.1240 ca        1 YF3      0.666200
      6 N4'        -2.1880   -1.2540    1.9940 nh        1 YF3     -0.931500
      7 C5'        -0.3470    0.0400    0.9950 ca        1 YF3     -0.376900
      8 C6'         0.8100    0.7920    1.2640 ca        1 YF3      0.471200
      9 C7'        -0.9560   -0.0720   -0.3640 c3        1 YF3      0.233100
     10 N3         -0.1430    0.4680   -1.4370 n3        1 YF3     -0.825200
     11 C4         -0.7750    0.3470   -2.7510 c3        1 YF3      0.191500
     12 CM4        -1.7810    1.4720   -3.0060 c3        1 YF3     -0.090100
     13 C2          0.2560    0.3690   -3.8840 c3        1 YF3     -0.000300
     14 HM21        1.3330    1.4080    5.2050 hc        1 YF3      0.061033
     15 HM22        0.7800   -0.2730    5.6250 hc        1 YF3      0.061033
     16 HM23        2.4020   -0.0170    4.8430 hc        1 YF3      0.061033
     17 H4'1       -2.4870   -1.8030    2.7690 hn        1 YF3      0.413300
     18 H4'2       -2.3610   -1.6580    1.1030 hn        1 YF3      0.413300
     19 H6'         1.3330    1.3510    0.4650 h4        1 YF3      0.038100
     20 H7'1       -1.9360    0.4920   -0.3600 h1        1 YF3      0.033200
     21 H7'2       -1.2020   -1.1640   -0.5590 h1        1 YF3      0.033200
     22 HN3         0.7600    0.0240   -1.4500 hn        1 YF3      0.376800
     23 H4         -1.3400   -0.6360   -2.8330 h1        1 YF3      0.033700
     24 HM41       -1.2740    2.4670   -2.9940 hc        1 YF3      0.042700
     25 HM42       -2.2560    1.3200   -4.0050 hc        1 YF3      0.042700
     26 HM43       -2.5800    1.4720   -2.2280 hc        1 YF3      0.042700
     27 HS1         2.2810   -0.7210   -4.4870 hs        1 YF3      0.211800
     28 H21        -0.2820    0.3950   -4.8620 h1        1 YF3      0.072700
     29 H22         0.8990    1.2780   -3.8160 h1        1 YF3      0.072700
     30 S1          1.2320   -1.1100   -3.7830 sh        1 YF3     -0.393900
@<TRIPOS>BOND
     1    1    2 ar  
     2    1    8 ar  
     3    2    3 1   
     4    2    4 ar  
     5    3   14 1   
     6    3   15 1   
     7    3   16 1   
     8    4    5 ar  
     9    5    6 1   
    10    5    7 ar  
    11    6   17 1   
    12    6   18 1   
    13    7    8 ar  
    14    7    9 1   
    15    8   19 1   
    16    9   10 1   
    17    9   20 1   
    18    9   21 1   
    19   10   11 1   
    20   10   22 1   
    21   11   12 1   
    22   11   13 1   
    23   11   23 1   
    24   12   24 1   
    25   12   25 1   
    26   12   26 1   
    27   13   28 1   
    28   13   29 1   
    29   13   30 1   
    30   27   30 1   
@<TRIPOS>SUBSTRUCTURE
     1 YF3         1 TEMP              0 ****  ****    0 ROOT
