@<TRIPOS>MOLECULE
YF4
   30    30     1     0     0
SMALL
bcc


@<TRIPOS>ATOM
      1 N1'         0.1410   -0.8490   -0.1740 nb        1 YF4     -0.707000
      2 C2'         1.2940   -0.0810   -0.1050 ca        1 YF4      0.741300
      3 CM2         2.0580    0.1210   -1.3890 c3        1 YF4     -0.152400
      4 N3'         1.7870    0.4800    1.0270 nb        1 YF4     -0.748000
      5 C4'         1.0880    0.2940    2.2010 ca        1 YF4      0.716200
      6 N4'         1.5420    0.9340    3.3510 nv        1 YF4     -0.932500
      7 C5'        -0.1250   -0.4690    2.2080 ca        1 YF4     -0.509900
      8 C6'        -0.5230   -1.0260    0.9640 ca        1 YF4      0.490200
      9 C7'        -0.9440   -0.7350    3.4060 c3        1 YF4      0.213100
     10 CM4        -4.4430    0.4170    4.4500 c3        1 YF4     -0.134100
     11 C4         -3.0860   -0.2480    4.5530 c3        1 YF4      0.107800
     12 N3         -2.1010    0.2360    3.5290 nx        1 YF4     -0.693400
     13 C2         -1.6290    1.6070    3.8420 c3        1 YF4      0.085100
     14 HM21        2.4210   -0.8710   -1.7580 hc        1 YF4      0.085033
     15 HM22        2.9350    0.7980   -1.2420 hc        1 YF4      0.085033
     16 HM23        1.3790    0.5640   -2.1600 hc        1 YF4      0.085033
     17 H4'1        2.4200    1.4090    3.2780 hn        1 YF4      0.427800
     18 H4'2        1.4260    0.4220    4.1960 hn        1 YF4      0.427800
     19 H6'        -1.4320   -1.6570    0.8990 h4        1 YF4      0.029100
     20 H7'1       -1.3950   -1.7700    3.3330 hx        1 YF4      0.096200
     21 H7'2       -0.3610   -0.6760    4.3660 hx        1 YF4      0.096200
     22 HM41       -5.1190   -0.0630    5.2040 hc        1 YF4      0.078033
     23 HM42       -4.8970    0.2790    3.4390 hc        1 YF4      0.078033
     24 HM43       -4.3920    1.5100    4.6790 hc        1 YF4      0.078033
     25 H41        -2.6370   -0.0650    5.5710 hx        1 YF4      0.100200
     26 H42        -3.2090   -1.3610    4.4130 hx        1 YF4      0.100200
     27 H21        -0.9620    1.9680    3.0140 hx        1 YF4      0.103700
     28 H22        -1.0530    1.5980    4.8050 hx        1 YF4      0.103700
     29 H23        -2.5130    2.2940    3.9390 hx        1 YF4      0.103700
     30 H31        -2.5760    0.2690    2.6160 hn        1 YF4      0.446800
@<TRIPOS>BOND
     1    1    2 ar  
     2    1    8 ar  
     3    2    3 1   
     4    2    4 ar  
     5    3   14 1   
     6    3   15 1   
     7    3   16 1   
     8    4    5 ar  
     9    5    6 1   
    10    5    7 ar  
    11    6   17 1   
    12    6   18 1   
    13    7    8 ar  
    14    7    9 1   
    15    8   19 1   
    16    9   12 1   
    17    9   20 1   
    18    9   21 1   
    19   10   11 1   
    20   10   22 1   
    21   10   23 1   
    22   10   24 1   
    23   11   12 1   
    24   11   25 1   
    25   11   26 1   
    26   12   13 1   
    27   12   30 1   
    28   13   27 1   
    29   13   28 1   
    30   13   29 1   
@<TRIPOS>SUBSTRUCTURE
     1 YF4         1 TEMP              0 ****  ****    0 ROOT
