@<TRIPOS>MOLECULE
YF4
   29    29     1     0     0
SMALL
bcc


@<TRIPOS>ATOM
      1 N1'         1.5650    0.1640   -1.7750 nb        1 YF4     -0.735000
      2 C2'         0.6480    0.0970   -2.7930 ca        1 YF4      0.677300
      3 CM2         1.1850    0.1040   -4.2050 c3        1 YF4     -0.135400
      4 N3'        -0.7020    0.0260   -2.6380 nb        1 YF4     -0.764000
      5 C4'        -1.1900    0.0350   -1.3520 ca        1 YF4      0.661200
      6 N4'        -2.5740    0.0930   -1.1700 nh        1 YF4     -0.930500
      7 C5'        -0.2990    0.0670   -0.2270 ca        1 YF4     -0.374900
      8 C6'         1.0730    0.1470   -0.5250 ca        1 YF4      0.473200
      9 C7'        -0.8390    0.0700    1.1670 c3        1 YF4      0.239100
     10 CM4         0.7310    0.4110    4.6040 c3        1 YF4     -0.096100
     11 C4         -0.2840    0.4960    3.4770 c3        1 YF4      0.174800
     12 N3          0.1650   -0.0790    2.2150 n3        1 YF4     -0.742600
     13 C2          0.6540   -1.4330    2.3350 c3        1 YF4      0.151100
     14 HM21        1.9130   -0.7340   -4.3320 hc        1 YF4      0.061033
     15 HM22        0.3650   -0.0100   -4.9550 hc        1 YF4      0.061033
     16 HM23        1.7140    1.0720   -4.3910 hc        1 YF4      0.061033
     17 H4'1       -3.1360   -0.0830   -1.9730 hn        1 YF4      0.411300
     18 H4'2       -2.9050   -0.3250   -0.3320 hn        1 YF4      0.411300
     19 H6'         1.8300    0.2080    0.2810 h4        1 YF4      0.043100
     20 H7'1       -1.6170   -0.7510    1.2580 h1        1 YF4      0.034700
     21 H7'2       -1.3730    1.0550    1.3180 h1        1 YF4      0.034700
     22 HM41        0.3610    1.0220    5.4630 hc        1 YF4      0.040700
     23 HM42        0.8630   -0.6420    4.9500 hc        1 YF4      0.040700
     24 HM43        1.7240    0.8090    4.2860 hc        1 YF4      0.040700
     25 H41        -1.2450    0.0130    3.8280 h1        1 YF4      0.029200
     26 H42        -0.5060    1.5850    3.2810 h1        1 YF4      0.029200
     27 H21         0.9140   -1.8220    1.3150 h1        1 YF4      0.034367
     28 H22         1.5830   -1.4240    2.9630 h1        1 YF4      0.034367
     29 H23        -0.0900   -2.1340    2.8060 h1        1 YF4      0.034367
@<TRIPOS>BOND
     1    1    2 ar  
     2    1    8 ar  
     3    2    3 1   
     4    2    4 ar  
     5    3   14 1   
     6    3   15 1   
     7    3   16 1   
     8    4    5 ar  
     9    5    6 1   
    10    5    7 ar  
    11    6   17 1   
    12    6   18 1   
    13    7    8 ar  
    14    7    9 1   
    15    8   19 1   
    16    9   12 1   
    17    9   20 1   
    18    9   21 1   
    19   10   11 1   
    20   10   22 1   
    21   10   23 1   
    22   10   24 1   
    23   11   12 1   
    24   11   25 1   
    25   11   26 1   
    26   12   13 1   
    27   13   27 1   
    28   13   28 1   
    29   13   29 1   
@<TRIPOS>SUBSTRUCTURE
     1 YF4         1 TEMP              0 ****  ****    0 ROOT
