@<TRIPOS>MOLECULE
YF4
   31    31     1     0     0
SMALL
bcc


@<TRIPOS>ATOM
      1 N1'         0.0350   -0.4140   -0.1480 nb        1 YF4     -0.620000
      2 C2'         1.3650   -0.0440   -0.1020 ca        1 YF4      0.775300
      3 CM2         2.1200    0.0830   -1.3950 c3        1 YF4     -0.168400
      4 N3'         2.0320    0.1960    1.0730 nb        1 YF4     -0.691000
      5 C4'         1.3370    0.0840    2.2300 ca        1 YF4      0.556200
      6 N4'         2.1450    0.2980    3.4550 n4        1 YF4     -0.838300
      7 C5'        -0.0390   -0.2430    2.2840 ca        1 YF4     -0.393900
      8 C6'        -0.6220   -0.5150    1.0050 ca        1 YF4      0.479200
      9 C7'        -0.8470   -0.4210    3.5220 c3        1 YF4      0.172100
     10 CM4        -4.5200    0.0790    4.4500 c3        1 YF4     -0.143100
     11 C4         -3.0570   -0.2640    4.6230 c3        1 YF4      0.116800
     12 N3         -2.1920    0.2480    3.4900 n4        1 YF4     -0.691400
     13 C2         -2.0710    1.7280    3.5390 c3        1 YF4      0.075100
     14 HM21        2.1610   -0.9230   -1.8940 hc        1 YF4      0.114367
     15 HM22        3.1630    0.4530   -1.2340 hc        1 YF4      0.114367
     16 HM23        1.5780    0.7900   -2.0780 hc        1 YF4      0.114367
     17 H4'1        2.1280   -0.5540    4.0280 hn        1 YF4      0.486133
     18 H4'2        1.7700    1.0900    3.9870 hn        1 YF4      0.486133
     19 H6'        -1.6750   -0.8540    0.9130 h4        1 YF4      0.061100
     20 H7'1       -1.0260   -1.5330    3.6690 hx        1 YF4      0.109200
     21 H7'2       -0.3190   -0.0300    4.4370 hx        1 YF4      0.109200
     22 HM41       -4.9350   -0.3130    3.4890 hc        1 YF4      0.093367
     23 HM42       -5.0840   -0.4090    5.2910 hc        1 YF4      0.093367
     24 HM43       -4.7070    1.1790    4.5100 hc        1 YF4      0.093367
     25 H41        -2.6590    0.1780    5.5800 hx        1 YF4      0.108200
     26 H42        -2.9380   -1.3870    4.6610 hx        1 YF4      0.108200
     27 H21        -3.0950    2.1850    3.4280 hx        1 YF4      0.111700
     28 H22        -1.6380    2.0440    4.5260 hx        1 YF4      0.111700
     29 H23        -1.4160    2.0790    2.6990 hx        1 YF4      0.111700
     30 H4'3        3.1320    0.5070    3.2050 hn        1 YF4      0.486133
     31 H31        -2.6630   -0.0020    2.6070 hn        1 YF4      0.455800
@<TRIPOS>BOND
     1    1    2 ar  
     2    1    8 ar  
     3    2    3 1   
     4    2    4 ar  
     5    3   14 1   
     6    3   15 1   
     7    3   16 1   
     8    4    5 ar  
     9    5    6 1   
    10    5    7 ar  
    11    6   17 1   
    12    6   18 1   
    13    6   30 1   
    14    7    8 ar  
    15    7    9 1   
    16    8   19 1   
    17    9   12 1   
    18    9   20 1   
    19    9   21 1   
    20   10   11 1   
    21   10   22 1   
    22   10   23 1   
    23   10   24 1   
    24   11   12 1   
    25   11   25 1   
    26   11   26 1   
    27   12   13 1   
    28   12   31 1   
    29   13   27 1   
    30   13   28 1   
    31   13   29 1   
@<TRIPOS>SUBSTRUCTURE
     1 YF4         1 TEMP              0 ****  ****    0 ROOT
