@<TRIPOS>MOLECULE
YFB
   61    62     1     0     0
SMALL
bcc


@<TRIPOS>ATOM
      1 CAB         0.6960   -0.6100    0.4210 c3        1 YFB     -0.053900
      2 CAV         1.9030    0.2110    0.1640 c2        1 YFB     -0.141400
      3 CAC         2.7820    0.4570    1.3320 c3        1 YFB     -0.053900
      4 CAH         2.1840    0.7060   -1.0520 c2        1 YFB     -0.164200
      5 CAP         1.3310    0.4780   -2.2410 c3        1 YFB     -0.050200
      6 CAR         1.8110    1.2590   -3.4510 c3        1 YFB     -0.030200
      7 CAW         0.9610    0.9860   -4.6470 c2        1 YFB     -0.144400
      8 CAD         1.2250   -0.2900   -5.3550 c3        1 YFB     -0.060900
      9 CAI         0.0210    1.8590   -5.0380 c2        1 YFB     -0.138200
     10 CAQ        -0.8640    1.6990   -6.2210 c3        1 YFB      0.022100
     11 CBC        -2.2820    1.4760   -5.8250 ca        1 YFB     -0.168300
     12 CBB        -3.0990    2.5460   -5.4160 ca        1 YFB      0.132100
     13 CAO        -4.4340    2.3490   -5.0680 ca        1 YFB     -0.261000
     14 OAU        -2.4740    3.7890   -5.3900 os        1 YFB     -0.340900
     15 CAA        -3.3200    4.9000   -5.1370 c3        1 YFB      0.120700
     16 CAZ        -2.8610    0.1900   -5.8660 ca        1 YFB      0.204100
     17 OAG        -2.0270   -0.8140   -6.2840 oh        1 YFB     -0.547100
     18 CBD        -4.2060   -0.0370   -5.4920 ca        1 YFB     -0.218600
     19 CAX        -4.7690   -1.4470   -5.5300 c         1 YFB      0.918200
     20 OAF        -4.3580   -2.2210   -6.4500 o         1 YFB     -0.834300
     21 OAE        -5.5990   -1.8140   -4.6530 o         1 YFB     -0.834300
     22 CBA        -4.9830    1.0580   -5.1040 ca        1 YFB      0.007700
     23 CAT        -6.4190    0.9040   -4.7280 c3        1 YFB     -0.026100
     24 CAS        -6.5680    0.6740   -3.2310 c3        1 YFB     -0.037100
     25 CAY        -7.9570    0.2760   -2.8780 ca        1 YFB     -0.059300
     26 CAM        -8.4110   -1.0040   -3.2360 ca        1 YFB     -0.129000
     27 CAK        -9.7030   -1.4030   -2.9060 ca        1 YFB     -0.144000
     28 CAJ       -10.5530   -0.5360   -2.2160 ca        1 YFB     -0.152000
     29 CAL       -10.1060    0.7340   -1.8580 ca        1 YFB     -0.144000
     30 CAN        -8.8120    1.1390   -2.1870 ca        1 YFB     -0.129000
     31 HAB1       -0.2280    0.0040    0.2700 hc        1 YFB      0.037200
     32 HAB2        0.6500   -1.4720   -0.2930 hc        1 YFB      0.037200
     33 HAB3        0.6890   -1.0110    1.4630 hc        1 YFB      0.037200
     34 HAC1        3.6560    1.1000    1.0640 hc        1 YFB      0.037200
     35 HAC2        2.2060    0.9660    2.1460 hc        1 YFB      0.037200
     36 HAC3        3.1690   -0.5130    1.7340 hc        1 YFB      0.037200
     37 HAH         3.0870    1.3170   -1.2120 ha        1 YFB      0.113000
     38 HAP1        0.2690    0.7670   -2.0090 hc        1 YFB      0.059700
     39 HAP2        1.3160   -0.6200   -2.4860 hc        1 YFB      0.059700
     40 HAR1        2.8740    0.9790   -3.6800 hc        1 YFB      0.032700
     41 HAR2        1.8010    2.3560   -3.2080 hc        1 YFB      0.032700
     42 HAD1        1.8360   -0.9820   -4.7240 hc        1 YFB      0.042700
     43 HAD2        0.2610   -0.8040   -5.6120 hc        1 YFB      0.042700
     44 HAD3        1.7830   -0.0980   -6.3050 hc        1 YFB      0.042700
     45 HAI        -0.1620    2.7840   -4.4630 ha        1 YFB      0.119000
     46 HAQ1       -0.5190    0.8500   -6.8710 hc        1 YFB      0.052200
     47 HAQ2       -0.8030    2.6430   -6.8330 hc        1 YFB      0.052200
     48 HAO        -5.0690    3.1890   -4.7570 ha        1 YFB      0.119000
     49 HAA1       -3.7380    4.8510   -4.1010 h1        1 YFB      0.032033
     50 HAA2       -4.1480    4.9540   -5.8850 h1        1 YFB      0.032033
     51 HAA3       -2.6390    5.7820   -5.2410 h1        1 YFB      0.032033
     52 HAG        -2.5510   -1.6300   -6.4270 ho        1 YFB      0.480000
     53 HAT1       -6.9930    1.8200   -5.0290 hc        1 YFB      0.053700
     54 HAT2       -6.8550    0.0210   -5.2720 hc        1 YFB      0.053700
     55 HAS1       -5.8680   -0.1630   -2.9430 hc        1 YFB      0.061700
     56 HAS2       -6.2680    1.5980   -2.6720 hc        1 YFB      0.061700
     57 HAM        -7.7180   -1.6770   -3.7800 ha        1 YFB      0.157500
     58 HAN        -8.4630    2.1420   -1.9020 ha        1 YFB      0.157500
     59 HAK       -10.0530   -2.4060   -3.1890 ha        1 YFB      0.116000
     60 HAJ       -11.5720   -0.8540   -1.9570 ha        1 YFB      0.111000
     61 HAL       -10.7720    1.4190   -1.3140 ha        1 YFB      0.116000
@<TRIPOS>BOND
     1    1    2 1   
     2    1   31 1   
     3    1   32 1   
     4    1   33 1   
     5    2    3 1   
     6    2    4 2   
     7    3   34 1   
     8    3   35 1   
     9    3   36 1   
    10    4    5 1   
    11    4   37 1   
    12    5    6 1   
    13    5   38 1   
    14    5   39 1   
    15    6    7 1   
    16    6   40 1   
    17    6   41 1   
    18    7    8 1   
    19    7    9 2   
    20    8   42 1   
    21    8   43 1   
    22    8   44 1   
    23    9   10 1   
    24    9   45 1   
    25   10   11 1   
    26   10   46 1   
    27   10   47 1   
    28   11   12 ar  
    29   11   16 ar  
    30   12   13 ar  
    31   12   14 1   
    32   13   22 ar  
    33   13   48 1   
    34   14   15 1   
    35   15   49 1   
    36   15   50 1   
    37   15   51 1   
    38   16   17 1   
    39   16   18 ar  
    40   17   52 1   
    41   18   19 1   
    42   18   22 ar  
    43   19   20 1   
    44   19   21 1   
    45   22   23 1   
    46   23   24 1   
    47   23   53 1   
    48   23   54 1   
    49   24   25 1   
    50   24   55 1   
    51   24   56 1   
    52   25   26 ar  
    53   25   30 ar  
    54   26   27 ar  
    55   26   57 1   
    56   27   28 ar  
    57   27   59 1   
    58   28   29 ar  
    59   28   60 1   
    60   29   30 ar  
    61   29   61 1   
    62   30   58 1   
@<TRIPOS>SUBSTRUCTURE
     1 YFB         1 TEMP              0 ****  ****    0 ROOT
