@<TRIPOS>MOLECULE
YFB
   61    62     1     0     0
SMALL
bcc


@<TRIPOS>ATOM
      1 CAB        -4.0790    4.3050    0.5690 c3        1 YFB     -0.053900
      2 CAV        -5.3440    3.6880    1.0330 c2        1 YFB     -0.142400
      3 CAC        -6.3190    4.6030    1.6720 c3        1 YFB     -0.053900
      4 CAH        -5.5920    2.3760    0.8870 c2        1 YFB     -0.163200
      5 CAP        -4.6430    1.4330    0.2520 c3        1 YFB     -0.050200
      6 CAR        -5.1320   -0.0030    0.3110 c3        1 YFB     -0.030200
      7 CAW        -4.1810   -0.9300   -0.3680 c2        1 YFB     -0.143400
      8 CAD        -4.2420   -0.9550   -1.8500 c3        1 YFB     -0.060900
      9 CAI        -3.3280   -1.6840    0.3420 c2        1 YFB     -0.139200
     10 CAQ        -2.3560   -2.6520   -0.2290 c3        1 YFB      0.023100
     11 CBC        -0.9510   -2.1910   -0.0560 ca        1 YFB     -0.167300
     12 CBB        -0.2960   -2.3040    1.1830 ca        1 YFB      0.131100
     13 CAO         1.0200   -1.8760    1.3540 ca        1 YFB     -0.260000
     14 OAU        -1.0620   -2.8510    2.2090 os        1 YFB     -0.340900
     15 CAA        -0.3610   -3.1620    3.4030 c3        1 YFB      0.120700
     16 CAZ        -0.2240   -1.6320   -1.1300 ca        1 YFB      0.203100
     17 OAG        -0.9070   -1.5380   -2.3140 oh        1 YFB     -0.546100
     18 CBD         1.1230   -1.2270   -0.9890 ca        1 YFB     -0.221600
     19 CAX         1.8680   -0.6840   -2.1960 c         1 YFB      0.915200
     20 OAF         3.0820   -0.9830   -2.3740 o         1 YFB     -0.833300
     21 OAE         1.2180    0.0470   -3.0060 o         1 YFB     -0.833300
     22 CBA         1.7260   -1.3390    0.2670 ca        1 YFB      0.009700
     23 CAT         3.1370   -0.9070    0.4890 c3        1 YFB     -0.041100
     24 CAS         3.2680    0.6080    0.4620 c3        1 YFB     -0.035100
     25 CAY         4.6890    1.0300    0.3260 ca        1 YFB     -0.063300
     26 CAM         5.3660    0.7770   -0.8780 ca        1 YFB     -0.128500
     27 CAK         6.6910    1.1780   -1.0280 ca        1 YFB     -0.144000
     28 CAJ         7.3520    1.8320    0.0130 ca        1 YFB     -0.152000
     29 CAL         6.6830    2.0860    1.2080 ca        1 YFB     -0.144000
     30 CAN         5.3550    1.6860    1.3650 ca        1 YFB     -0.128500
     31 HAB1       -4.0910    5.4140    0.7050 hc        1 YFB      0.037200
     32 HAB2       -3.2120    3.8870    1.1410 hc        1 YFB      0.037200
     33 HAB3       -3.9100    4.0820   -0.5150 hc        1 YFB      0.037200
     34 HAC1       -6.6270    5.4010    0.9510 hc        1 YFB      0.037200
     35 HAC2       -7.2360    4.0610    2.0100 hc        1 YFB      0.037200
     36 HAC3       -5.8550    5.0990    2.5610 hc        1 YFB      0.037200
     37 HAH        -6.5400    1.9430    1.2450 ha        1 YFB      0.113000
     38 HAP1       -4.4810    1.7300   -0.8220 hc        1 YFB      0.060200
     39 HAP2       -3.6400    1.5060    0.7570 hc        1 YFB      0.060200
     40 HAR1       -5.2680   -0.3010    1.3850 hc        1 YFB      0.032200
     41 HAR2       -6.1380   -0.0760   -0.1830 hc        1 YFB      0.032200
     42 HAD1       -4.8080   -0.0760   -2.2450 hc        1 YFB      0.043033
     43 HAD2       -3.2090   -0.9380   -2.2860 hc        1 YFB      0.043033
     44 HAD3       -4.7540   -1.8860   -2.2000 hc        1 YFB      0.043033
     45 HAI        -3.2950   -1.6110    1.4430 ha        1 YFB      0.119000
     46 HAQ1       -2.4830   -3.6340    0.3090 hc        1 YFB      0.052200
     47 HAQ2       -2.5600   -2.8330   -1.3190 hc        1 YFB      0.052200
     48 HAO         1.5160   -1.9540    2.3300 ha        1 YFB      0.119000
     49 HAA1        0.5080   -3.8340    3.1980 h1        1 YFB      0.031367
     50 HAA2       -0.0150   -2.2280    3.9110 h1        1 YFB      0.031367
     51 HAA3       -1.1240   -3.6860    4.0320 h1        1 YFB      0.031367
     52 HAG        -0.3740   -1.0180   -2.9510 ho        1 YFB      0.479000
     53 HAT1        3.5150   -1.2970    1.4710 hc        1 YFB      0.062700
     54 HAT2        3.7740   -1.3470   -0.3310 hc        1 YFB      0.062700
     55 HAS1        2.6920    0.9960   -0.4260 hc        1 YFB      0.057700
     56 HAS2        2.8150    1.0470    1.3880 hc        1 YFB      0.057700
     57 HAM         4.8250    0.2560   -1.6950 ha        1 YFB      0.160000
     58 HAN         4.8310    1.8890    2.3090 ha        1 YFB      0.160000
     59 HAK         7.2160    0.9780   -1.9730 ha        1 YFB      0.116500
     60 HAJ         8.3970    2.1470   -0.1110 ha        1 YFB      0.111000
     61 HAL         7.1990    2.6010    2.0290 ha        1 YFB      0.116500
@<TRIPOS>BOND
     1    1    2 1   
     2    1   31 1   
     3    1   32 1   
     4    1   33 1   
     5    2    3 1   
     6    2    4 2   
     7    3   34 1   
     8    3   35 1   
     9    3   36 1   
    10    4    5 1   
    11    4   37 1   
    12    5    6 1   
    13    5   38 1   
    14    5   39 1   
    15    6    7 1   
    16    6   40 1   
    17    6   41 1   
    18    7    8 1   
    19    7    9 2   
    20    8   42 1   
    21    8   43 1   
    22    8   44 1   
    23    9   10 1   
    24    9   45 1   
    25   10   11 1   
    26   10   46 1   
    27   10   47 1   
    28   11   12 ar  
    29   11   16 ar  
    30   12   13 ar  
    31   12   14 1   
    32   13   22 ar  
    33   13   48 1   
    34   14   15 1   
    35   15   49 1   
    36   15   50 1   
    37   15   51 1   
    38   16   17 1   
    39   16   18 ar  
    40   17   52 1   
    41   18   19 1   
    42   18   22 ar  
    43   19   20 1   
    44   19   21 1   
    45   22   23 1   
    46   23   24 1   
    47   23   53 1   
    48   23   54 1   
    49   24   25 1   
    50   24   55 1   
    51   24   56 1   
    52   25   26 ar  
    53   25   30 ar  
    54   26   27 ar  
    55   26   57 1   
    56   27   28 ar  
    57   27   59 1   
    58   28   29 ar  
    59   28   60 1   
    60   29   30 ar  
    61   29   61 1   
    62   30   58 1   
@<TRIPOS>SUBSTRUCTURE
     1 YFB         1 TEMP              0 ****  ****    0 ROOT
