@<TRIPOS>MOLECULE
YFD
   47    47     1     0     0
SMALL
bcc


@<TRIPOS>ATOM
      1 CAA         7.1010    1.5240   -0.0230 c3        1 YFD     -0.089100
      2 CAJ         5.7520    1.1750   -0.5960 c3        1 YFD     -0.080400
      3 CAL         4.7300    0.9200    0.4930 c3        1 YFD     -0.073400
      4 CAM         3.3800    0.5700   -0.0930 c3        1 YFD     -0.077400
      5 CAN         2.3660    0.2900    1.0010 c3        1 YFD     -0.030100
      6 CAS         0.9970    0.1060    0.4380 ca        1 YFD      0.011700
      7 CAV         0.4910   -1.1590    0.1280 ca        1 YFD     -0.218600
      8 CAQ         1.3200   -2.4210    0.2930 c         1 YFD      0.914200
      9 OAF         2.5550   -2.3920    0.0410 o         1 YFD     -0.831300
     10 OAE         0.7180   -3.4780    0.6610 o         1 YFD     -0.831300
     11 CAR        -0.8360   -1.2530   -0.3540 ca        1 YFD      0.200100
     12 OAG        -1.4360   -2.4460   -0.6570 oh        1 YFD     -0.547100
     13 CAI         0.2170    1.2560    0.2380 ca        1 YFD     -0.263000
     14 CAT        -1.0750    1.1440   -0.2730 ca        1 YFD      0.134100
     15 OAO        -1.9030    2.2380   -0.5080 os        1 YFD     -0.340900
     16 CAB        -1.3180    3.5130   -0.2980 c3        1 YFD      0.121700
     17 CAU        -1.6330   -0.1110   -0.5790 ca        1 YFD     -0.172300
     18 CAK        -3.0100   -0.2370   -1.1290 c3        1 YFD      0.022100
     19 CAH        -3.9830   -0.6510   -0.0850 c2        1 YFD     -0.126200
     20 CAP        -5.0400    0.0670    0.3220 c2        1 YFD     -0.163400
     21 CAD        -5.3590    1.4140   -0.2100 c3        1 YFD     -0.047900
     22 CAC        -5.9700   -0.4470    1.3590 c3        1 YFD     -0.047900
     23 HAA1        7.0360    2.4460    0.6050 hc        1 YFD      0.023367
     24 HAA2        7.4820    0.6930    0.6170 hc        1 YFD      0.023367
     25 HAA3        7.8380    1.7060   -0.8410 hc        1 YFD      0.023367
     26 HAJ1        5.3950    2.0090   -1.2560 hc        1 YFD      0.037700
     27 HAJ2        5.8400    0.2600   -1.2400 hc        1 YFD      0.037700
     28 HAL1        5.0800    0.0770    1.1450 hc        1 YFD      0.032200
     29 HAL2        4.6420    1.8300    1.1430 hc        1 YFD      0.032200
     30 HAM1        3.0200    1.4100   -0.7430 hc        1 YFD      0.057200
     31 HAM2        3.4650   -0.3550   -0.7290 hc        1 YFD      0.057200
     32 HAN1        2.6770   -0.6430    1.5480 hc        1 YFD      0.049700
     33 HAN2        2.3570    1.1390    1.7360 hc        1 YFD      0.049700
     34 HAI         0.6450    2.2360    0.4880 ha        1 YFD      0.118000
     35 HAG        -0.8570   -3.1820   -0.3660 ho        1 YFD      0.480000
     36 HAB1       -2.1270    4.2280   -0.5950 h1        1 YFD      0.031033
     37 HAB2       -1.0500    3.6530    0.7780 h1        1 YFD      0.031033
     38 HAB3       -0.4160    3.6520   -0.9420 h1        1 YFD      0.031033
     39 HAK1       -3.3170    0.7300   -1.6090 hc        1 YFD      0.051200
     40 HAK2       -3.0050   -1.0300   -1.9310 hc        1 YFD      0.051200
     41 HAH        -3.7630   -1.6390    0.3590 ha        1 YFD      0.134000
     42 HAD1       -5.7540    1.3380   -1.2540 hc        1 YFD      0.030867
     43 HAD2       -6.1310    1.9230    0.4180 hc        1 YFD      0.030867
     44 HAD3       -4.4400    2.0550   -0.2310 hc        1 YFD      0.030867
     45 HAC1       -5.9460    0.2170    2.2590 hc        1 YFD      0.030867
     46 HAC2       -7.0170   -0.4620    0.9660 hc        1 YFD      0.030867
     47 HAC3       -5.6970   -1.4820    1.6790 hc        1 YFD      0.030867
@<TRIPOS>BOND
     1    1    2 1   
     2    1   23 1   
     3    1   24 1   
     4    1   25 1   
     5    2    3 1   
     6    2   26 1   
     7    2   27 1   
     8    3    4 1   
     9    3   28 1   
    10    3   29 1   
    11    4    5 1   
    12    4   30 1   
    13    4   31 1   
    14    5    6 1   
    15    5   32 1   
    16    5   33 1   
    17    6    7 ar  
    18    6   13 ar  
    19    7    8 1   
    20    7   11 ar  
    21    8    9 1   
    22    8   10 1   
    23   11   12 1   
    24   11   17 ar  
    25   12   35 1   
    26   13   14 ar  
    27   13   34 1   
    28   14   15 1   
    29   14   17 ar  
    30   15   16 1   
    31   16   36 1   
    32   16   37 1   
    33   16   38 1   
    34   17   18 1   
    35   18   19 1   
    36   18   39 1   
    37   18   40 1   
    38   19   20 2   
    39   19   41 1   
    40   20   21 1   
    41   20   22 1   
    42   21   42 1   
    43   21   43 1   
    44   21   44 1   
    45   22   45 1   
    46   22   46 1   
    47   22   47 1   
@<TRIPOS>SUBSTRUCTURE
     1 YFD         1 TEMP              0 ****  ****    0 ROOT
