@<TRIPOS>MOLECULE
YFD
   47    47     1     0     0
SMALL
bcc


@<TRIPOS>ATOM
      1 CAA        -0.0810    0.2080    0.0830 c3        1 YFD     -0.089100
      2 CAJ         1.4230    0.2890    0.0800 c3        1 YFD     -0.081400
      3 CAL         2.0020   -0.0040    1.4480 c3        1 YFD     -0.074400
      4 CAM         3.5130    0.0820    1.4340 c3        1 YFD     -0.074400
      5 CAN         4.0870   -0.1990    2.8110 c3        1 YFD     -0.044100
      6 CAS         5.5780   -0.1650    2.7970 ca        1 YFD      0.012700
      7 CAV         6.2780    1.0400    2.7000 ca        1 YFD     -0.218600
      8 CAQ         5.5710    2.3840    2.6310 c         1 YFD      0.914200
      9 OAF         6.0600    3.2600    1.8510 o         1 YFD     -0.831300
     10 OAE         4.5590    2.5970    3.3510 o         1 YFD     -0.831300
     11 CAR         7.6900    0.9990    2.6630 ca        1 YFD      0.198100
     12 OAG         8.4640    2.1230    2.5380 oh        1 YFD     -0.546100
     13 CAI         6.2670   -1.3850    2.8860 ca        1 YFD     -0.262000
     14 CAT         7.6610   -1.4010    2.8820 ca        1 YFD      0.133100
     15 OAO         8.4150   -2.5680    2.9730 os        1 YFD     -0.341900
     16 CAB         7.6780   -3.7710    3.1130 c3        1 YFD      0.121700
     17 CAU         8.4060   -0.2130    2.7640 ca        1 YFD     -0.170300
     18 CAK         9.8930   -0.2260    2.7230 c3        1 YFD      0.022100
     19 CAH        10.4840    0.1560    4.0310 c2        1 YFD     -0.126200
     20 CAP        11.2600   -0.6290    4.7940 c2        1 YFD     -0.163400
     21 CAD        11.6070   -2.0250    4.4310 c3        1 YFD     -0.047900
     22 CAC        11.8220   -0.1450    6.0790 c3        1 YFD     -0.047900
     23 HAA1       -0.4870    0.4290   -0.9330 hc        1 YFD      0.023367
     24 HAA2       -0.4210   -0.8130    0.3840 hc        1 YFD      0.023367
     25 HAA3       -0.5120    0.9450    0.8030 hc        1 YFD      0.023367
     26 HAJ1        1.8380   -0.4390   -0.6660 hc        1 YFD      0.039200
     27 HAJ2        1.7460    1.3140   -0.2450 hc        1 YFD      0.039200
     28 HAL1        1.5970    0.7310    2.1920 hc        1 YFD      0.033700
     29 HAL2        1.6810   -1.0260    1.7800 hc        1 YFD      0.033700
     30 HAM1        3.8340    1.1140    1.1220 hc        1 YFD      0.051700
     31 HAM2        3.9270   -0.6470    0.6890 hc        1 YFD      0.051700
     32 HAN1        3.7160    0.5880    3.5280 hc        1 YFD      0.058700
     33 HAN2        3.7260   -1.1980    3.1710 hc        1 YFD      0.058700
     34 HAI         5.6930   -2.3170    2.9630 ha        1 YFD      0.117000
     35 HAG         7.8870    2.8830    2.3090 ho        1 YFD      0.479000
     36 HAB1        8.4690   -4.5590    3.1920 h1        1 YFD      0.030700
     37 HAB2        7.0350   -3.9520    2.2170 h1        1 YFD      0.030700
     38 HAB3        7.0530   -3.7520    4.0390 h1        1 YFD      0.030700
     39 HAK1       10.2370    0.5260    1.9560 hc        1 YFD      0.051700
     40 HAK2       10.2560   -1.2370    2.3930 hc        1 YFD      0.051700
     41 HAH        10.2250    1.1800    4.3540 ha        1 YFD      0.132000
     42 HAD1       10.6930   -2.5830    4.1010 hc        1 YFD      0.030867
     43 HAD2       12.0590   -2.5660    5.2980 hc        1 YFD      0.030867
     44 HAD3       12.3450   -2.0370    3.5900 hc        1 YFD      0.030867
     45 HAC1       11.4220   -0.7560    6.9270 hc        1 YFD      0.030867
     46 HAC2       11.5610    0.9250    6.2660 hc        1 YFD      0.030867
     47 HAC3       12.9360   -0.2430    6.0750 hc        1 YFD      0.030867
@<TRIPOS>BOND
     1    1    2 1   
     2    1   23 1   
     3    1   24 1   
     4    1   25 1   
     5    2    3 1   
     6    2   26 1   
     7    2   27 1   
     8    3    4 1   
     9    3   28 1   
    10    3   29 1   
    11    4    5 1   
    12    4   30 1   
    13    4   31 1   
    14    5    6 1   
    15    5   32 1   
    16    5   33 1   
    17    6    7 ar  
    18    6   13 ar  
    19    7    8 1   
    20    7   11 ar  
    21    8    9 1   
    22    8   10 1   
    23   11   12 1   
    24   11   17 ar  
    25   12   35 1   
    26   13   14 ar  
    27   13   34 1   
    28   14   15 1   
    29   14   17 ar  
    30   15   16 1   
    31   16   36 1   
    32   16   37 1   
    33   16   38 1   
    34   17   18 1   
    35   18   19 1   
    36   18   39 1   
    37   18   40 1   
    38   19   20 2   
    39   19   41 1   
    40   20   21 1   
    41   20   22 1   
    42   21   42 1   
    43   21   43 1   
    44   21   44 1   
    45   22   45 1   
    46   22   46 1   
    47   22   47 1   
@<TRIPOS>SUBSTRUCTURE
     1 YFD         1 TEMP              0 ****  ****    0 ROOT
