@<TRIPOS>MOLECULE
YFE
   48    49     1     0     0
SMALL
bcc


@<TRIPOS>ATOM
      1 CAB         0.1760    0.4690    0.2040 c3        1 YFE     -0.054400
      2 CAR         1.5510   -0.0180   -0.0670 c2        1 YFE     -0.143400
      3 CAC         2.3930   -0.2530    1.1330 c3        1 YFE     -0.054400
      4 CAG         2.0260   -0.2240   -1.3040 c2        1 YFE     -0.142200
      5 CAN         1.2580   -0.0310   -2.5620 c3        1 YFE      0.023100
      6 CAX         1.7760    1.1150   -3.3590 ca        1 YFE     -0.167300
      7 CAW         2.9390    0.9890   -4.1410 ca        1 YFE      0.131100
      8 CAM         3.4150    2.0480   -4.9110 ca        1 YFE     -0.261000
      9 OAQ         3.5600   -0.2550   -4.0800 os        1 YFE     -0.340900
     10 CAA         4.6330   -0.4540   -4.9860 c3        1 YFE      0.120700
     11 CAU         1.1070    2.3570   -3.3770 ca        1 YFE      0.204100
     12 OAF        -0.0260    2.4230   -2.6100 oh        1 YFE     -0.547100
     13 CAY         1.5860    3.4530   -4.1340 ca        1 YFE     -0.218600
     14 CAS         0.8370    4.7740   -4.0980 c         1 YFE      0.918200
     15 OAE        -0.4290    4.7310   -4.0060 o         1 YFE     -0.834800
     16 OAD         1.4790    5.8590   -4.1430 o         1 YFE     -0.834800
     17 CAV         2.7380    3.2780   -4.9040 ca        1 YFE      0.006700
     18 CAP         3.2860    4.3760   -5.7530 c3        1 YFE     -0.026100
     19 CAO         4.3080    5.2000   -4.9840 c3        1 YFE     -0.037100
     20 CAT         4.6780    6.4360   -5.7250 ca        1 YFE     -0.059300
     21 CAK         3.7410    7.4780   -5.8240 ca        1 YFE     -0.129000
     22 CAI         4.0700    8.6480   -6.5020 ca        1 YFE     -0.144000
     23 CAH         5.3300    8.7940   -7.0860 ca        1 YFE     -0.153000
     24 CAJ         6.2620    7.7630   -6.9890 ca        1 YFE     -0.144000
     25 CAL         5.9380    6.5880   -6.3110 ca        1 YFE     -0.129000
     26 HAB1        0.0730    0.8120    1.2620 hc        1 YFE      0.035033
     27 HAB2       -0.0760    1.3260   -0.4740 hc        1 YFE      0.035033
     28 HAB3       -0.5670   -0.3480    0.0260 hc        1 YFE      0.035033
     29 HAC1        1.8830   -0.9640    1.8300 hc        1 YFE      0.035033
     30 HAC2        2.5590    0.7100    1.6780 hc        1 YFE      0.035033
     31 HAC3        3.3900   -0.6790    0.8610 hc        1 YFE      0.035033
     32 HAG         3.0670   -0.5540   -1.4610 ha        1 YFE      0.118000
     33 HAN1        0.1660    0.1270   -2.3470 hc        1 YFE      0.051700
     34 HAN2        1.3520   -0.9710   -3.1760 hc        1 YFE      0.051700
     35 HAM         4.3190    1.9420   -5.5240 ha        1 YFE      0.119000
     36 HAA1        4.3050   -0.2880   -6.0410 h1        1 YFE      0.031367
     37 HAA2        5.4900    0.2200   -4.7380 h1        1 YFE      0.031367
     38 HAA3        4.9210   -1.5240   -4.8280 h1        1 YFE      0.031367
     39 HAF        -0.4990    3.2590   -2.8030 ho        1 YFE      0.480000
     40 HAP1        2.4470    5.0530   -6.0750 hc        1 YFE      0.053700
     41 HAP2        3.7610    3.9460   -6.6740 hc        1 YFE      0.053700
     42 HAO1        5.2170    4.5790   -4.7730 hc        1 YFE      0.062200
     43 HAO2        3.8390    5.4950   -4.0020 hc        1 YFE      0.062200
     44 HAK         2.7480    7.3420   -5.3500 ha        1 YFE      0.158000
     45 HAL         6.6770    5.7770   -6.2360 ha        1 YFE      0.158000
     46 HAI         3.3330    9.4600   -6.5770 ha        1 YFE      0.116000
     47 HAH         5.5850    9.7190   -7.6210 ha        1 YFE      0.111000
     48 HAJ         7.2550    7.8750   -7.4470 ha        1 YFE      0.116000
@<TRIPOS>BOND
     1    1    2 1   
     2    1   26 1   
     3    1   27 1   
     4    1   28 1   
     5    2    3 1   
     6    2    4 2   
     7    3   29 1   
     8    3   30 1   
     9    3   31 1   
    10    4    5 1   
    11    4   32 1   
    12    5    6 1   
    13    5   33 1   
    14    5   34 1   
    15    6    7 ar  
    16    6   11 ar  
    17    7    8 ar  
    18    7    9 1   
    19    8   17 ar  
    20    8   35 1   
    21    9   10 1   
    22   10   36 1   
    23   10   37 1   
    24   10   38 1   
    25   11   12 1   
    26   11   13 ar  
    27   12   39 1   
    28   13   14 1   
    29   13   17 ar  
    30   14   15 1   
    31   14   16 1   
    32   17   18 1   
    33   18   19 1   
    34   18   40 1   
    35   18   41 1   
    36   19   20 1   
    37   19   42 1   
    38   19   43 1   
    39   20   21 ar  
    40   20   25 ar  
    41   21   22 ar  
    42   21   44 1   
    43   22   23 ar  
    44   22   46 1   
    45   23   24 ar  
    46   23   47 1   
    47   24   25 ar  
    48   24   48 1   
    49   25   45 1   
@<TRIPOS>SUBSTRUCTURE
     1 YFE         1 TEMP              0 ****  ****    0 ROOT
