@<TRIPOS>MOLECULE
YFE
   48    49     1     0     0
SMALL
bcc


@<TRIPOS>ATOM
      1 CAB         5.2490    1.6750   -0.9860 c3        1 YFE     -0.054400
      2 CAR         5.1160    0.2380   -1.3290 c2        1 YFE     -0.142400
      3 CAC         5.7240   -0.1700   -2.6200 c3        1 YFE     -0.054400
      4 CAG         4.4790   -0.6470   -0.5470 c2        1 YFE     -0.143200
      5 CAN         3.8530   -0.3380    0.7640 c3        1 YFE      0.023100
      6 CAX         2.3680   -0.4270    0.7060 ca        1 YFE     -0.166300
      7 CAW         1.7140   -1.6720    0.7090 ca        1 YFE      0.130100
      8 CAM         0.3230   -1.7640    0.6580 ca        1 YFE     -0.260000
      9 OAQ         2.5530   -2.7820    0.7470 os        1 YFE     -0.340900
     10 CAA         1.9140   -4.0300    0.9640 c3        1 YFE      0.120700
     11 CAU         1.5650    0.7330    0.6570 ca        1 YFE      0.203100
     12 OAF         2.2480    1.9200    0.6480 oh        1 YFE     -0.546100
     13 CAY         0.1520    0.6630    0.6460 ca        1 YFE     -0.221600
     14 CAS        -0.6580    1.9480    0.6540 c         1 YFE      0.915200
     15 OAE        -1.7210    2.0180    1.3320 o         1 YFE     -0.833300
     16 OAD        -0.2110    2.9280   -0.0180 o         1 YFE     -0.833300
     17 CAV        -0.4540   -0.5960    0.6270 ca        1 YFE      0.009700
     18 CAP        -1.9390   -0.7400    0.5900 c3        1 YFE     -0.041100
     19 CAO        -2.5040   -0.3460   -0.7660 c3        1 YFE     -0.036100
     20 CAT        -3.9770   -0.1450   -0.7050 ca        1 YFE     -0.063300
     21 CAK        -4.4890    0.9440    0.0170 ca        1 YFE     -0.128500
     22 CAI        -5.8640    1.1580    0.0720 ca        1 YFE     -0.144000
     23 CAH        -6.7390    0.2930   -0.5880 ca        1 YFE     -0.152000
     24 CAJ        -6.2340   -0.7880   -1.3070 ca        1 YFE     -0.144000
     25 CAL        -4.8570   -1.0070   -1.3660 ca        1 YFE     -0.128500
     26 HAB1        5.5750    2.2710   -1.8730 hc        1 YFE      0.035200
     27 HAB2        4.2700    2.0830   -0.6220 hc        1 YFE      0.035200
     28 HAB3        6.0080    1.8110   -0.1750 hc        1 YFE      0.035200
     29 HAC1        6.8050    0.1150   -2.6450 hc        1 YFE      0.035200
     30 HAC2        5.6450   -1.2720   -2.7850 hc        1 YFE      0.035200
     31 HAC3        5.2070    0.3490   -3.4660 hc        1 YFE      0.035200
     32 HAG         4.3720   -1.7000   -0.8580 ha        1 YFE      0.118000
     33 HAN1        4.2290   -1.0870    1.5170 hc        1 YFE      0.051200
     34 HAN2        4.1540    0.6840    1.1230 hc        1 YFE      0.051200
     35 HAM        -0.1770   -2.7410    0.6420 ha        1 YFE      0.119000
     36 HAA1        1.2900   -4.0080    1.8910 h1        1 YFE      0.031367
     37 HAA2        1.2860   -4.3090    0.0830 h1        1 YFE      0.031367
     38 HAA3        2.7640   -4.7480    1.0800 h1        1 YFE      0.031367
     39 HAF         1.6200    2.6520    0.4730 ho        1 YFE      0.479000
     40 HAP1       -2.2350   -1.7960    0.8260 hc        1 YFE      0.062700
     41 HAP2       -2.3790   -0.0680    1.3810 hc        1 YFE      0.062700
     42 HAO1       -2.0210    0.6220   -1.0830 hc        1 YFE      0.057700
     43 HAO2       -2.2450   -1.1270   -1.5280 hc        1 YFE      0.057700
     44 HAK        -3.7790    1.6220    0.5360 ha        1 YFE      0.160000
     45 HAL        -4.4630   -1.8610   -1.9360 ha        1 YFE      0.160000
     46 HAI        -6.2600    2.0130    0.6390 ha        1 YFE      0.116500
     47 HAH        -7.8230    0.4660   -0.5420 ha        1 YFE      0.110000
     48 HAJ        -6.9190   -1.4700   -1.8290 ha        1 YFE      0.116500
@<TRIPOS>BOND
     1    1    2 1   
     2    1   26 1   
     3    1   27 1   
     4    1   28 1   
     5    2    3 1   
     6    2    4 2   
     7    3   29 1   
     8    3   30 1   
     9    3   31 1   
    10    4    5 1   
    11    4   32 1   
    12    5    6 1   
    13    5   33 1   
    14    5   34 1   
    15    6    7 ar  
    16    6   11 ar  
    17    7    8 ar  
    18    7    9 1   
    19    8   17 ar  
    20    8   35 1   
    21    9   10 1   
    22   10   36 1   
    23   10   37 1   
    24   10   38 1   
    25   11   12 1   
    26   11   13 ar  
    27   12   39 1   
    28   13   14 1   
    29   13   17 ar  
    30   14   15 1   
    31   14   16 1   
    32   17   18 1   
    33   18   19 1   
    34   18   40 1   
    35   18   41 1   
    36   19   20 1   
    37   19   42 1   
    38   19   43 1   
    39   20   21 ar  
    40   20   25 ar  
    41   21   22 ar  
    42   21   44 1   
    43   22   23 ar  
    44   22   46 1   
    45   23   24 ar  
    46   23   47 1   
    47   24   25 ar  
    48   24   48 1   
    49   25   45 1   
@<TRIPOS>SUBSTRUCTURE
     1 YFE         1 TEMP              0 ****  ****    0 ROOT
