@<TRIPOS>MOLECULE
YFF
   42    38     1     0     0
SMALL
bcc


@<TRIPOS>ATOM
      1 F          -5.0300    4.0150    2.7760 f         1 YFF     -0.172000
      2 C1          5.1960   -0.9300   -1.0080 c1        1 YFF      0.344000
      3 O1          5.3080   -0.3360   -2.1140 os        1 YFF     -0.529000
      4 O2          5.6490   -0.3980    0.0420 o         1 YFF     -0.589000
      5 NAA         1.1320    1.7090    1.8530 n         1 YFF     -0.391000
      6 NAC        -6.0810    2.0660    0.7140 n1        1 YFF     -0.286000
      7 OAE         0.6680   -0.5000    2.2470 o         1 YFF     -0.440000
      8 OAF         2.9260    0.0710   -0.7870 o         1 YFF     -0.397000
      9 CAH         4.5200   -4.6680   -1.1690 c1        1 YFF     -0.148500
     10 CAI         5.1890   -3.4520   -1.1330 c1        1 YFF     -0.125000
     11 CAJ         3.1390   -4.7080   -1.0040 c1        1 YFF     -0.148500
     12 CAK         4.4780   -2.2740   -0.9330 c2        1 YFF     -0.047000
     13 CAL         2.4290   -3.5310   -0.8030 c1        1 YFF     -0.093000
     14 CAM        -1.9290    1.2580   -0.5230 c3        1 YFF     -0.182000
     15 CAN        -3.3990    1.2590   -0.0840 c3        1 YFF     -0.049000
     16 CAO        -1.2510   -0.0280   -0.0360 c3        1 YFF     -0.157000
     17 CAP        -5.2310    4.2330    1.4690 c3        1 YFF     -0.014000
     18 NAR        -3.8820    2.6230   -0.0110 n3        1 YFF     -0.284000
     19 NAS         0.9090   -0.9840   -0.4860 n         1 YFF     -0.372000
     20 CAU         0.6740    0.4180    1.4500 c2        1 YFF      0.269000
     21 CAV        -5.0980    2.9210    0.7120 c2        1 YFF      0.044000
     22 CAW         2.3330   -0.9810   -0.6550 c2        1 YFF      0.355000
     23 CAX         3.0970   -2.3140   -0.7670 c2        1 YFF     -0.112000
     24 CAZ         0.2490    0.1780    0.0170 c3        1 YFF      0.013000
     25 HNAA        1.3720    1.8590    2.7280 hn        1 YFF      0.243500
     26 HNAB        1.2240    2.3750    1.2330 hn        1 YFF      0.243500
     27 HNAC       -6.8530    2.2560    1.1730 DU        1 YFF      0.149000
     28 HAH         5.0220   -5.5000   -1.3110 ha        1 YFF      0.112500
     29 HAI         6.1610   -3.4280   -1.2090 ha        1 YFF      0.137000
     30 HAJ         2.6680   -5.5660   -1.0290 ha        1 YFF      0.112500
     31 HAL         1.4630   -3.5590   -0.6870 ha        1 YFF      0.134000
     32 HAM        -1.8790    1.3030   -1.5000 hc        1 YFF      0.102000
     33 HAMA       -1.4730    2.0320   -0.1380 hc        1 YFF      0.102000
     34 HAN        -3.9350    0.7580   -0.7330 h1        1 YFF      0.090500
     35 HANA       -3.4760    0.8380    0.7960 h1        1 YFF      0.090500
     36 HAO        -1.5830   -0.2530    0.8590 hc        1 YFF      0.093500
     37 HAOA       -1.4580   -0.7610   -0.6550 hc        1 YFF      0.093500
     38 HAP        -6.1310    4.5990    1.3330 h1        1 YFF      0.101000
     39 HAPA       -4.5680    4.8680    1.1400 h1        1 YFF      0.101000
     40 HNAS        0.4180   -1.7010   -0.7660 hn        1 YFF      0.268000
     41 HAZ         0.4900    0.9510   -0.5280 h1        1 YFF      0.143000
     42 HNAR       -3.4540    3.2830   -0.4760 hn        1 YFF      0.192000
@<TRIPOS>BOND
     1    1   17 1   
     2    2    4 1   
     3    2   12 1   
     4    5   20 1   
     5    5   25 1   
     6    5   26 1   
     7    6   21 1   
     8    7   20 1   
     9    8   22 1   
    10    9   11 1   
    11    9   28 1   
    12   10   12 1   
    13   10   29 1   
    14   11   30 1   
    15   12   23 1   
    16   13   23 1   
    17   13   31 1   
    18   14   15 1   
    19   14   16 1   
    20   14   32 1   
    21   14   33 1   
    22   15   18 1   
    23   15   34 1   
    24   15   35 1   
    25   16   24 1   
    26   16   36 1   
    27   16   37 1   
    28   17   21 1   
    29   17   38 1   
    30   17   39 1   
    31   18   21 1   
    32   18   42 1   
    33   19   22 1   
    34   19   24 1   
    35   19   40 1   
    36   20   24 1   
    37   22   23 1   
    38   24   41 1   
@<TRIPOS>SUBSTRUCTURE
     1 YFF         1 TEMP              0 ****  ****    0 ROOT
