@<TRIPOS>MOLECULE
YFF
   42    39     1     0     0
SMALL
bcc


@<TRIPOS>ATOM
      1 F          -0.6760    0.0570    0.3740 f         1 YFF     -0.078000
      2 O1         12.0000    1.5620    5.4650 o         1 YFF     -0.239000
      3 O2         11.6960   -0.7800    5.1710 o         1 YFF     -0.239000
      4 NAA         7.4620    1.4460    6.1610 n         1 YFF     -0.394000
      5 NAC         2.1920   -0.1610    1.0540 n2        1 YFF     -0.372000
      6 OAE         9.5210    0.4530    6.1270 o         1 YFF     -0.560000
      7 OAF         9.4450   -0.6130    2.3780 o         1 YFF     -0.323000
      8 CAH         8.4820   -6.3450    3.4970 c1        1 YFF     -0.075000
      9 CAI         8.8780   -3.0760   -0.3150 c1        1 YFF     -0.332000
     10 CAJ         7.9040   -5.2730    2.7100 c3        1 YFF     -0.196000
     11 CAK         8.7820   -2.9780    0.8770 c1        1 YFF     -0.052000
     12 CAL         8.2650   -3.9170    3.0960 c1        1 YFF     -0.376000
     13 CAM         6.1650    0.1740    3.1390 c3        1 YFF     -0.180000
     14 CAN         4.7410   -0.0340    2.6320 c3        1 YFF     -0.052000
     15 CAO         6.4130   -0.6680    4.3820 c3        1 YFF     -0.032000
     16 CAP         0.0460   -0.0220   -0.6950 c1        1 YFF      0.081000
     17 NAR         4.4480    0.7040    1.4270 n3        1 YFF     -0.354000
     18 NAS         8.7400   -1.6000    4.3950 n4        1 YFF      0.035000
     19 CAU         8.3190    0.4310    5.6950 c2        1 YFF      0.357000
     20 CAV         3.2730    0.4630    0.7220 c2        1 YFF      0.071000
     21 CAW         8.9780   -1.6290    2.9040 c2        1 YFF      0.325000
     22 CAX         8.6510   -2.9110    2.2770 c2        1 YFF     -0.209000
     23 CAZ         7.8150   -0.5830    4.8360 c2        1 YFF     -0.562000
     24 HNAA        6.7230    1.6930    5.5470 hn        1 YFF      0.175500
     25 HNAB        7.9410    2.2250    6.5540 hn        1 YFF      0.175500
     26 HNAC        2.1770   -0.6150    1.9410 hn        1 YFF      0.138000
     27 HAH         8.1510   -5.5360    1.6310 hc        1 YFF      0.122000
     28 HAI         8.9670   -3.1560   -1.3640 ha        1 YFF      0.200000
     29 HAJ         9.2380   -6.0440    4.2420 ha        1 YFF      0.029000
     30 HAL         6.7790   -5.3720    2.7920 hc        1 YFF      0.122000
     31 HAM         6.9100   -0.1170    2.3490 hc        1 YFF      0.089000
     32 HAMA        6.3350    1.2560    3.3730 hc        1 YFF      0.089000
     33 HAN         4.5740   -1.1400    2.4700 h1        1 YFF      0.071500
     34 HANA        4.0130    0.2990    3.4270 h1        1 YFF      0.071500
     35 HAO         6.1330   -1.7350    4.1530 hc        1 YFF      0.069000
     36 HAOA        5.7220   -0.3310    5.2010 hc        1 YFF      0.069000
     37 HAP         3.2590    0.9640   -0.2770 h5        1 YFF      0.151000
     38 HAPA        0.4490   -1.0630   -0.8340 ha        1 YFF     -0.010000
     39 HNAS        8.3690   -2.5440    4.6410 hn        1 YFF      0.254500
     40 HAZ         9.6390   -1.4400    4.8660 hn        1 YFF      0.254500
     41 HNAR        5.2430    0.9480    0.8770 hn        1 YFF      0.214000
     42 C1         11.7950    0.3980    5.3300 c1        1 YFF      0.470000
@<TRIPOS>BOND
     1    1   16 1   
     2    2   42 1   
     3    3   42 1   
     4    4   19 1   
     5    4   24 1   
     6    4   25 1   
     7    5   20 1   
     8    5   26 1   
     9    6   19 1   
    10    7   21 1   
    11    8   10 1   
    12    8   29 1   
    13    9   11 1   
    14    9   28 1   
    15   10   12 1   
    16   10   27 1   
    17   10   30 1   
    18   11   22 1   
    19   12   22 1   
    20   13   14 1   
    21   13   15 1   
    22   13   31 1   
    23   13   32 1   
    24   14   17 1   
    25   14   33 1   
    26   14   34 1   
    27   15   23 1   
    28   15   35 1   
    29   15   36 1   
    30   16   38 1   
    31   17   20 1   
    32   17   41 1   
    33   18   21 1   
    34   18   23 1   
    35   18   39 1   
    36   18   40 1   
    37   19   23 1   
    38   20   37 1   
    39   21   22 1   
@<TRIPOS>SUBSTRUCTURE
     1 YFF         1 TEMP              0 ****  ****    0 ROOT
