@<TRIPOS>MOLECULE
YFF
   42    42     1     0     0
SMALL
bcc


@<TRIPOS>ATOM
      1 F           5.9080   -2.6450   -0.6620 f         1 YFF     -0.245300
      2 O1         -4.0420    1.5470   -1.0810 o         1 YFF     -0.823800
      3 O2         -2.2390    0.9890   -2.2490 o         1 YFF     -0.823800
      4 NAA        -1.5230    3.2500   -0.2580 n         1 YFF     -0.634000
      5 NAC         6.5080    0.7880   -0.9560 n2        1 YFF     -0.846100
      6 OAE        -0.4060    3.7150    1.6710 o         1 YFF     -0.672100
      7 OAF        -1.5420   -0.4590    2.1260 o         1 YFF     -0.636100
      8 CAH        -4.3440   -2.9180   -1.2210 ca        1 YFF     -0.126000
      9 CAI        -4.2040   -1.5950   -1.6300 ca        1 YFF     -0.125000
     10 CAJ        -3.5980   -3.3990   -0.1430 ca        1 YFF     -0.170000
     11 CAK        -3.3090   -0.7340   -0.9790 ca        1 YFF     -0.067600
     12 CAL        -2.7150   -2.5530    0.5180 ca        1 YFF     -0.093000
     13 CAM         2.2830    0.5190    0.4580 c3        1 YFF     -0.085400
     14 CAN         3.6930    0.8180   -0.0500 c3        1 YFF      0.182800
     15 CAO         1.3850    1.7060    0.1920 c3        1 YFF     -0.082400
     16 CAP         6.6800   -1.5490   -0.3310 c3        1 YFF      0.115600
     17 NAR         4.6250   -0.2580    0.1920 nh        1 YFF     -0.853200
     18 NAS        -0.7450    0.4380    0.1660 n         1 YFF     -0.563900
     19 CAU        -0.6990    2.8960    0.7670 c         1 YFF      0.625100
     20 CAV         5.8890   -0.2220   -0.4270 c2        1 YFF      0.576200
     21 CAW        -1.6090   -0.3750    0.8800 c         1 YFF      0.680700
     22 CAX        -2.5600   -1.2230    0.0980 ca        1 YFF     -0.132600
     23 CAZ        -0.0150    1.5030    0.7980 c3        1 YFF      0.039700
     24 HNAA       -2.0400    4.0920   -0.1640 hn        1 YFF      0.330500
     25 HNAB       -1.8800    2.5860   -0.9140 hn        1 YFF      0.330500
     26 HNAC        6.0090    1.6510   -0.9900 hn        1 YFF      0.391400
     27 HAH        -5.0460   -3.5840   -1.7430 ha        1 YFF      0.112000
     28 HAI        -4.7970   -1.2050   -2.4700 ha        1 YFF      0.138000
     29 HAJ        -3.7130   -4.4410    0.1860 ha        1 YFF      0.114000
     30 HAL        -2.1390   -2.9110    1.3850 ha        1 YFF      0.134000
     31 HAM         1.8750   -0.3910   -0.0550 hc        1 YFF      0.057200
     32 HAMA        2.3080    0.3030    1.5590 hc        1 YFF      0.057200
     33 HAN         3.6310    1.0630   -1.1520 h1        1 YFF      0.037200
     34 HANA        4.0850    1.7360    0.4770 h1        1 YFF      0.037200
     35 HAO         1.8210    2.6280    0.6610 hc        1 YFF      0.057700
     36 HAOA        1.3040    1.8870   -0.9120 hc        1 YFF      0.057700
     37 HAP         7.0350   -1.6610    0.7310 h1        1 YFF      0.067200
     38 HAPA        7.5680   -1.5170   -1.0210 h1        1 YFF      0.067200
     39 HNAS       -0.8760    0.5110   -0.8270 hn        1 YFF      0.354500
     40 HAZ         0.0950    1.2510    1.8980 h1        1 YFF      0.104700
     41 HNAR        4.2110   -1.1660    0.2380 hn        1 YFF      0.416800
     42 C1         -3.2030    0.6950   -1.4730 c         1 YFF      0.894200
@<TRIPOS>BOND
     1    1   16 1   
     2    2   42 1   
     3    3   42 1   
     4    4   19 1   
     5    4   24 1   
     6    4   25 1   
     7    5   20 2   
     8    5   26 1   
     9    6   19 2   
    10    7   21 2   
    11    8    9 ar  
    12    8   10 ar  
    13    8   27 1   
    14    9   11 ar  
    15    9   28 1   
    16   10   12 ar  
    17   10   29 1   
    18   11   22 ar  
    19   11   42 1   
    20   12   22 ar  
    21   12   30 1   
    22   13   14 1   
    23   13   15 1   
    24   13   31 1   
    25   13   32 1   
    26   14   17 1   
    27   14   33 1   
    28   14   34 1   
    29   15   23 1   
    30   15   35 1   
    31   15   36 1   
    32   16   20 1   
    33   16   37 1   
    34   16   38 1   
    35   17   20 1   
    36   17   41 1   
    37   18   21 1   
    38   18   23 1   
    39   18   39 1   
    40   19   23 1   
    41   21   22 1   
    42   23   40 1   
@<TRIPOS>SUBSTRUCTURE
     1 YFF         1 TEMP              0 ****  ****    0 ROOT
