@<TRIPOS>MOLECULE
YG
   67    70     1     0     0
SMALL
bcc


@<TRIPOS>ATOM
      1 N1         -1.3790   -0.8740    2.1610 n         1 YG      -0.212000
      2 N2         -3.5470   -1.6630    1.9980 nc        1 YG      -0.717000
      3 C2         -2.4840   -1.1560    1.2930 cd        1 YG       0.662400
      4 N3         -2.4540   -0.8500   -0.0840 na        1 YG      -0.574700
      5 C3         -3.4890   -1.3920   -0.9270 c3        1 YG       0.172100
      6 C4         -1.1920   -0.5120   -0.5850 cc        1 YG       0.073000
      7 C5         -0.0520   -0.2620    0.2740 cd        1 YG       0.151800
      8 C6         -0.1110   -0.4070    1.7070 c         1 YG       0.571800
      9 O6          0.7860   -0.1770    2.5370 o         1 YG      -0.646500
     10 N7          1.0560    0.0990   -0.5020 nd        1 YG      -0.626000
     11 C8          0.6190    0.0720   -1.7720 cc        1 YG       0.438400
     12 N9         -0.7520   -0.2810   -1.8850 na        1 YG      -0.199900
     13 C11        -3.1240   -1.7020    3.3340 cc        1 YG       0.323600
     14 C12        -1.8030   -1.2300    3.4580 cd        1 YG      -0.213900
     15 C13        -0.9580   -1.1270    4.6640 c3        1 YG       0.008900
     16 C14        -0.7620    0.3150    5.0910 c3        1 YG      -0.096400
     17 C15         0.4220    0.4620    6.0610 c3        1 YG       0.074700
     18 C16         0.3280    1.8660    6.6650 c         1 YG       0.621100
     19 O17        -0.0050    2.1550    7.8160 o         1 YG      -0.558000
     20 O18         0.6060    2.8760    5.7920 os        1 YG      -0.414900
     21 C19         0.5170    4.2080    6.2950 c3        1 YG       0.124700
     22 N20         1.7090    0.2390    5.4470 n         1 YG      -0.517900
     23 C21         2.5550   -0.7140    5.9730 c         1 YG       0.734100
     24 O22         2.4780   -1.3010    7.0690 o         1 YG      -0.615000
     25 O23         3.6440   -0.9720    5.1640 os        1 YG      -0.418900
     26 C24         4.5800   -1.9130    5.6880 c3        1 YG       0.139700
     27 C1'        -1.4760   -0.4060   -3.1600 c3        1 YG       0.218800
     28 C2'        -2.3720    0.8100   -3.5300 c3        1 YG       0.022100
     29 O2'        -3.7120    0.3930   -3.5750 oh        1 YG      -0.660800
     30 C3'        -1.8750    1.2810   -4.9700 c3        1 YG       0.365800
     31 O3'        -2.7770    1.0160   -5.8870 o         1 YG      -0.859500
     32 C4'        -0.5270    0.5020   -5.1240 c3        1 YG       0.036100
     33 O4'        -0.5270   -0.5990   -4.1930 os        1 YG      -0.395600
     34 C5'         0.6770    1.4190   -4.8940 c3        1 YG       0.161400
     35 O5'         1.8770    0.7150   -4.7800 os        1 YG      -0.585200
     36 P           2.9990    0.9410   -5.9730 p5        1 YG       1.429800
     37 OP1         2.9080    2.3590   -6.3910 o         1 YG      -0.843000
     38 OP2         4.2330    0.2290   -5.5940 o         1 YG      -0.843000
     39 OP3         2.2330    0.1530   -7.1840 oh        1 YG      -0.781400
     40 H31        -4.4550   -1.4500   -0.3590 h1        1 YG       0.073033
     41 H32        -3.6380   -0.7000   -1.8020 h1        1 YG       0.073033
     42 H33        -3.2190   -2.4190   -1.2930 h1        1 YG       0.073033
     43 H8          1.2220    0.2640   -2.6870 h5        1 YG       0.144100
     44 H101       -3.8410   -3.3040    4.5480 hc        1 YG       0.038033
     45 H102       -3.6990   -1.7010    5.3890 hc        1 YG       0.038033
     46 H103       -5.0580   -2.0000    4.2230 hc        1 YG       0.038033
     47 H131        0.0400   -1.6030    4.4520 hc        1 YG       0.057700
     48 H132       -1.4440   -1.7070    5.4950 hc        1 YG       0.057700
     49 H141       -1.6860    0.6900    5.6050 hc        1 YG       0.072700
     50 H142       -0.5830    0.9620    4.1890 hc        1 YG       0.072700
     51 H15         0.2930   -0.2570    6.9300 h1        1 YG       0.104700
     52 H191        0.7880    4.8410    5.4150 h1        1 YG       0.047367
     53 H192       -0.5230    4.4150    6.6440 h1        1 YG       0.047367
     54 H193        1.2370    4.3470    7.1380 h1        1 YG       0.047367
     55 HN2         1.7970    0.4630    4.4730 hn        1 YG       0.371500
     56 H241        5.3480   -1.9860    4.8780 h1        1 YG       0.047367
     57 H242        5.0200   -1.5280    6.6390 h1        1 YG       0.047367
     58 H243        4.0790   -2.8940    5.8690 h1        1 YG       0.047367
     59 H1'        -2.0740   -1.3650   -3.0990 h2        1 YG       0.059700
     60 H2'        -2.3060    1.6310   -2.7750 h1        1 YG       0.041700
     61 HO2'       -3.9600    0.3380   -4.5250 ho        1 YG       0.448000
     62 H3'        -1.6290    2.3840   -4.8650 h1        1 YG      -0.050300
     63 HO3'        1.5770    0.6960   -7.6030 ho        1 YG       0.422000
     64 H4'        -0.4620   -0.0000   -6.1250 h1        1 YG       0.080700
     65 H5'         0.7350    2.1560   -5.7440 h1        1 YG       0.029700
     66 H5''        0.5220    1.9880   -3.9320 h1        1 YG       0.029700
     67 C10        -3.9770   -2.2000    4.4280 c3        1 YG      -0.109400
@<TRIPOS>BOND
     1    1    3 1   
     2    1    8 1   
     3    1   14 1   
     4    2    3 2   
     5    2   13 1   
     6    3    4 1   
     7    4    5 1   
     8    4    6 1   
     9    5   40 1   
    10    5   41 1   
    11    5   42 1   
    12    6    7 2   
    13    6   12 1   
    14    7    8 1   
    15    7   10 1   
    16    8    9 2   
    17   10   11 2   
    18   11   12 1   
    19   11   43 1   
    20   12   27 1   
    21   13   14 2   
    22   13   67 1   
    23   14   15 1   
    24   15   16 1   
    25   15   47 1   
    26   15   48 1   
    27   16   17 1   
    28   16   49 1   
    29   16   50 1   
    30   17   18 1   
    31   17   22 1   
    32   17   51 1   
    33   18   19 2   
    34   18   20 1   
    35   20   21 1   
    36   21   52 1   
    37   21   53 1   
    38   21   54 1   
    39   22   23 1   
    40   22   55 1   
    41   23   24 2   
    42   23   25 1   
    43   25   26 1   
    44   26   56 1   
    45   26   57 1   
    46   26   58 1   
    47   27   28 1   
    48   27   33 1   
    49   27   59 1   
    50   28   29 1   
    51   28   30 1   
    52   28   60 1   
    53   29   61 1   
    54   30   31 1   
    55   30   32 1   
    56   30   62 1   
    57   32   33 1   
    58   32   34 1   
    59   32   64 1   
    60   34   35 1   
    61   34   65 1   
    62   34   66 1   
    63   35   36 1   
    64   36   37 1   
    65   36   38 1   
    66   36   39 1   
    67   39   63 1   
    68   44   67 1   
    69   45   67 1   
    70   46   67 1   
@<TRIPOS>SUBSTRUCTURE
     1 YG          1 TEMP              0 ****  ****    0 ROOT
