@<TRIPOS>MOLECULE
YGL
   38    41     1     0     0
SMALL
bcc


@<TRIPOS>ATOM
      1 CAK         0.0480   -0.2660   -0.0060 ca        1 YGL     -0.102500
      2 CAG         1.4410   -0.2490   -0.0210 ca        1 YGL     -0.126000
      3 CAD         2.1520    0.0510    1.1420 ca        1 YGL     -0.105000
      4 CAH         1.4660    0.3340    2.3230 ca        1 YGL     -0.126000
      5 CAL         0.0720    0.3200    2.3460 ca        1 YGL     -0.102500
      6 CAR        -0.6450    0.0200    1.1790 ca        1 YGL     -0.057000
      7 CAT        -2.0940    0.0200    1.1950 cc        1 YGL     -0.008000
      8 CAW        -2.9540    1.0680    0.7700 cc        1 YGL     -0.160600
      9 CAU        -2.7150    2.3850    0.2110 c         1 YGL      0.751100
     10 OAB        -1.6500    2.9470   -0.0520 o         1 YGL     -0.534500
     11 NAN        -3.9040    3.1370   -0.0750 n         1 YGL     -0.505400
     12 CAP        -5.1650    2.5920    0.1870 cc        1 YGL      0.472800
     13 NAA        -6.3590    3.4370   -0.1400 n4        1 YGL     -0.791600
     14 NAM        -5.4350    1.3910    0.6990 nd        1 YGL     -0.527100
     15 CAV        -4.3130    0.6320    0.9880 cd        1 YGL      0.075100
     16 NAO        -4.2740   -0.6510    1.5300 na        1 YGL     -0.118100
     17 CAS        -2.9390   -1.0340    1.6630 cd        1 YGL      0.039700
     18 CAQ        -2.5680   -2.3350    2.1950 ca        1 YGL     -0.076000
     19 CAI        -3.2850   -2.9040    3.2600 ca        1 YGL     -0.098500
     20 CAE        -2.9190   -4.1520    3.7570 ca        1 YGL     -0.125500
     21 CAC        -1.8420   -4.8430    3.1980 ca        1 YGL     -0.094000
     22 CAF        -1.1250   -4.2790    2.1420 ca        1 YGL     -0.125500
     23 CAJ        -1.4830   -3.0290    1.6400 ca        1 YGL     -0.098500
     24 HAK        -0.5080   -0.4980   -0.9260 ha        1 YGL      0.135500
     25 HAG         1.9810   -0.4700   -0.9540 ha        1 YGL      0.144000
     26 HAD         3.2520    0.0660    1.1270 ha        1 YGL      0.145000
     27 HAH         2.0250    0.5720    3.2410 ha        1 YGL      0.144000
     28 HAL        -0.4640    0.5450    3.2800 ha        1 YGL      0.135500
     29 HAN        -3.7930    4.0500   -0.4580 hn        1 YGL      0.344500
     30 HAA1       -7.2220    2.9240    0.0970 hn        1 YGL      0.477467
     31 HAA2       -6.3230    4.3050    0.4060 hn        1 YGL      0.477467
     32 HAO        -5.0600   -1.2020    1.7800 hn        1 YGL      0.329700
     33 HAI        -4.1230   -2.3630    3.7230 ha        1 YGL      0.140500
     34 HAJ        -0.9110   -2.5780    0.8120 ha        1 YGL      0.140500
     35 HAE        -3.4800   -4.5930    4.5950 ha        1 YGL      0.149500
     36 HAC        -1.5560   -5.8300    3.5940 ha        1 YGL      0.150000
     37 HAF        -0.2730   -4.8200    1.7030 ha        1 YGL      0.149500
     38 HAA3       -6.3610    3.6530   -1.1430 hn        1 YGL      0.477467
@<TRIPOS>BOND
     1    1    2 ar  
     2    1    6 ar  
     3    1   24 1   
     4    2    3 ar  
     5    2   25 1   
     6    3    4 ar  
     7    3   26 1   
     8    4    5 ar  
     9    4   27 1   
    10    5    6 ar  
    11    5   28 1   
    12    6    7 1   
    13    7    8 1   
    14    7   17 2   
    15    8    9 1   
    16    8   15 2   
    17    9   10 2   
    18    9   11 1   
    19   11   12 1   
    20   11   29 1   
    21   12   13 1   
    22   12   14 2   
    23   13   30 1   
    24   13   31 1   
    25   13   38 1   
    26   14   15 1   
    27   15   16 1   
    28   16   17 1   
    29   16   32 1   
    30   17   18 1   
    31   18   19 ar  
    32   18   23 ar  
    33   19   20 ar  
    34   19   33 1   
    35   20   21 ar  
    36   20   35 1   
    37   21   22 ar  
    38   21   36 1   
    39   22   23 ar  
    40   22   37 1   
    41   23   34 1   
@<TRIPOS>SUBSTRUCTURE
     1 YGL         1 TEMP              0 ****  ****    0 ROOT
