@<TRIPOS>MOLECULE
YGL
   38    41     1     0     0
SMALL
bcc


@<TRIPOS>ATOM
      1 CAK         0.0480   -0.2610   -0.0060 ca        1 YGL     -0.102000
      2 CAG         1.4410   -0.2430   -0.0210 ca        1 YGL     -0.126000
      3 CAD         2.1510    0.0560    1.1420 ca        1 YGL     -0.105000
      4 CAH         1.4650    0.3370    2.3240 ca        1 YGL     -0.126000
      5 CAL         0.0720    0.3210    2.3470 ca        1 YGL     -0.102000
      6 CAR        -0.6450    0.0220    1.1800 ca        1 YGL     -0.057000
      7 CAT        -2.0950    0.0200    1.1960 cc        1 YGL     -0.008000
      8 CAW        -2.9550    1.0690    0.7730 cc        1 YGL     -0.160600
      9 CAU        -2.7170    2.3870    0.2180 c         1 YGL      0.751100
     10 OAB        -1.6530    2.9500   -0.0440 o         1 YGL     -0.534500
     11 NAN        -3.9080    3.1380   -0.0670 ns        1 YGL     -0.505400
     12 CAP        -5.1680    2.5920    0.1940 cc        1 YGL      0.472800
     13 NAA        -6.3630    3.4360   -0.1310 nz        1 YGL     -0.791600
     14 NAM        -5.4370    1.3900    0.7030 nd        1 YGL     -0.527100
     15 CAV        -4.3140    0.6310    0.9910 cd        1 YGL      0.075100
     16 NAO        -4.2730   -0.6540    1.5300 na        1 YGL     -0.118100
     17 CAS        -2.9380   -1.0360    1.6610 cd        1 YGL      0.039700
     18 CAQ        -2.5660   -2.3370    2.1910 ca        1 YGL     -0.076000
     19 CAI        -3.2820   -2.9090    3.2540 ca        1 YGL     -0.098500
     20 CAE        -2.9150   -4.1590    3.7480 ca        1 YGL     -0.125500
     21 CAC        -1.8370   -4.8470    3.1880 ca        1 YGL     -0.094000
     22 CAF        -1.1210   -4.2800    2.1330 ca        1 YGL     -0.125500
     23 CAJ        -1.4800   -3.0290    1.6340 ca        1 YGL     -0.098500
     24 HAK        -0.5090   -0.4920   -0.9260 ha        1 YGL      0.135500
     25 HAG         1.9810   -0.4620   -0.9550 ha        1 YGL      0.144000
     26 HAD         3.2520    0.0720    1.1270 ha        1 YGL      0.145000
     27 HAH         2.0240    0.5740    3.2420 ha        1 YGL      0.144000
     28 HAL        -0.4650    0.5440    3.2810 ha        1 YGL      0.135500
     29 HAN        -3.7980    4.0530   -0.4480 hn        1 YGL      0.344500
     30 HAA1       -7.2250    2.9220    0.1060 hn        1 YGL      0.477467
     31 HAA2       -6.3270    4.3030    0.4170 hn        1 YGL      0.477467
     32 HAO        -5.0590   -1.2050    1.7780 hn        1 YGL      0.329700
     33 HAI        -4.1210   -2.3710    3.7180 ha        1 YGL      0.140500
     34 HAJ        -0.9090   -2.5760    0.8070 ha        1 YGL      0.140500
     35 HAE        -3.4750   -4.6020    4.5850 ha        1 YGL      0.149500
     36 HAC        -1.5510   -5.8350    3.5810 ha        1 YGL      0.150000
     37 HAF        -0.2680   -4.8190    1.6930 ha        1 YGL      0.149500
     38 HAA3       -6.3650    3.6540   -1.1330 hn        1 YGL      0.477467
@<TRIPOS>BOND
     1    1    2 ar  
     2    1    6 ar  
     3    1   24 1   
     4    2    3 ar  
     5    2   25 1   
     6    3    4 ar  
     7    3   26 1   
     8    4    5 ar  
     9    4   27 1   
    10    5    6 ar  
    11    5   28 1   
    12    6    7 1   
    13    7    8 1   
    14    7   17 2   
    15    8    9 1   
    16    8   15 2   
    17    9   10 2   
    18    9   11 1   
    19   11   12 1   
    20   11   29 1   
    21   12   13 1   
    22   12   14 2   
    23   13   30 1   
    24   13   31 1   
    25   13   38 1   
    26   14   15 1   
    27   15   16 1   
    28   16   17 1   
    29   16   32 1   
    30   17   18 1   
    31   18   19 ar  
    32   18   23 ar  
    33   19   20 ar  
    34   19   33 1   
    35   20   21 ar  
    36   20   35 1   
    37   21   22 ar  
    38   21   36 1   
    39   22   23 ar  
    40   22   37 1   
    41   23   34 1   
@<TRIPOS>SUBSTRUCTURE
     1 YGL         1 TEMP              0 ****  ****    0 ROOT
