@<TRIPOS>MOLECULE
YGP
   54    57     1     0     0
SMALL
bcc


@<TRIPOS>ATOM
      1 C2         -0.2250    0.9060    5.8170 cc        1 YGP      0.555800
      2 N2         -0.2610    1.3010    7.2500 nz        1 YGP     -0.838600
      3 C4         -1.1810   -0.2220    4.0720 cd        1 YGP      0.046800
      4 C5         -0.2190    0.2930    3.1310 cc        1 YGP      0.241800
      5 C6          0.8380    1.1740    3.6040 c         1 YGP      0.646000
      6 O6          1.7550    1.6920    2.9620 o         1 YGP     -0.554500
      7 N1          0.7720    1.4600    5.0050 ns        1 YGP     -0.498400
      8 N3         -1.1680    0.0420    5.4320 nd        1 YGP     -0.544100
      9 N7         -0.5320   -0.1370    1.8460 nc        1 YGP     -0.590000
     10 C8         -1.6550   -0.8780    1.9910 cd        1 YGP      0.443400
     11 N9         -2.0920   -0.9820    3.3300 na        1 YGP     -0.182900
     12 C1'        -3.3260   -1.5940    3.7850 c3        1 YGP      0.210800
     13 O4'        -4.2930   -0.5930    4.1140 os        1 YGP     -0.409600
     14 C2'        -3.1530   -2.5340    5.0260 c3        1 YGP      0.133100
     15 O2'        -3.6530   -3.8060    4.6990 oh        1 YGP     -0.578800
     16 C3'        -3.8960   -1.8070    6.1640 c3        1 YGP      0.087100
     17 O3'        -4.7630   -2.7410    6.7780 oh        1 YGP     -0.603800
     18 C4'        -4.6890   -0.6710    5.4960 c3        1 YGP      0.084100
     19 C5'        -4.4920    0.7090    6.1350 c3        1 YGP      0.182400
     20 O5'        -5.0280    0.6990    7.4270 os        1 YGP     -0.567200
     21 PBG        -4.1040    1.2220    8.6590 p5        1 YGP      1.498800
     22 OAI        -2.7130    0.7770    8.3630 o         1 YGP     -0.815000
     23 OAF        -4.8020    1.0970    9.9290 o         1 YGP     -0.815000
     24 OAR        -3.9760    2.8720    8.2670 os        1 YGP     -0.482500
     25 CAW        -2.9010    3.5720    8.6530 cc        1 YGP      0.341100
     26 CAK        -2.8540    4.1490    9.9750 cc        1 YGP     -0.261000
     27 CAT        -1.7320    4.8220   10.3970 cd        1 YGP      0.072400
     28 CAA        -1.6950    5.4970   11.7290 c3        1 YGP     -0.077900
     29 NAO        -0.5970    4.8700    9.6020 ns        1 YGP     -0.432100
     30 CAX        -0.5920    4.3160    8.3180 c         1 YGP      0.698700
     31 OAD         0.5200    4.1790    7.7330 o         1 YGP     -0.746500
     32 CAV        -1.8440    3.8140    7.7810 cd        1 YGP     -0.372400
     33 CAB        -1.9560    3.6810    6.3140 c3        1 YGP     -0.030900
     34 H1          0.2310    2.1960    7.3990 hn        1 YGP      0.503133
     35 H2          0.1500    0.5580    7.8180 hn        1 YGP      0.503133
     36 H3          1.3900    2.1620    5.3580 hn        1 YGP      0.354500
     37 H4         -2.1890   -1.3770    1.1710 h5        1 YGP      0.082100
     38 H5         -3.7520   -2.1650    2.9050 h2        1 YGP      0.106700
     39 H6         -2.0730   -2.7010    5.2860 h1        1 YGP      0.100700
     40 H7         -4.5910   -3.8430    4.9360 ho        1 YGP      0.433000
     41 H8         -3.1560   -1.4110    6.9120 h1        1 YGP      0.097700
     42 H9         -5.2310   -2.2660    7.4790 ho        1 YGP      0.437000
     43 H10        -5.7890   -0.9180    5.4850 h1        1 YGP      0.087700
     44 H11        -3.4050    0.9790    6.1720 h1        1 YGP      0.049200
     45 H12        -5.0530    1.4640    5.5140 h1        1 YGP      0.049200
     46 H14        -3.7390    4.0610   10.6230 ha        1 YGP      0.185000
     47 H16        -1.5480    6.5990   11.6030 hc        1 YGP      0.065700
     48 H17        -2.6590    5.3270   12.2680 hc        1 YGP      0.065700
     49 H18        -0.8620    5.0950   12.3570 hc        1 YGP      0.065700
     50 H19        -2.5320    4.5530    5.9080 hc        1 YGP      0.044367
     51 H20        -0.9480    3.6810    5.8290 hc        1 YGP      0.044367
     52 H21        -2.5070    2.7540    6.0210 hc        1 YGP      0.044367
     53 H15         0.2310    5.3040    9.9460 hn        1 YGP      0.335500
     54 H23        -1.2860    1.4130    7.5620 hn        1 YGP      0.503133
@<TRIPOS>BOND
     1    1    2 1   
     2    1    7 1   
     3    1    8 2   
     4    2   34 1   
     5    2   35 1   
     6    2   54 1   
     7    3    4 2   
     8    3    8 1   
     9    3   11 1   
    10    4    5 1   
    11    4    9 1   
    12    5    6 2   
    13    5    7 1   
    14    7   36 1   
    15    9   10 2   
    16   10   11 1   
    17   10   37 1   
    18   11   12 1   
    19   12   13 1   
    20   12   14 1   
    21   12   38 1   
    22   13   18 1   
    23   14   15 1   
    24   14   16 1   
    25   14   39 1   
    26   15   40 1   
    27   16   17 1   
    28   16   18 1   
    29   16   41 1   
    30   17   42 1   
    31   18   19 1   
    32   18   43 1   
    33   19   20 1   
    34   19   44 1   
    35   19   45 1   
    36   20   21 1   
    37   21   22 1   
    38   21   23 1   
    39   21   24 1   
    40   24   25 1   
    41   25   26 1   
    42   25   32 2   
    43   26   27 2   
    44   26   46 1   
    45   27   28 1   
    46   27   29 1   
    47   28   47 1   
    48   28   48 1   
    49   28   49 1   
    50   29   30 1   
    51   29   53 1   
    52   30   31 2   
    53   30   32 1   
    54   32   33 1   
    55   33   50 1   
    56   33   51 1   
    57   33   52 1   
@<TRIPOS>SUBSTRUCTURE
     1 YGP         1 TEMP              0 ****  ****    0 ROOT
