@<TRIPOS>MOLECULE
YGP
   54    57     1     0     0
SMALL
bcc


@<TRIPOS>ATOM
      1 C2          0.1010    0.5810    1.6840 cc        1 YGP      0.415800
      2 N2         -0.1180    0.1870    0.2590 n4        1 YGP     -0.781600
      3 C4         -0.7620    0.8930    3.7630 cd        1 YGP     -0.054200
      4 C5          0.5300    1.2930    4.3000 cc        1 YGP      0.316800
      5 C6          1.6860    1.3310    3.4120 c         1 YGP      0.644000
      6 O6          2.8520    1.6440    3.6610 o         1 YGP     -0.540500
      7 N1          1.4010    0.9490    2.0640 n         1 YGP     -0.504400
      8 N3         -0.9880    0.5390    2.4550 nd        1 YGP     -0.476100
      9 N7          0.4210    1.5830    5.6370 nc        1 YGP     -0.603000
     10 C8         -0.9000    1.3720    5.9460 cd        1 YGP      0.552400
     11 N9         -1.6550    0.9550    4.8470 na        1 YGP     -0.161900
     12 C1'        -3.0930    0.7420    4.7500 c3        1 YGP      0.208800
     13 O4'        -3.6860    0.7790    6.0390 os        1 YGP     -0.370600
     14 C2'        -3.5040   -0.6210    4.0880 c3        1 YGP      0.088100
     15 O2'        -4.0640   -0.3900    2.8210 oh        1 YGP     -0.597800
     16 C3'        -4.4700   -1.2570    5.1240 c3        1 YGP      0.086100
     17 O3'        -5.8090   -1.0520    4.7240 oh        1 YGP     -0.596800
     18 C4'        -4.1050   -0.5430    6.4370 c3        1 YGP      0.060100
     19 C5'        -3.0160   -1.3100    7.2080 c3        1 YGP      0.188400
     20 O5'        -2.0750   -0.4690    7.7780 os        1 YGP     -0.565200
     21 PBG        -2.2910   -0.0770    9.3870 p5        1 YGP      1.435800
     22 OAI        -1.1150   -0.4930   10.1500 o         1 YGP     -0.793500
     23 OAF        -3.7130   -0.3470    9.6390 o         1 YGP     -0.793500
     24 OAR        -2.0850    1.5460    9.0020 os        1 YGP     -0.500500
     25 CAW        -2.4480    2.5600    9.8120 cc        1 YGP      0.276100
     26 CAK        -1.4940    3.0270   10.7900 cc        1 YGP     -0.255000
     27 CAT        -1.7900    4.1200   11.5660 cd        1 YGP      0.046400
     28 CAA        -0.8310    4.6060   12.6030 c3        1 YGP     -0.068900
     29 NAO        -2.9850    4.8000   11.4030 n         1 YGP     -0.449100
     30 CAX        -3.9430    4.4040   10.4520 c         1 YGP      0.702700
     31 OAD        -4.9770    5.1040   10.3700 o         1 YGP     -0.682500
     32 CAV        -3.6430    3.2300    9.6380 cd        1 YGP     -0.263400
     33 CAB        -4.6720    2.7930    8.6730 c3        1 YGP     -0.035900
     34 H1          0.1230    0.9720   -0.3540 hn        1 YGP      0.471467
     35 H2         -1.1110   -0.0580    0.1240 hn        1 YGP      0.471467
     36 H3          2.1550    0.9420    1.4150 hn        1 YGP      0.334500
     37 H4         -1.3520    1.4760    6.9650 h5        1 YGP      0.171100
     38 H5         -3.5210    1.6180    4.1750 h2        1 YGP      0.098700
     39 H6         -2.6200   -1.2900    3.9160 h1        1 YGP      0.091700
     40 H7         -5.0240   -0.2910    2.9250 ho        1 YGP      0.428000
     41 H8         -4.3400   -2.3690    5.1770 h1        1 YGP      0.106700
     42 H9         -6.1140   -0.2200    5.1140 ho        1 YGP      0.420000
     43 H10        -4.9880   -0.3490    7.1100 h1        1 YGP      0.132700
     44 H11        -3.5290   -1.9290    7.9980 h1        1 YGP      0.040200
     45 H12        -2.4650   -1.9880    6.4930 h1        1 YGP      0.040200
     46 H14        -0.5430    2.4890   10.9040 ha        1 YGP      0.170000
     47 H16         0.0830    3.9630   12.6080 hc        1 YGP      0.053367
     48 H17        -0.5230    5.6610   12.3950 hc        1 YGP      0.053367
     49 H18        -1.2970    4.5650   13.6190 hc        1 YGP      0.053367
     50 H19        -5.4080    3.6120    8.4780 hc        1 YGP      0.047700
     51 H20        -4.1940    2.4900    7.7060 hc        1 YGP      0.047700
     52 H21        -5.2210    1.9040    9.0790 hc        1 YGP      0.047700
     53 H15        -3.1840    5.5850   11.9810 hn        1 YGP      0.320500
     54 H23         0.4640   -0.6250    0.0360 hn        1 YGP      0.471467
@<TRIPOS>BOND
     1    1    2 1   
     2    1    7 1   
     3    1    8 2   
     4    2   34 1   
     5    2   35 1   
     6    2   54 1   
     7    3    4 2   
     8    3    8 1   
     9    3   11 1   
    10    4    5 1   
    11    4    9 1   
    12    5    6 2   
    13    5    7 1   
    14    7   36 1   
    15    9   10 2   
    16   10   11 1   
    17   10   37 1   
    18   11   12 1   
    19   12   13 1   
    20   12   14 1   
    21   12   38 1   
    22   13   18 1   
    23   14   15 1   
    24   14   16 1   
    25   14   39 1   
    26   15   40 1   
    27   16   17 1   
    28   16   18 1   
    29   16   41 1   
    30   17   42 1   
    31   18   19 1   
    32   18   43 1   
    33   19   20 1   
    34   19   44 1   
    35   19   45 1   
    36   20   21 1   
    37   21   22 1   
    38   21   23 1   
    39   21   24 1   
    40   24   25 1   
    41   25   26 1   
    42   25   32 2   
    43   26   27 2   
    44   26   46 1   
    45   27   28 1   
    46   27   29 1   
    47   28   47 1   
    48   28   48 1   
    49   28   49 1   
    50   29   30 1   
    51   29   53 1   
    52   30   31 2   
    53   30   32 1   
    54   32   33 1   
    55   33   50 1   
    56   33   51 1   
    57   33   52 1   
@<TRIPOS>SUBSTRUCTURE
     1 YGP         1 TEMP              0 ****  ****    0 ROOT
