@<TRIPOS>MOLECULE
YH1
   33    35     1     0     0
SMALL
bcc


@<TRIPOS>ATOM
      1 N01         0.0400    0.0050   -0.0960 n         1 YH1     -0.498400
      2 C02         1.4350    0.0010    0.0200 cc        1 YH1      0.465800
      3 N03         2.1570   -0.0010    1.1450 nd        1 YH1     -0.509100
      4 C04         1.3950   -0.0000    2.2950 cd        1 YH1     -0.011200
      5 C05        -0.0520    0.0030    2.3240 cc        1 YH1      0.326800
      6 C06        -0.7940    0.0060    1.0670 c         1 YH1      0.641000
      7 O07        -2.0120    0.0090    0.8870 o         1 YH1     -0.515500
      8 N08         2.2280    0.0010   -1.2510 n4        1 YH1     -0.788600
      9 N09         1.8040   -0.0020    3.6350 na        1 YH1     -0.261900
     10 C10         0.6280   -0.0000    4.4070 cd        1 YH1      0.516800
     11 N11        -0.5080    0.0030    3.6190 nc        1 YH1     -0.620000
     12 S12         0.6870   -0.0020    6.0860 ss        1 YH1     -0.065400
     13 C13        -1.0260    0.0020    6.5410 c3        1 YH1     -0.162300
     14 C14        -1.1440    0.0010    8.0420 c         1 YH1      0.600700
     15 C15        -2.5100    0.0030    8.5880 ca        1 YH1     -0.187600
     16 O16        -0.1350   -0.0020    8.7590 o         1 YH1     -0.518100
     17 C17        -2.6670    0.0020    9.9830 ca        1 YH1     -0.075500
     18 C18        -3.9410    0.0040   10.5470 ca        1 YH1     -0.139500
     19 C19        -5.0680    0.0080    9.7250 ca        1 YH1     -0.083000
     20 C20        -4.9180    0.0090    8.3370 ca        1 YH1     -0.139500
     21 C21        -3.6470    0.0070    7.7680 ca        1 YH1     -0.075500
     22 H1         -0.4130    0.0060   -0.9850 hn        1 YH1      0.348500
     23 H2          2.0000   -0.8400   -1.7960 hn        1 YH1      0.479800
     24 H3          3.2350   -0.0020   -1.0310 hn        1 YH1      0.479800
     25 H4          2.7370   -0.0050    3.9680 hn        1 YH1      0.344700
     26 H6         -1.5450   -0.9020    6.1300 h1        1 YH1      0.116700
     27 H7         -1.5410    0.9080    6.1310 h1        1 YH1      0.116700
     28 H8         -1.7700   -0.0000   10.6260 ha        1 YH1      0.146000
     29 H9         -4.0550    0.0040   11.6420 ha        1 YH1      0.147000
     30 H10        -6.0750    0.0100   10.1700 ha        1 YH1      0.146000
     31 H11        -5.8080    0.0110    7.6890 ha        1 YH1      0.147000
     32 H12        -3.5520    0.0070    6.6720 ha        1 YH1      0.146000
     33 H083        2.0040    0.8430   -1.7940 hn        1 YH1      0.479800
@<TRIPOS>BOND
     1    1    2 1   
     2    1    6 1   
     3    1   22 1   
     4    2    3 2   
     5    2    8 1   
     6    3    4 1   
     7    4    5 2   
     8    4    9 1   
     9    5    6 1   
    10    5   11 1   
    11    6    7 2   
    12    8   23 1   
    13    8   24 1   
    14    8   33 1   
    15    9   10 1   
    16    9   25 1   
    17   10   11 2   
    18   10   12 1   
    19   12   13 1   
    20   13   14 1   
    21   13   26 1   
    22   13   27 1   
    23   14   15 1   
    24   14   16 2   
    25   15   17 ar  
    26   15   21 ar  
    27   17   18 ar  
    28   17   28 1   
    29   18   19 ar  
    30   18   29 1   
    31   19   20 ar  
    32   19   30 1   
    33   20   21 ar  
    34   20   31 1   
    35   21   32 1   
@<TRIPOS>SUBSTRUCTURE
     1 YH1         1 TEMP              0 ****  ****    0 ROOT
