@<TRIPOS>MOLECULE
YH1
   33    35     1     0     0
SMALL
bcc


@<TRIPOS>ATOM
      1 N01         0.0360    0.0060   -0.0970 ns        1 YH1     -0.498400
      2 C02         1.4320    0.0000    0.0180 cc        1 YH1      0.465800
      3 N03         2.1540   -0.0030    1.1420 nd        1 YH1     -0.509100
      4 C04         1.3930   -0.0010    2.2930 cd        1 YH1     -0.011200
      5 C05        -0.0540    0.0040    2.3240 cc        1 YH1      0.326800
      6 C06        -0.7970    0.0090    1.0670 c         1 YH1      0.641000
      7 O07        -2.0150    0.0140    0.8880 o         1 YH1     -0.515500
      8 N08         2.2230   -0.0020   -1.2530 nz        1 YH1     -0.788600
      9 N09         1.8030   -0.0040    3.6320 na        1 YH1     -0.261900
     10 C10         0.6280    0.0000    4.4050 cd        1 YH1      0.516800
     11 N11        -0.5080    0.0050    3.6190 nc        1 YH1     -0.620000
     12 S12         0.6880   -0.0020    6.0840 ss        1 YH1     -0.065400
     13 C13        -1.0240    0.0040    6.5410 c3        1 YH1     -0.162300
     14 C14        -1.1410    0.0020    8.0430 c         1 YH1      0.600700
     15 C15        -2.5070    0.0040    8.5890 ca        1 YH1     -0.187600
     16 O16        -0.1320   -0.0010    8.7590 o         1 YH1     -0.518100
     17 C17        -2.6630   -0.0020    9.9840 ca        1 YH1     -0.075500
     18 C18        -3.9370   -0.0010   10.5490 ca        1 YH1     -0.139500
     19 C19        -5.0640    0.0060    9.7280 ca        1 YH1     -0.083000
     20 C20        -4.9160    0.0120    8.3400 ca        1 YH1     -0.139500
     21 C21        -3.6450    0.0110    7.7700 ca        1 YH1     -0.075500
     22 H1         -0.4180    0.0090   -0.9850 hn        1 YH1      0.348500
     23 H2          1.9940   -0.8420   -1.7980 hn        1 YH1      0.479800
     24 H3          3.2310   -0.0060   -1.0340 hn        1 YH1      0.479800
     25 H4          2.7360   -0.0080    3.9650 hn        1 YH1      0.344700
     26 H6         -1.5460   -0.8980    6.1290 h1        1 YH1      0.116700
     27 H7         -1.5390    0.9120    6.1330 h1        1 YH1      0.116700
     28 H8         -1.7660   -0.0080   10.6270 ha        1 YH1      0.146000
     29 H9         -4.0500   -0.0060   11.6440 ha        1 YH1      0.147000
     30 H10        -6.0710    0.0070   10.1740 ha        1 YH1      0.146000
     31 H11        -5.8060    0.0180    7.6920 ha        1 YH1      0.147000
     32 H12        -3.5510    0.0160    6.6740 ha        1 YH1      0.146000
     33 H083        2.0000    0.8400   -1.7970 hn        1 YH1      0.479800
@<TRIPOS>BOND
     1    1    2 1   
     2    1    6 1   
     3    1   22 1   
     4    2    3 2   
     5    2    8 1   
     6    3    4 1   
     7    4    5 2   
     8    4    9 1   
     9    5    6 1   
    10    5   11 1   
    11    6    7 2   
    12    8   23 1   
    13    8   24 1   
    14    8   33 1   
    15    9   10 1   
    16    9   25 1   
    17   10   11 2   
    18   10   12 1   
    19   12   13 1   
    20   13   14 1   
    21   13   26 1   
    22   13   27 1   
    23   14   15 1   
    24   14   16 2   
    25   15   17 ar  
    26   15   21 ar  
    27   17   18 ar  
    28   17   28 1   
    29   18   19 ar  
    30   18   29 1   
    31   19   20 ar  
    32   19   30 1   
    33   20   21 ar  
    34   20   31 1   
    35   21   32 1   
@<TRIPOS>SUBSTRUCTURE
     1 YH1         1 TEMP              0 ****  ****    0 ROOT
