@<TRIPOS>MOLECULE
YH2
   32    34     1     0     0
SMALL
bcc


@<TRIPOS>ATOM
      1 C01         0.1310    0.0670   -0.1170 c         1 YH2      0.642000
      2 N02         1.5480    0.0500    0.0840 ns        1 YH2     -0.499400
      3 C03         2.0920   -0.0120    1.3720 cc        1 YH2      0.468800
      4 N04         1.4300   -0.0620    2.5320 nd        1 YH2     -0.510100
      5 C05         0.0570   -0.0480    2.3900 cd        1 YH2     -0.012200
      6 C06        -0.6390    0.0140    1.1230 cc        1 YH2      0.324800
      7 O07        -0.2730    0.1220   -1.2770 o         1 YH2     -0.512500
      8 N08         3.5860   -0.0250    1.4850 nz        1 YH2     -0.788600
      9 N09        -0.9410   -0.0870    3.3730 na        1 YH2     -0.261900
     10 C10        -2.1680   -0.0490    2.6890 cd        1 YH2      0.529800
     11 N11        -1.9980    0.0130    1.3200 nc        1 YH2     -0.615000
     12 S12        -3.6370   -0.0790    3.5060 ss        1 YH2     -0.155400
     13 C13        -4.8700   -0.0140    2.2170 c3        1 YH2      0.035000
     14 C14        -6.1570   -0.0410    2.9460 ca        1 YH2     -0.102300
     15 C15        -6.7710    1.1570    3.3360 ca        1 YH2     -0.107000
     16 C16        -7.9920    1.1360    4.0050 ca        1 YH2     -0.093000
     17 C17        -8.6110   -0.0900    4.2890 ca        1 YH2      0.018000
     18 C18        -8.0040   -1.2910    3.8940 ca        1 YH2     -0.093000
     19 C19        -6.7830   -1.2630    3.2250 ca        1 YH2     -0.107000
     20 C20        -9.8560   -0.1150    4.9750 cg        1 YH2      0.213800
     21 N21       -10.8740   -0.1360    5.5370 n1        1 YH2     -0.323800
     22 H1          2.1260    0.0840   -0.7290 hn        1 YH2      0.348500
     23 H2          3.9580   -0.8470    0.9950 hn        1 YH2      0.480467
     24 H3          3.8580   -0.0720    2.4790 hn        1 YH2      0.480467
     25 H4         -0.8040   -0.1330    4.3530 hn        1 YH2      0.343700
     26 H6         -4.7570    0.9190    1.6100 h1        1 YH2      0.102700
     27 H7         -4.7660   -0.8880    1.5270 h1        1 YH2      0.102700
     28 H8         -6.2920    2.1220    3.1080 ha        1 YH2      0.146000
     29 H9         -8.4720    2.0800    4.3080 ha        1 YH2      0.158000
     30 H10        -8.4930   -2.2540    4.1100 ha        1 YH2      0.158000
     31 H11        -6.3130   -2.2080    2.9100 ha        1 YH2      0.146000
     32 H083        3.9680    0.8330    1.0720 hn        1 YH2      0.480467
@<TRIPOS>BOND
     1    1    2 1   
     2    1    6 1   
     3    1    7 2   
     4    2    3 1   
     5    2   22 1   
     6    3    4 2   
     7    3    8 1   
     8    4    5 1   
     9    5    6 2   
    10    5    9 1   
    11    6   11 1   
    12    8   23 1   
    13    8   24 1   
    14    8   32 1   
    15    9   10 1   
    16    9   25 1   
    17   10   11 2   
    18   10   12 1   
    19   12   13 1   
    20   13   14 1   
    21   13   26 1   
    22   13   27 1   
    23   14   15 ar  
    24   14   19 ar  
    25   15   16 ar  
    26   15   28 1   
    27   16   17 ar  
    28   16   29 1   
    29   17   18 ar  
    30   17   20 1   
    31   18   19 ar  
    32   18   30 1   
    33   19   31 1   
    34   20   21 3   
@<TRIPOS>SUBSTRUCTURE
     1 YH2         1 TEMP              0 ****  ****    0 ROOT
