@<TRIPOS>MOLECULE
YH2
   32    34     1     0     0
SMALL
bcc


@<TRIPOS>ATOM
      1 C01         0.1250    0.0580   -0.1240 c         1 YH2      0.642000
      2 N02         1.5430    0.0470    0.0740 n         1 YH2     -0.499400
      3 C03         2.0900   -0.0050    1.3620 cc        1 YH2      0.468800
      4 N04         1.4300   -0.0490    2.5230 nd        1 YH2     -0.510100
      5 C05         0.0570   -0.0400    2.3840 cd        1 YH2     -0.012200
      6 C06        -0.6420    0.0110    1.1170 cc        1 YH2      0.324800
      7 O07        -0.2810    0.1040   -1.2840 o         1 YH2     -0.512500
      8 N08         3.5840   -0.0130    1.4710 n4        1 YH2     -0.788600
      9 N09        -0.9390   -0.0760    3.3680 na        1 YH2     -0.261900
     10 C10        -2.1680   -0.0460    2.6870 cd        1 YH2      0.529800
     11 N11        -2.0010    0.0070    1.3170 nc        1 YH2     -0.615000
     12 S12        -3.6350   -0.0740    3.5070 ss        1 YH2     -0.155400
     13 C13        -4.8710   -0.0210    2.2200 c3        1 YH2      0.035000
     14 C14        -6.1560   -0.0460    2.9520 ca        1 YH2     -0.102300
     15 C15        -6.7720    1.1530    3.3360 ca        1 YH2     -0.107000
     16 C16        -7.9920    1.1330    4.0080 ca        1 YH2     -0.093000
     17 C17        -8.6070   -0.0930    4.3010 ca        1 YH2      0.018000
     18 C18        -7.9980   -1.2940    3.9130 ca        1 YH2     -0.093000
     19 C19        -6.7790   -1.2680    3.2410 ca        1 YH2     -0.107000
     20 C20        -9.8510   -0.1160    4.9900 cg        1 YH2      0.213800
     21 N21       -10.8680   -0.1360    5.5540 n1        1 YH2     -0.323800
     22 H1          2.1190    0.0770   -0.7400 hn        1 YH2      0.348500
     23 H2          3.9580   -0.8370    0.9860 hn        1 YH2      0.480467
     24 H3          3.8580   -0.0530    2.4650 hn        1 YH2      0.480467
     25 H4         -0.8000   -0.1150    4.3480 hn        1 YH2      0.343700
     26 H6         -4.7610    0.9080    1.6070 h1        1 YH2      0.102700
     27 H7         -4.7660   -0.8990    1.5370 h1        1 YH2      0.102700
     28 H8         -6.2960    2.1170    3.1010 ha        1 YH2      0.146000
     29 H9         -8.4730    2.0780    4.3060 ha        1 YH2      0.158000
     30 H10        -8.4850   -2.2570    4.1360 ha        1 YH2      0.158000
     31 H11        -6.3070   -2.2140    2.9310 ha        1 YH2      0.146000
     32 H083        3.9620    0.8440    1.0520 hn        1 YH2      0.480467
@<TRIPOS>BOND
     1    1    2 1   
     2    1    6 1   
     3    1    7 2   
     4    2    3 1   
     5    2   22 1   
     6    3    4 2   
     7    3    8 1   
     8    4    5 1   
     9    5    6 2   
    10    5    9 1   
    11    6   11 1   
    12    8   23 1   
    13    8   24 1   
    14    8   32 1   
    15    9   10 1   
    16    9   25 1   
    17   10   11 2   
    18   10   12 1   
    19   12   13 1   
    20   13   14 1   
    21   13   26 1   
    22   13   27 1   
    23   14   15 ar  
    24   14   19 ar  
    25   15   16 ar  
    26   15   28 1   
    27   16   17 ar  
    28   16   29 1   
    29   17   18 ar  
    30   17   20 1   
    31   18   19 ar  
    32   18   30 1   
    33   19   31 1   
    34   20   21 3   
@<TRIPOS>SUBSTRUCTURE
     1 YH2         1 TEMP              0 ****  ****    0 ROOT
