@<TRIPOS>MOLECULE
YH3
   36    38     1     0     0
SMALL
bcc


@<TRIPOS>ATOM
      1 O16        -0.0190   -0.0310   -0.0440 o         1 YH3     -0.519100
      2 C14         1.2160   -0.0190    0.0130 c         1 YH3      0.600700
      3 C15         1.9590   -0.0090    1.2830 ca        1 YH3     -0.182600
      4 C17         1.2230   -0.0160    2.4780 ca        1 YH3     -0.065000
      5 C18         1.8740   -0.0070    3.7160 ca        1 YH3     -0.080300
      6 C22         1.0900    0.0010    4.9720 c3        1 YH3     -0.060800
      7 C19         3.2730    0.0070    3.7520 ca        1 YH3     -0.088000
      8 C20         4.0080    0.0140    2.5670 ca        1 YH3     -0.136000
      9 C21         3.3590    0.0060    1.3350 ca        1 YH3     -0.097000
     10 C13         2.0480   -0.0150   -1.2440 c3        1 YH3     -0.162300
     11 S12         0.9780   -0.0320   -2.6560 ss        1 YH3     -0.065400
     12 C10         2.0580   -0.0260   -3.9440 cc        1 YH3      0.516800
     13 N09         1.6060   -0.0360   -5.2760 na        1 YH3     -0.262900
     14 C04         2.7520   -0.0270   -6.0800 cc        1 YH3     -0.012200
     15 C05         3.8750   -0.0120   -5.1660 cd        1 YH3      0.327800
     16 N11         3.4380   -0.0110   -3.8650 nd        1 YH3     -0.620000
     17 N03         2.8600   -0.0320   -7.4550 nc        1 YH3     -0.509100
     18 C02         4.1210   -0.0210   -7.8980 cd        1 YH3      0.464800
     19 N08         4.2780   -0.0250   -9.3870 nz        1 YH3     -0.788600
     20 N01         5.2920   -0.0050   -7.1310 ns        1 YH3     -0.498400
     21 C06         5.2340    0.0000   -5.7010 c         1 YH3      0.641000
     22 O07         6.3040    0.0140   -5.0930 o         1 YH3     -0.515500
     23 H1          0.1200   -0.0290    2.4310 ha        1 YH3      0.160000
     24 H2          0.0890   -0.4740    4.8250 hc        1 YH3      0.054033
     25 H3          0.9300    1.0560    5.3140 hc        1 YH3      0.054033
     26 H4          1.6290   -0.5510    5.7820 hc        1 YH3      0.054033
     27 H5          3.7940    0.0120    4.7220 ha        1 YH3      0.146000
     28 H6          5.1080    0.0250    2.6050 ha        1 YH3      0.144000
     29 H7          3.9590    0.0110    0.4130 ha        1 YH3      0.132000
     30 H8          2.7180   -0.9130   -1.2450 h1        1 YH3      0.116700
     31 H9          2.6990    0.8960   -1.2510 h1        1 YH3      0.116700
     32 H10         0.6650   -0.0470   -5.5870 hn        1 YH3      0.344700
     33 H12         3.3480   -0.0360   -9.8340 hn        1 YH3      0.479800
     34 H13         4.7990   -0.8620   -9.6740 hn        1 YH3      0.479800
     35 H14         6.1960    0.0020   -7.5520 hn        1 YH3      0.348500
     36 H083        4.7820    0.8200   -9.6810 hn        1 YH3      0.479800
@<TRIPOS>BOND
     1    1    2 2   
     2    2    3 1   
     3    2   10 1   
     4    3    4 ar  
     5    3    9 ar  
     6    4    5 ar  
     7    4   23 1   
     8    5    6 1   
     9    5    7 ar  
    10    6   24 1   
    11    6   25 1   
    12    6   26 1   
    13    7    8 ar  
    14    7   27 1   
    15    8    9 ar  
    16    8   28 1   
    17    9   29 1   
    18   10   11 1   
    19   10   30 1   
    20   10   31 1   
    21   11   12 1   
    22   12   13 1   
    23   12   16 2   
    24   13   14 1   
    25   13   32 1   
    26   14   15 2   
    27   14   17 1   
    28   15   16 1   
    29   15   21 1   
    30   17   18 2   
    31   18   19 1   
    32   18   20 1   
    33   19   33 1   
    34   19   34 1   
    35   19   36 1   
    36   20   21 1   
    37   20   35 1   
    38   21   22 2   
@<TRIPOS>SUBSTRUCTURE
     1 YH3         1 TEMP              0 ****  ****    0 ROOT
