@<TRIPOS>MOLECULE
YH4
   36    38     1     0     0
SMALL
bcc


@<TRIPOS>ATOM
      1 O16        -0.0310   -0.7830   -0.0210 o         1 YH4     -0.511100
      2 C14         1.1750   -0.5230    0.0410 c         1 YH4      0.601700
      3 C15         1.8940   -0.2440    1.2970 ca        1 YH4     -0.186600
      4 C21         1.2070    0.2660    2.4150 ca        1 YH4      0.000700
      5 C22        -0.2490    0.5310    2.3810 c3        1 YH4     -0.069800
      6 C20         1.9220    0.5240    3.5950 ca        1 YH4     -0.143000
      7 C19         3.2870    0.2670    3.6730 ca        1 YH4     -0.083000
      8 C18         3.9630   -0.2510    2.5670 ca        1 YH4     -0.146000
      9 C17         3.2710   -0.5010    1.3870 ca        1 YH4     -0.093000
     10 C13         2.0190   -0.4720   -1.2100 c3        1 YH4     -0.160300
     11 S12         0.9630   -0.3240   -2.6230 ss        1 YH4     -0.081400
     12 C10         2.0540   -0.1930   -3.9010 cc        1 YH4      0.519800
     13 N11         1.5990   -0.0260   -5.2260 na        1 YH4     -0.243900
     14 C05         2.7250    0.0380   -6.0230 cc        1 YH4     -0.269200
     15 C06         2.8720    0.2000   -7.4570 c         1 YH4      0.748100
     16 O07         1.9870    0.3200   -8.3090 o         1 YH4     -0.545500
     17 N01         4.2330    0.2160   -7.8830 ns        1 YH4     -0.492400
     18 C02         5.2670    0.0830   -6.9470 cc        1 YH4      0.484800
     19 N08         6.6710    0.1080   -7.4770 nz        1 YH4     -0.794600
     20 N03         5.1660   -0.0670   -5.6290 nd        1 YH4     -0.563700
     21 C04         3.8640   -0.0910   -5.1420 cd        1 YH4      0.541300
     22 N09         3.4250   -0.2350   -3.8230 nd        1 YH4     -0.635000
     23 H1         -0.5840    1.0910    3.2880 hc        1 YH4      0.061367
     24 H2         -0.5230    1.1240    1.4720 hc        1 YH4      0.061367
     25 H3         -0.8090   -0.4390    2.3310 hc        1 YH4      0.061367
     26 H4          1.3900    0.9290    4.4700 ha        1 YH4      0.148000
     27 H5          3.8330    0.4690    4.6080 ha        1 YH4      0.145000
     28 H6          5.0410   -0.4640    2.6290 ha        1 YH4      0.142000
     29 H7          3.8160   -0.9170    0.5260 ha        1 YH4      0.128000
     30 H8          2.7280    0.3920   -1.1500 h1        1 YH4      0.113200
     31 H9          2.6280   -1.4110   -1.2720 h1        1 YH4      0.113200
     32 H10         0.6560    0.0280   -5.5320 hn        1 YH4      0.351700
     33 H11         4.4080    0.3230   -8.8600 hn        1 YH4      0.352500
     34 H12         7.3350    0.0020   -6.6930 hn        1 YH4      0.482133
     35 H13         6.8450    1.0050   -7.9460 hn        1 YH4      0.482133
     36 H083        6.8040   -0.6660   -8.1370 hn        1 YH4      0.482133
@<TRIPOS>BOND
     1    1    2 2   
     2    2    3 1   
     3    2   10 1   
     4    3    4 ar  
     5    3    9 ar  
     6    4    5 1   
     7    4    6 ar  
     8    5   23 1   
     9    5   24 1   
    10    5   25 1   
    11    6    7 ar  
    12    6   26 1   
    13    7    8 ar  
    14    7   27 1   
    15    8    9 ar  
    16    8   28 1   
    17    9   29 1   
    18   10   11 1   
    19   10   30 1   
    20   10   31 1   
    21   11   12 1   
    22   12   13 1   
    23   12   22 2   
    24   13   14 1   
    25   13   32 1   
    26   14   15 1   
    27   14   21 2   
    28   15   16 2   
    29   15   17 1   
    30   17   18 1   
    31   17   33 1   
    32   18   19 1   
    33   18   20 2   
    34   19   34 1   
    35   19   35 1   
    36   19   36 1   
    37   20   21 1   
    38   21   22 1   
@<TRIPOS>SUBSTRUCTURE
     1 YH4         1 TEMP              0 ****  ****    0 ROOT
