@<TRIPOS>MOLECULE
YH4
   36    38     1     0     0
SMALL
bcc


@<TRIPOS>ATOM
      1 O16        -0.0270   -0.7900   -0.0170 o         1 YH4     -0.511100
      2 C14         1.1790   -0.5260    0.0430 c         1 YH4      0.601700
      3 C15         1.8970   -0.2430    1.2980 ca        1 YH4     -0.186600
      4 C21         1.2100    0.2680    2.4160 ca        1 YH4      0.000700
      5 C22        -0.2480    0.5280    2.3820 c3        1 YH4     -0.069800
      6 C20         1.9250    0.5310    3.5940 ca        1 YH4     -0.143000
      7 C19         3.2900    0.2780    3.6720 ca        1 YH4     -0.083000
      8 C18         3.9680   -0.2410    2.5660 ca        1 YH4     -0.146000
      9 C17         3.2750   -0.4950    1.3880 ca        1 YH4     -0.093000
     10 C13         2.0220   -0.4740   -1.2080 c3        1 YH4     -0.160300
     11 S12         0.9640   -0.3310   -2.6210 ss        1 YH4     -0.081400
     12 C10         2.0530   -0.1980   -3.9000 cc        1 YH4      0.519800
     13 N11         1.5970   -0.0340   -5.2250 na        1 YH4     -0.243900
     14 C05         2.7220    0.0320   -6.0230 cc        1 YH4     -0.269200
     15 C06         2.8670    0.1930   -7.4570 c         1 YH4      0.748100
     16 O07         1.9820    0.3100   -8.3080 o         1 YH4     -0.545500
     17 N01         4.2280    0.2120   -7.8850 n         1 YH4     -0.492400
     18 C02         5.2630    0.0830   -6.9490 cc        1 YH4      0.484800
     19 N08         6.6670    0.1120   -7.4800 n4        1 YH4     -0.794600
     20 N03         5.1630   -0.0660   -5.6310 nd        1 YH4     -0.563700
     21 C04         3.8620   -0.0930   -5.1430 cd        1 YH4      0.541300
     22 N09         3.4240   -0.2360   -3.8230 nd        1 YH4     -0.635000
     23 H1         -0.5830    1.0890    3.2880 hc        1 YH4      0.061367
     24 H2         -0.5240    1.1190    1.4720 hc        1 YH4      0.061367
     25 H3         -0.8040   -0.4440    2.3340 hc        1 YH4      0.061367
     26 H4          1.3920    0.9360    4.4690 ha        1 YH4      0.148000
     27 H5          3.8370    0.4830    4.6060 ha        1 YH4      0.145000
     28 H6          5.0460   -0.4500    2.6280 ha        1 YH4      0.142000
     29 H7          3.8200   -0.9110    0.5270 ha        1 YH4      0.128000
     30 H8          2.7270    0.3920   -1.1510 h1        1 YH4      0.113200
     31 H9          2.6330   -1.4110   -1.2700 h1        1 YH4      0.113200
     32 H10         0.6530    0.0160   -5.5300 hn        1 YH4      0.351700
     33 H11         4.4020    0.3190   -8.8610 hn        1 YH4      0.352500
     34 H12         7.3320    0.0080   -6.6960 hn        1 YH4      0.482133
     35 H13         6.8380    1.0080   -7.9500 hn        1 YH4      0.482133
     36 H083        6.8010   -0.6630   -8.1390 hn        1 YH4      0.482133
@<TRIPOS>BOND
     1    1    2 2   
     2    2    3 1   
     3    2   10 1   
     4    3    4 ar  
     5    3    9 ar  
     6    4    5 1   
     7    4    6 ar  
     8    5   23 1   
     9    5   24 1   
    10    5   25 1   
    11    6    7 ar  
    12    6   26 1   
    13    7    8 ar  
    14    7   27 1   
    15    8    9 ar  
    16    8   28 1   
    17    9   29 1   
    18   10   11 1   
    19   10   30 1   
    20   10   31 1   
    21   11   12 1   
    22   12   13 1   
    23   12   22 2   
    24   13   14 1   
    25   13   32 1   
    26   14   15 1   
    27   14   21 2   
    28   15   16 2   
    29   15   17 1   
    30   17   18 1   
    31   17   33 1   
    32   18   19 1   
    33   18   20 2   
    34   19   34 1   
    35   19   35 1   
    36   19   36 1   
    37   20   21 1   
    38   21   22 1   
@<TRIPOS>SUBSTRUCTURE
     1 YH4         1 TEMP              0 ****  ****    0 ROOT
