@<TRIPOS>MOLECULE
YH5
   37    39     1     0     0
SMALL
bcc


@<TRIPOS>ATOM
      1 C1         -0.0340   -0.0110   -0.1530 c         1 YH5      0.748100
      2 O1         -0.6860   -0.0150   -1.2010 o         1 YH5     -0.546500
      3 N1          2.4280   -0.0170   -0.9200 na        1 YH5     -0.243900
      4 S1          5.1220   -0.0190   -0.9830 ss        1 YH5     -0.075400
      5 C10         9.5940   -0.0000    3.0680 ca        1 YH5     -0.197000
      6 C11        10.9190   -0.0030    2.5800 ca        1 YH5      0.175100
      7 C12        11.1680   -0.0090    1.2000 ca        1 YH5     -0.197000
      8 C13        10.0940   -0.0140    0.3160 ca        1 YH5     -0.039000
      9 C14        13.2440    0.0000    3.0970 c3        1 YH5      0.108700
     10 N2          3.4230   -0.0070    1.1670 nc        1 YH5     -0.637000
     11 C2          1.4060   -0.0110    0.0110 cd        1 YH5     -0.269200
     12 O2          7.8840   -0.0240   -1.4200 o         1 YH5     -0.524100
     13 N3          1.2810    0.0010    2.4820 nc        1 YH5     -0.563700
     14 C3          3.6360   -0.0140   -0.1910 cd        1 YH5      0.518800
     15 O3         11.8910    0.0020    3.5490 os        1 YH5     -0.316900
     16 C4          2.0330   -0.0050    1.3140 cc        1 YH5      0.541300
     17 N4         -0.7400   -0.0040    1.0860 n         1 YH5     -0.492400
     18 C5         -0.0370    0.0020    2.2990 cd        1 YH5      0.483800
     19 N5         -0.8530    0.0090    3.5580 n4        1 YH5     -0.794600
     20 C6          6.2830   -0.0130    0.3560 c3        1 YH5     -0.159300
     21 C7          7.6840   -0.0170   -0.1990 c         1 YH5      0.604700
     22 C8          8.7720   -0.0120    0.7860 ca        1 YH5     -0.228600
     23 C9          8.5380   -0.0050    2.1710 ca        1 YH5     -0.039000
     24 H1          2.3260   -0.0210   -1.9070 hn        1 YH5      0.351700
     25 H2          9.4220    0.0050    4.1540 ha        1 YH5      0.156000
     26 H3         12.1960   -0.0110    0.8100 ha        1 YH5      0.156000
     27 H4         10.2770   -0.0190   -0.7730 ha        1 YH5      0.146500
     28 H5         13.4570    0.9160    2.4960 h1        1 YH5      0.055033
     29 H6         13.4580   -0.9220    2.5050 h1        1 YH5      0.055033
     30 H7         13.8310    0.0050    4.0510 h1        1 YH5      0.055033
     31 H9         -1.7370   -0.0030    1.0480 hn        1 YH5      0.352500
     32 H10        -1.4400    0.8510    3.5830 hn        1 YH5      0.482133
     33 H11        -0.2220    0.0120    4.3750 hn        1 YH5      0.482133
     34 H12         6.1420    0.8950    0.9950 h1        1 YH5      0.112700
     35 H13         6.1410   -0.9150    1.0040 h1        1 YH5      0.112700
     36 H14         7.5100   -0.0030    2.5660 ha        1 YH5      0.146500
     37 H53        -1.4410   -0.8320    3.5910 hn        1 YH5      0.482133
@<TRIPOS>BOND
     1    1    2 2   
     2    1   11 1   
     3    1   17 1   
     4    3   11 1   
     5    3   14 1   
     6    3   24 1   
     7    4   14 1   
     8    4   20 1   
     9    5    6 ar  
    10    5   23 ar  
    11    5   25 1   
    12    6    7 ar  
    13    6   15 1   
    14    7    8 ar  
    15    7   26 1   
    16    8   22 ar  
    17    8   27 1   
    18    9   15 1   
    19    9   28 1   
    20    9   29 1   
    21    9   30 1   
    22   10   14 2   
    23   10   16 1   
    24   11   16 2   
    25   12   21 2   
    26   13   16 1   
    27   13   18 2   
    28   17   18 1   
    29   17   31 1   
    30   18   19 1   
    31   19   32 1   
    32   19   33 1   
    33   19   37 1   
    34   20   21 1   
    35   20   34 1   
    36   20   35 1   
    37   21   22 1   
    38   22   23 ar  
    39   23   36 1   
@<TRIPOS>SUBSTRUCTURE
     1 YH5         1 TEMP              0 ****  ****    0 ROOT
