@<TRIPOS>MOLECULE
YH6
   36    38     1     0     0
SMALL
bcc


@<TRIPOS>ATOM
      1 O07        -0.1730   -0.0170   -0.0470 o         1 YH6     -0.545500
      2 C06         1.0610   -0.0130   -0.0620 c         1 YH6      0.748100
      3 N01         1.7550   -0.0020    1.1840 ns        1 YH6     -0.492400
      4 C02         3.1570    0.0030    1.2100 cc        1 YH6      0.484800
      5 N08         3.8110    0.0140    2.5610 nz        1 YH6     -0.794600
      6 N03         3.9960    0.0000    0.1780 nd        1 YH6     -0.564700
      7 C04         3.3870   -0.0090   -1.0710 cd        1 YH6      0.541300
      8 C05         1.9470   -0.0160   -1.2090 cc        1 YH6     -0.269200
      9 N11         1.6800   -0.0250   -2.5650 na        1 YH6     -0.243900
     10 N09         3.9810   -0.0150   -2.3360 nd        1 YH6     -0.637000
     11 C10         2.9290   -0.0240   -3.2210 cc        1 YH6      0.518800
     12 S12         3.0210   -0.0340   -4.9020 ss        1 YH6     -0.076400
     13 C13         4.7660   -0.0280   -5.2050 c3        1 YH6     -0.160300
     14 C14         5.0150   -0.0340   -6.6910 c         1 YH6      0.600700
     15 O16         4.0730   -0.0460   -7.4940 o         1 YH6     -0.517100
     16 C15         6.4230   -0.0230   -7.1150 ca        1 YH6     -0.194600
     17 C17         6.7020   -0.0180   -8.4920 ca        1 YH6     -0.070000
     18 C18         8.0180   -0.0070   -8.9430 ca        1 YH6     -0.145500
     19 C19         9.0800   -0.0020   -8.0310 ca        1 YH6     -0.024300
     20 C22        10.4800   -0.0060   -8.5130 c3        1 YH6     -0.068800
     21 C20         8.8000   -0.0060   -6.6580 ca        1 YH6     -0.145500
     22 C21         7.4860   -0.0170   -6.2030 ca        1 YH6     -0.070000
     23 H1          1.2070    0.0010    2.0170 hn        1 YH6      0.352500
     24 H2          3.5280    0.8570    3.0730 hn        1 YH6      0.482133
     25 H3          3.5350   -0.8250    3.0830 hn        1 YH6      0.482133
     26 H4          0.7830   -0.0310   -2.9890 hn        1 YH6      0.351700
     27 H6          5.2500   -0.9290   -4.7480 h1        1 YH6      0.112700
     28 H7          5.2420    0.8810   -4.7560 h1        1 YH6      0.112700
     29 H8          5.8650   -0.0230   -9.2110 ha        1 YH6      0.144500
     30 H9          8.2250   -0.0020  -10.0250 ha        1 YH6      0.145000
     31 H10        10.5760    0.5690   -9.4670 hc        1 YH6      0.056367
     32 H11        11.1690    0.4440   -7.7560 hc        1 YH6      0.056367
     33 H12        10.8110   -1.0590   -8.7050 hc        1 YH6      0.056367
     34 H13         9.6300   -0.0010   -5.9340 ha        1 YH6      0.145000
     35 H14         7.2970   -0.0200   -5.1190 ha        1 YH6      0.144500
     36 H083        4.8370    0.0170    2.4440 hn        1 YH6      0.482133
@<TRIPOS>BOND
     1    1    2 2   
     2    2    3 1   
     3    2    8 1   
     4    3    4 1   
     5    3   23 1   
     6    4    5 1   
     7    4    6 2   
     8    5   24 1   
     9    5   25 1   
    10    5   36 1   
    11    6    7 1   
    12    7    8 2   
    13    7   10 1   
    14    8    9 1   
    15    9   11 1   
    16    9   26 1   
    17   10   11 2   
    18   11   12 1   
    19   12   13 1   
    20   13   14 1   
    21   13   27 1   
    22   13   28 1   
    23   14   15 2   
    24   14   16 1   
    25   16   17 ar  
    26   16   22 ar  
    27   17   18 ar  
    28   17   29 1   
    29   18   19 ar  
    30   18   30 1   
    31   19   20 1   
    32   19   21 ar  
    33   20   31 1   
    34   20   32 1   
    35   20   33 1   
    36   21   22 ar  
    37   21   34 1   
    38   22   35 1   
@<TRIPOS>SUBSTRUCTURE
     1 YH6         1 TEMP              0 ****  ****    0 ROOT
