@<TRIPOS>MOLECULE
YH7
   17    18     1     0     0
SMALL
bcc


@<TRIPOS>ATOM
      1 C01        -0.0210    0.0180    0.0160 cc        1 YH7      0.205300
      2 C02         1.4910    0.0260    0.0460 cc        1 YH7      0.046400
      3 N03         2.2150    0.0580    1.1450 nd        1 YH7     -0.250400
      4 C04         1.5350    0.0860    2.3780 c         1 YH7      0.493800
      5 N05         0.0910    0.0800    2.3990 ns        1 YH7     -0.449100
      6 C06        -0.6600    0.0460    1.2320 cd        1 YH7      0.111600
      7 N07        -0.4670   -0.0190   -1.3220 nc        1 YH7     -0.718000
      8 C08         0.6530   -0.0330   -2.0580 cd        1 YH7      0.592400
      9 N09         1.8510   -0.0080   -1.3170 na        1 YH7     -0.375900
     10 N10        -2.1370    0.0410    1.2770 nz        1 YH7     -0.720400
     11 S11         2.2570    0.1260    3.7680 s         1 YH7     -0.195400
     12 HN10       -2.4810    0.8910    1.7400 hn        1 YH7      0.479467
     13 HN1A       -2.5010    0.0120    0.3120 hn        1 YH7      0.479467
     14 H3         -0.3350    0.1020    3.3070 hn        1 YH7      0.361500
     15 H08         0.6700   -0.0620   -3.1640 h5        1 YH7      0.103100
     16 H5          2.7780   -0.0130   -1.6670 hn        1 YH7      0.356700
     17 H103       -2.4730   -0.7860    1.7860 hn        1 YH7      0.479467
@<TRIPOS>BOND
     1    1    2 1   
     2    1    6 2   
     3    1    7 1   
     4    2    3 2   
     5    2    9 1   
     6    3    4 1   
     7    4    5 1   
     8    4   11 2   
     9    5    6 1   
    10    5   14 1   
    11    6   10 1   
    12    7    8 2   
    13    8    9 1   
    14    8   15 1   
    15    9   16 1   
    16   10   12 1   
    17   10   13 1   
    18   10   17 1   
@<TRIPOS>SUBSTRUCTURE
     1 YH7         1 TEMP              0 ****  ****    0 ROOT
