@<TRIPOS>MOLECULE
YH7
   17    18     1     0     0
SMALL
bcc


@<TRIPOS>ATOM
      1 C01        -0.0240    0.0230    0.0170 cc        1 YH7      0.205300
      2 C02         1.4890    0.0350    0.0400 cc        1 YH7      0.046400
      3 N03         2.2170    0.0570    1.1360 nd        1 YH7     -0.250400
      4 C04         1.5420    0.0710    2.3730 c         1 YH7      0.493800
      5 N05         0.0990    0.0600    2.4000 n         1 YH7     -0.449100
      6 C06        -0.6580    0.0370    1.2360 cd        1 YH7      0.111600
      7 N07        -0.4750   -0.0000   -1.3200 nc        1 YH7     -0.718000
      8 C08         0.6420   -0.0030   -2.0610 cd        1 YH7      0.592400
      9 N09         1.8430    0.0180   -1.3240 na        1 YH7     -0.375900
     10 N10        -2.1340    0.0260    1.2870 n4        1 YH7     -0.720400
     11 S11         2.2700    0.0970    3.7600 s         1 YH7     -0.195400
     12 HN10       -2.4790    0.8700    1.7620 hn        1 YH7      0.479467
     13 HN1A       -2.5020    0.0090    0.3230 hn        1 YH7      0.479467
     14 H3         -0.3230    0.0700    3.3090 hn        1 YH7      0.361500
     15 H08         0.6550   -0.0190   -3.1670 h5        1 YH7      0.103100
     16 H5          2.7690    0.0190   -1.6790 hn        1 YH7      0.356700
     17 H103       -2.4660   -0.8080    1.7870 hn        1 YH7      0.479467
@<TRIPOS>BOND
     1    1    2 1   
     2    1    6 2   
     3    1    7 1   
     4    2    3 2   
     5    2    9 1   
     6    3    4 1   
     7    4    5 1   
     8    4   11 2   
     9    5    6 1   
    10    5   14 1   
    11    6   10 1   
    12    7    8 2   
    13    8    9 1   
    14    8   15 1   
    15    9   16 1   
    16   10   12 1   
    17   10   13 1   
    18   10   17 1   
@<TRIPOS>SUBSTRUCTURE
     1 YH7         1 TEMP              0 ****  ****    0 ROOT
