@<TRIPOS>MOLECULE
YHO
   20    20     1     0     0
SMALL
bcc


@<TRIPOS>ATOM
      1 O3          1.3940   -1.6640   -0.0150 oh        1 YHO     -0.589800
      2 C3          0.7510   -0.6830    0.7660 c3        1 YHO      0.120100
      3 C2         -0.7700   -0.6920    0.4950 c3        1 YHO      0.065100
      4 O2         -1.0750   -1.3760   -0.7060 oh        1 YHO     -0.609800
      5 C1         -1.2140    0.7950    0.3630 c3        1 YHO      0.177500
      6 N1         -2.3360    1.0730   -0.5020 n3        1 YHO     -0.881800
      7 C5          0.0610    1.5670   -0.0220 c3        1 YHO     -0.117400
      8 C4          1.2470    0.7560    0.5020 c3        1 YHO      0.107100
      9 O4          2.2970    0.6730   -0.4480 oh        1 YHO     -0.599800
     10 HO3         1.5260   -1.3010   -0.9030 ho        1 YHO      0.428000
     11 H3          0.9650   -0.9800    1.8290 h1        1 YHO      0.079700
     12 H2         -1.3160   -1.1880    1.3430 h1        1 YHO      0.044700
     13 HO2        -0.6290   -2.2340   -0.6610 ho        1 YHO      0.423000
     14 H1         -1.5200    1.1220    1.4020 h1        1 YHO      0.059700
     15 HN1        -2.0970    0.8720   -1.4550 hn        1 YHO      0.354800
     16 HN1A       -3.1080    0.4880   -0.2440 hn        1 YHO      0.354800
     17 H5          0.1450    1.6780   -1.1340 hc        1 YHO      0.061700
     18 H5A         0.0430    2.5900    0.4250 hc        1 YHO      0.061700
     19 H4          1.6480    1.2030    1.4530 h1        1 YHO      0.047700
     20 HO4         2.5080    1.5770   -0.7100 ho        1 YHO      0.412000
@<TRIPOS>BOND
     1    1    2 1   
     2    1   10 1   
     3    2    3 1   
     4    2    8 1   
     5    2   11 1   
     6    3    4 1   
     7    3    5 1   
     8    3   12 1   
     9    4   13 1   
    10    5    6 1   
    11    5    7 1   
    12    5   14 1   
    13    6   15 1   
    14    6   16 1   
    15    7    8 1   
    16    7   17 1   
    17    7   18 1   
    18    8    9 1   
    19    8   19 1   
    20    9   20 1   
@<TRIPOS>SUBSTRUCTURE
     1 YHO         1 TEMP              0 ****  ****    0 ROOT
