@<TRIPOS>MOLECULE
YHO
   21    21     1     0     0
SMALL
bcc


@<TRIPOS>ATOM
      1 O3          0.2290    0.0030    0.7670 oh        1 YHO     -0.618800
      2 C3          1.5360   -0.0760    0.2270 c3        1 YHO      0.086100
      3 C2          2.4780   -0.1230    1.4530 c3        1 YHO      0.136100
      4 O2          1.9040   -0.6770    2.6130 oh        1 YHO     -0.601800
      5 C1          2.7950    1.3840    1.7190 c3        1 YHO      0.111500
      6 N1          1.6260    2.0240    2.4090 nz        1 YHO     -0.835600
      7 C5          2.9700    1.9440    0.3000 c3        1 YHO     -0.135400
      8 C4          1.9000    1.2280   -0.5400 c3        1 YHO      0.094100
      9 O4          0.7210    2.0180   -0.5520 oh        1 YHO     -0.625800
     10 HO3        -0.3870    0.1380    0.0320 ho        1 YHO      0.454000
     11 H3          1.6430   -0.9820   -0.4240 h1        1 YHO      0.094700
     12 H2          3.4340   -0.6630    1.2150 h1        1 YHO      0.105700
     13 HO2         1.2140   -1.3040    2.3440 ho        1 YHO      0.459000
     14 H1          3.7040    1.5140    2.3670 hx        1 YHO      0.127700
     15 HN1         1.8230    3.0010    2.6270 hn        1 YHO      0.471467
     16 HN1A        0.8020    1.9600    1.7850 hn        1 YHO      0.471467
     17 H5          2.8540    3.0540    0.2470 hc        1 YHO      0.099700
     18 H5A         3.9970    1.6820   -0.0640 hc        1 YHO      0.099700
     19 H4          2.2660    1.0080   -1.5740 h1        1 YHO      0.092700
     20 HO4         0.6750    2.4770   -1.4010 ho        1 YHO      0.444000
     21 H13         1.4240    1.4950    3.2670 hn        1 YHO      0.471467
@<TRIPOS>BOND
     1    1    2 1   
     2    1   10 1   
     3    2    3 1   
     4    2    8 1   
     5    2   11 1   
     6    3    4 1   
     7    3    5 1   
     8    3   12 1   
     9    4   13 1   
    10    5    6 1   
    11    5    7 1   
    12    5   14 1   
    13    6   15 1   
    14    6   16 1   
    15    6   21 1   
    16    7    8 1   
    17    7   17 1   
    18    7   18 1   
    19    8    9 1   
    20    8   19 1   
    21    9   20 1   
@<TRIPOS>SUBSTRUCTURE
     1 YHO         1 TEMP              0 ****  ****    0 ROOT
