@<TRIPOS>MOLECULE
YHO
   21    21     1     0     0
SMALL
bcc


@<TRIPOS>ATOM
      1 O3          0.2020    0.0420    0.8180 oh        1 YHO     -0.618800
      2 C3          1.4900   -0.0670    0.2380 c3        1 YHO      0.085100
      3 C2          2.4680   -0.1360    1.4350 c3        1 YHO      0.136100
      4 O2          1.9170   -0.6790    2.6120 oh        1 YHO     -0.601800
      5 C1          2.8280    1.3630    1.6910 c3        1 YHO      0.111500
      6 N1          1.6960    2.0290    2.4170 n4        1 YHO     -0.835600
      7 C5          2.9730    1.9190    0.2670 c3        1 YHO     -0.135400
      8 C4          1.8600    1.2290   -0.5390 c3        1 YHO      0.094100
      9 O4          0.7000    2.0460   -0.5150 oh        1 YHO     -0.625800
     10 HO3        -0.4330    0.1920    0.1030 ho        1 YHO      0.454000
     11 H3          1.5560   -0.9740   -0.4160 h1        1 YHO      0.094700
     12 H2          3.4030   -0.6990    1.1670 h1        1 YHO      0.105700
     13 HO2         1.2050   -1.2880    2.3640 ho        1 YHO      0.459000
     14 H1          3.7590    1.4710    2.3100 hx        1 YHO      0.127700
     15 HN1         1.5090    1.5040    3.2810 hn        1 YHO      0.471467
     16 HN1A        0.8520    1.9850    1.8190 hn        1 YHO      0.471467
     17 H5          3.9810    1.6340   -0.1280 hc        1 YHO      0.099700
     18 H5A         2.8810    3.0320    0.2180 hc        1 YHO      0.099700
     19 H4          2.1890    1.0020   -1.5850 h1        1 YHO      0.092700
     20 HO4         0.6380    2.5070   -1.3620 ho        1 YHO      0.444000
     21 H13         1.9230    3.0000    2.6280 hn        1 YHO      0.471467
@<TRIPOS>BOND
     1    1    2 1   
     2    1   10 1   
     3    2    3 1   
     4    2    8 1   
     5    2   11 1   
     6    3    4 1   
     7    3    5 1   
     8    3   12 1   
     9    4   13 1   
    10    5    6 1   
    11    5    7 1   
    12    5   14 1   
    13    6   15 1   
    14    6   16 1   
    15    6   21 1   
    16    7    8 1   
    17    7   17 1   
    18    7   18 1   
    19    8    9 1   
    20    8   19 1   
    21    9   20 1   
@<TRIPOS>SUBSTRUCTURE
     1 YHO         1 TEMP              0 ****  ****    0 ROOT
