@<TRIPOS>MOLECULE
YHX
   20    21     1     0     0
SMALL
bcc


@<TRIPOS>ATOM
      1 O01         0.0770   -0.1880    0.1210 o         1 YHX     -0.208500
      2 N02         1.2510    0.0540    0.0440 no        1 YHX      0.324200
      3 O03         1.8910    0.3790    1.0110 o         1 YHX     -0.208500
      4 C04         1.9540   -0.0140   -1.2600 ca        1 YHX     -0.218200
      5 C05         3.1470    0.6830   -1.3820 ca        1 YHX     -0.007000
      6 C06         3.8540    0.6850   -2.5940 ca        1 YHX     -0.263300
      7 N07         3.4150    0.0010   -3.7020 na        1 YHX      0.282600
      8 O08         4.0300    0.0150   -4.7500 o         1 YHX     -0.229000
      9 C09         2.1970   -0.7440   -3.5890 ca        1 YHX     -0.127300
     10 C10         1.4520   -0.7650   -2.3730 ca        1 YHX      0.047000
     11 C11         0.2680   -1.5460   -2.3420 ca        1 YHX     -0.132000
     12 C12        -0.1550   -2.2470   -3.4490 ca        1 YHX     -0.087000
     13 C13         0.5810   -2.2100   -4.6510 ca        1 YHX     -0.131000
     14 C14         1.7390   -1.4740   -4.7250 ca        1 YHX     -0.080000
     15 H05         3.5710    1.2550   -0.5350 ha        1 YHX      0.188000
     16 H06         4.8000    1.2410   -2.7140 h4        1 YHX      0.199000
     17 H14         2.3300   -1.4360   -5.6570 ha        1 YHX      0.174000
     18 H11        -0.3340   -1.5950   -1.4180 ha        1 YHX      0.180000
     19 H12        -1.0790   -2.8460   -3.4020 ha        1 YHX      0.149000
     20 H13         0.2240   -2.7740   -5.5260 ha        1 YHX      0.150000
@<TRIPOS>BOND
     1    1    2 1   
     2    2    3 1   
     3    2    4 1   
     4    4    5 ar  
     5    4   10 ar  
     6    5    6 ar  
     7    5   15 1   
     8    6    7 1   
     9    6   16 1   
    10    7    8 1   
    11    7    9 2   
    12    9   10 ar  
    13    9   14 ar  
    14   10   11 ar  
    15   11   12 ar  
    16   11   18 1   
    17   12   13 ar  
    18   12   19 1   
    19   13   14 ar  
    20   13   20 1   
    21   14   17 1   
@<TRIPOS>SUBSTRUCTURE
     1 YHX         1 TEMP              0 ****  ****    0 ROOT
