@<TRIPOS>MOLECULE
YHX
   20    21     1     0     0
SMALL
bcc


@<TRIPOS>ATOM
      1 O01         0.0770   -0.1900    0.1220 o         1 YHX     -0.208500
      2 N02         1.2500    0.0580    0.0430 no        1 YHX      0.324200
      3 O03         1.8890    0.3890    1.0080 o         1 YHX     -0.208500
      4 C04         1.9520   -0.0100   -1.2620 ca        1 YHX     -0.218200
      5 C05         3.1410    0.6940   -1.3870 ca        1 YHX     -0.007000
      6 C06         3.8470    0.6960   -2.6000 ca        1 YHX     -0.263300
      7 N07         3.4110    0.0070   -3.7050 na        1 YHX      0.282600
      8 O08         4.0250    0.0210   -4.7550 o         1 YHX     -0.229000
      9 C09         2.1960   -0.7440   -3.5900 ca        1 YHX     -0.127300
     10 C10         1.4520   -0.7660   -2.3730 ca        1 YHX      0.047000
     11 C11         0.2730   -1.5530   -2.3380 ca        1 YHX     -0.132000
     12 C12        -0.1480   -2.2590   -3.4430 ca        1 YHX     -0.087000
     13 C13         0.5870   -2.2200   -4.6460 ca        1 YHX     -0.131000
     14 C14         1.7410   -1.4790   -4.7230 ca        1 YHX     -0.080000
     15 H05         3.5640    1.2700   -0.5420 ha        1 YHX      0.188000
     16 H06         4.7900    1.2570   -2.7220 h4        1 YHX      0.199000
     17 H14         2.3310   -1.4410   -5.6560 ha        1 YHX      0.174000
     18 H11        -0.3280   -1.6030   -1.4140 ha        1 YHX      0.180000
     19 H12        -1.0690   -2.8620   -3.3930 ha        1 YHX      0.149000
     20 H13         0.2320   -2.7880   -5.5190 ha        1 YHX      0.150000
@<TRIPOS>BOND
     1    1    2 1   
     2    2    3 1   
     3    2    4 1   
     4    4    5 ar  
     5    4   10 ar  
     6    5    6 ar  
     7    5   15 1   
     8    6    7 1   
     9    6   16 1   
    10    7    8 1   
    11    7    9 2   
    12    9   10 ar  
    13    9   14 ar  
    14   10   11 ar  
    15   11   12 ar  
    16   11   18 1   
    17   12   13 ar  
    18   12   19 1   
    19   13   14 ar  
    20   13   20 1   
    21   14   17 1   
@<TRIPOS>SUBSTRUCTURE
     1 YHX         1 TEMP              0 ****  ****    0 ROOT
