@<TRIPOS>MOLECULE
YI0
   33    35     1     0     0
SMALL
bcc


@<TRIPOS>ATOM
      1 N1          0.0050   -0.4080    0.1170 nc        1 YI0     -0.134100
      2 N2          1.2300   -0.3010   -0.0360 nd        1 YI0     -0.258000
      3 C3          1.9410   -0.1530    1.1870 cd        1 YI0      0.332800
      4 C4          1.0930   -0.1680    2.3030 cc        1 YI0     -0.066400
      5 C6          3.3880    0.0010    1.1760 ca        1 YI0     -0.176500
      6 C7          1.4510   -0.0740    3.6950 ca        1 YI0     -0.069000
      7 C12         0.6680    0.6920    4.5770 ca        1 YI0     -0.069500
      8 C13         0.9930    0.7780    5.9230 ca        1 YI0     -0.183500
      9 C14         2.1200    0.0830    6.4060 ca        1 YI0      0.141100
     10 C15         2.9070   -0.6870    5.5410 ca        1 YI0     -0.183500
     11 C16         2.5690   -0.7580    4.1920 ca        1 YI0     -0.069500
     12 C21         4.2240   -1.0430    0.7180 ca        1 YI0      0.189100
     13 C22         5.6140   -0.8850    0.6680 ca        1 YI0     -0.252000
     14 C23         6.1810    0.3300    1.0810 ca        1 YI0      0.186100
     15 C24         5.3570    1.3740    1.5430 ca        1 YI0     -0.112600
     16 C25         3.9720    1.2020    1.5810 ca        1 YI0     -0.025000
     17 O29         7.5470    0.4040    1.0040 oh        1 YI0     -0.487100
     18 O30         3.6200   -2.2190    0.3530 oh        1 YI0     -0.477100
     19 O33         2.3560    0.2310    7.7570 os        1 YI0     -0.322900
     20 S1         -0.4930   -0.3570    1.7280 ss        1 YI0      0.103200
     21 C34         3.4890   -0.4550    8.2780 c3        1 YI0      0.111700
     22 Cl          6.0270    2.8530    2.0510 cl        1 YI0     -0.088400
     23 H25         3.3280    2.0250    1.9320 ha        1 YI0      0.161000
     24 H12        -0.2120    1.2330    4.1960 ha        1 YI0      0.144000
     25 H16         3.1850   -1.3590    3.5040 ha        1 YI0      0.144000
     26 H13         0.3890    1.3770    6.6180 ha        1 YI0      0.149000
     27 H15         3.7860   -1.2340    5.9090 ha        1 YI0      0.149000
     28 H22         6.2680   -1.6910    0.3070 ha        1 YI0      0.160000
     29 H30         4.2950   -2.7990   -0.0330 ho        1 YI0      0.427000
     30 H29         7.8240    1.2900    1.2910 ho        1 YI0      0.435000
     31 H341        4.4270   -0.0910    7.7930 h1        1 YI0      0.047367
     32 H342        3.3790   -1.5580    8.1410 h1        1 YI0      0.047367
     33 H343        3.4760   -0.1880    9.3650 h1        1 YI0      0.047367
@<TRIPOS>BOND
     1    1    2 2   
     2    1   20 1   
     3    2    3 1   
     4    3    4 2   
     5    3    5 1   
     6    4    6 1   
     7    4   20 1   
     8    5   12 ar  
     9    5   16 ar  
    10    6    7 ar  
    11    6   11 ar  
    12    7    8 ar  
    13    7   24 1   
    14    8    9 ar  
    15    8   26 1   
    16    9   10 ar  
    17    9   19 1   
    18   10   11 ar  
    19   10   27 1   
    20   11   25 1   
    21   12   13 ar  
    22   12   18 1   
    23   13   14 ar  
    24   13   28 1   
    25   14   15 ar  
    26   14   17 1   
    27   15   16 ar  
    28   15   22 1   
    29   16   23 1   
    30   17   30 1   
    31   18   29 1   
    32   19   21 1   
    33   21   31 1   
    34   21   32 1   
    35   21   33 1   
@<TRIPOS>SUBSTRUCTURE
     1 YI0         1 TEMP              0 ****  ****    0 ROOT
