@<TRIPOS>MOLECULE
YI0
   33    35     1     0     0
SMALL
bcc


@<TRIPOS>ATOM
      1 N1          0.5670   -4.0480    0.3360 nc        1 YI0     -0.136100
      2 N2         -0.4660   -3.3770    0.2030 nd        1 YI0     -0.266000
      3 C3         -0.2240   -1.9830    0.0710 cd        1 YI0      0.289800
      4 C4          1.1450   -1.6740    0.1110 cc        1 YI0     -0.052400
      5 C6         -1.3350   -1.0450   -0.0230 ca        1 YI0     -0.224500
      6 C7          1.7680   -0.3820   -0.0170 ca        1 YI0     -0.078000
      7 C12         2.8830   -0.0550    0.7770 ca        1 YI0     -0.066000
      8 C13         3.5000    1.1800    0.6580 ca        1 YI0     -0.183000
      9 C14         3.0040    2.1140   -0.2750 ca        1 YI0      0.146100
     10 C15         1.8990    1.8010   -1.0750 ca        1 YI0     -0.183000
     11 C16         1.2870    0.5570   -0.9400 ca        1 YI0     -0.066000
     12 C21        -1.9390   -0.7400   -1.2610 ca        1 YI0      0.183100
     13 C22        -3.0110    0.1590   -1.3410 ca        1 YI0     -0.193000
     14 C23        -3.4870    0.7540   -0.1660 ca        1 YI0      0.179100
     15 C24        -2.8970    0.4490    1.0780 ca        1 YI0     -0.109600
     16 C25        -1.8330   -0.4500    1.1400 ca        1 YI0     -0.018000
     17 O29        -4.5330    1.6260   -0.3240 oh        1 YI0     -0.485100
     18 O30        -1.5130   -1.2630   -2.4560 oh        1 YI0     -0.490100
     19 O33         3.6890    3.3080   -0.3190 os        1 YI0     -0.321900
     20 S1          1.9850   -3.1330    0.3190 ss        1 YI0      0.116200
     21 C34         3.2040    4.2810   -1.2390 c3        1 YI0      0.110700
     22 CL         -3.4710    1.1610    2.5130 cl        1 YI0     -0.089400
     23 H25        -1.3760   -0.6940    2.1130 ha        1 YI0      0.158000
     24 H12         3.2670   -0.7860    1.5060 ha        1 YI0      0.144000
     25 H16         0.4130    0.3080   -1.5650 ha        1 YI0      0.144000
     26 H13         4.3690    1.4460    1.2780 ha        1 YI0      0.151000
     27 H15         1.5050    2.5210   -1.8070 ha        1 YI0      0.151000
     28 H22        -3.4750    0.3910   -2.3100 ha        1 YI0      0.175000
     29 H30        -0.8810   -1.9740   -2.2710 ho        1 YI0      0.433000
     30 H29        -4.7970    1.9530    0.5520 ho        1 YI0      0.434000
     31 H341        3.2710    3.8990   -2.2870 h1        1 YI0      0.048700
     32 H342        2.1540    4.5690   -0.9910 h1        1 YI0      0.048700
     33 H343        3.8990    5.1470   -1.0890 h1        1 YI0      0.048700
@<TRIPOS>BOND
     1    1    2 2   
     2    1   20 1   
     3    2    3 1   
     4    3    4 2   
     5    3    5 1   
     6    4    6 1   
     7    4   20 1   
     8    5   12 ar  
     9    5   16 ar  
    10    6    7 ar  
    11    6   11 ar  
    12    7    8 ar  
    13    7   24 1   
    14    8    9 ar  
    15    8   26 1   
    16    9   10 ar  
    17    9   19 1   
    18   10   11 ar  
    19   10   27 1   
    20   11   25 1   
    21   12   13 ar  
    22   12   18 1   
    23   13   14 ar  
    24   13   28 1   
    25   14   15 ar  
    26   14   17 1   
    27   15   16 ar  
    28   15   22 1   
    29   16   23 1   
    30   17   30 1   
    31   18   29 1   
    32   19   21 1   
    33   21   31 1   
    34   21   32 1   
    35   21   33 1   
@<TRIPOS>SUBSTRUCTURE
     1 YI0         1 TEMP              0 ****  ****    0 ROOT
