@<TRIPOS>MOLECULE
YI0
   33    29     1     0     0
SMALL
bcc


@<TRIPOS>ATOM
      1 N1         -2.2160   -0.2490   -3.0910 nc        1 YI0     -0.134100
      2 N2         -0.7770   -0.0900   -3.1860 nd        1 YI0     -0.263000
      3 C3         -0.2060    0.0020   -1.7660 cd        1 YI0      0.329300
      4 C4         -1.2810   -0.1000   -0.8490 cc        1 YI0     -0.058400
      5 C6          1.1570    0.1920   -1.4290 ch        1 YI0     -0.173000
      6 C7         -1.1720   -0.1460    0.5510 cg        1 YI0     -0.059000
      7 C12        -1.4490   -1.3250    1.2250 c1        1 YI0     -0.082000
      8 C13        -1.4960   -1.3380    2.6180 c1        1 YI0     -0.082000
      9 C14        -1.2660   -0.1710    3.3290 c1        1 YI0      0.123600
     10 C15        -0.9890    1.0070    2.6560 c1        1 YI0     -0.101500
     11 C16        -0.9420    1.0200    1.2630 c1        1 YI0     -0.010500
     12 C21         2.0290   -0.8710   -1.6330 c1        1 YI0      0.178600
     13 C22         2.9680   -0.8140   -2.6560 c1        1 YI0     -0.192500
     14 C23         3.0360    0.3090   -3.4790 c1        1 YI0      0.171600
     15 C24         2.1650    1.3700   -3.2770 c1        1 YI0     -0.102100
     16 C25         1.2240    1.3140   -2.2510 c1        1 YI0      0.025500
     17 O29         3.9260    0.3250   -4.5800 oh        1 YI0     -0.469600
     18 O30         2.0080   -1.9740   -0.7620 oh        1 YI0     -0.461600
     19 O33        -1.3730   -0.1710    4.7290 os        1 YI0     -0.306400
     20 S1         -2.5790   -0.2600   -1.6600 ss        1 YI0      0.097200
     21 C34        -2.6540    0.1690    5.2030 c3        1 YI0      0.111700
     22 CL          2.2710    2.7930   -4.2880 cl        1 YI0     -0.100900
     23 H25         0.6090    2.0630   -2.1080 ha        1 YI0      0.100500
     24 H12        -1.6120   -2.1480    0.7240 ha        1 YI0      0.083500
     25 H16        -0.7480    1.8470    0.7920 ha        1 YI0      0.087500
     26 H13        -1.6930   -2.1740    3.0950 ha        1 YI0      0.083500
     27 H15        -0.8280    1.8260    3.1570 ha        1 YI0      0.097500
     28 H22         3.5790   -1.5580   -2.7980 ha        1 YI0      0.102500
     29 H30         2.6310   -2.5500   -1.0030 ho        1 YI0      0.426000
     30 H29         4.5320    0.9630   -4.4610 ho        1 YI0      0.435000
     31 H341       -3.3350   -0.2270    4.6170 h1        1 YI0      0.047033
     32 H342       -2.7530    1.1440    5.2070 h1        1 YI0      0.047033
     33 H343       -2.7670   -0.1750    6.1150 h1        1 YI0      0.047033
@<TRIPOS>BOND
     1    1    2 2   
     2    1   20 1   
     3    2    3 1   
     4    3    4 2   
     5    3    5 1   
     6    4    6 1   
     7    4   20 1   
     8    5   12 3   
     9    6   11 3   
    10    7    8 3   
    11    7   24 1   
    12    8   26 1   
    13    9   10 3   
    14    9   19 1   
    15   10   27 1   
    16   11   25 1   
    17   12   18 1   
    18   13   14 3   
    19   13   28 1   
    20   14   17 1   
    21   15   16 3   
    22   15   22 1   
    23   16   23 1   
    24   17   30 1   
    25   18   29 1   
    26   19   21 1   
    27   21   31 1   
    28   21   32 1   
    29   21   33 1   
@<TRIPOS>SUBSTRUCTURE
     1 YI0         1 TEMP              0 ****  ****    0 ROOT
