@<TRIPOS>MOLECULE
YI1
   35    36     1     0     0
SMALL
bcc


@<TRIPOS>ATOM
      1 FAG         0.0000    0.0000    0.0000 f         1 YI1     -0.238300
      2 CAE         1.3990    0.0000    0.0000 c3        1 YI1      0.398700
      3 FAF         1.8640    0.0000    1.3190 f         1 YI1     -0.238300
      4 PAB         2.0070   -1.4880   -0.8580 p5        1 YI1      0.510700
      5 OAC         1.4620   -2.6960   -0.1980 o         1 YI1     -0.565167
      6 OAA         1.5280   -1.4550   -2.3960 o         1 YI1     -0.565167
      7 OAD         3.6160   -1.5230   -0.7970 o         1 YI1     -0.565167
      8 CAH         1.9010    1.2310   -0.7100 ca        1 YI1     -0.077300
      9 CAJ         1.1680    1.7760   -1.7490 ca        1 YI1     -0.039000
     10 CAK         1.6240    2.9050   -2.4050 ca        1 YI1     -0.124000
     11 CAL         2.8140    3.4940   -2.0260 ca        1 YI1     -0.120000
     12 CAM         3.5560    2.9490   -0.9810 cp        1 YI1     -0.090000
     13 CAI         3.0900    1.8140   -0.3200 ca        1 YI1     -0.044000
     14 CAN         4.8360    3.5770   -0.5700 cp        1 YI1      0.042000
     15 CAQ         5.3000    4.7140   -1.2280 ca        1 YI1     -0.112500
     16 CAR         6.4910    5.2940   -0.8410 ca        1 YI1     -0.078500
     17 CAS         7.2230    4.7480    0.1970 ca        1 YI1     -0.166300
     18 CAP         6.7670    3.6200    0.8540 ca        1 YI1     -0.078500
     19 CAO         5.5750    3.0350    0.4790 ca        1 YI1     -0.112500
     20 CAT         8.5240    5.3870    0.6140 c3        1 YI1      0.276700
     21 OAU         8.2720    6.3670    1.6230 os        1 YI1     -0.382100
     22 NAV         9.4730    7.0500    2.1020 nz        1 YI1     -0.011100
     23 HAJ         0.2310    1.3210   -2.0460 ha        1 YI1      0.125000
     24 HAI         3.6190    1.4370    0.5470 ha        1 YI1      0.124000
     25 HAK         1.0450    3.3290   -3.2160 ha        1 YI1      0.088000
     26 HAL         3.2060    4.3320   -2.5890 ha        1 YI1      0.089000
     27 HAQ         4.6930    5.1810   -1.9950 ha        1 YI1      0.126500
     28 HAO         5.2190    2.1500    0.9940 ha        1 YI1      0.126500
     29 HAR         6.8520    6.1790   -1.3520 ha        1 YI1      0.091500
     30 HAP         7.3440    3.1980    1.6680 ha        1 YI1      0.091500
     31 HAT1        8.9850    5.8610   -0.2430 h1        1 YI1     -0.012800
     32 HAT2        9.1890    4.6270    1.0070 h1        1 YI1     -0.012800
     33 HAV1       10.1040    6.3800    2.4940 hn        1 YI1      0.181800
     34 HAV2        9.2190    7.7190    2.8030 hn        1 YI1      0.181800
     35 HAV3        9.9160    7.5200    1.3380 hn        1 YI1      0.181800
@<TRIPOS>BOND
     1    1    2 1   
     2    2    3 1   
     3    2    4 1   
     4    2    8 1   
     5    4    5 1   
     6    4    6 1   
     7    4    7 1   
     8    8    9 ar  
     9    8   13 ar  
    10    9   10 ar  
    11    9   23 1   
    12   10   11 ar  
    13   10   25 1   
    14   11   12 ar  
    15   11   26 1   
    16   12   13 ar  
    17   12   14 1   
    18   13   24 1   
    19   14   15 ar  
    20   14   19 ar  
    21   15   16 ar  
    22   15   27 1   
    23   16   17 ar  
    24   16   29 1   
    25   17   18 ar  
    26   17   20 1   
    27   18   19 ar  
    28   18   30 1   
    29   19   28 1   
    30   20   21 1   
    31   20   31 1   
    32   20   32 1   
    33   21   22 1   
    34   22   33 1   
    35   22   34 1   
    36   22   35 1   
@<TRIPOS>SUBSTRUCTURE
     1 YI1         1 TEMP              0 ****  ****    0 ROOT
