@<TRIPOS>MOLECULE
YI2
   77    77     1     0     0
SMALL
bcc


@<TRIPOS>ATOM
      1 C12        -0.1400    0.0250   -0.5140 c3        1 YI2     -0.073400
      2 C13         1.3530    0.2360   -0.2160 c3        1 YI2      0.006200
      3 C14         1.5200    1.3450    0.8340 c3        1 YI2     -0.067400
      4 C15         3.3700   -1.2720    2.4370 c2        1 YI2     -0.227100
      5 C16         2.6610   -1.1660    1.3560 c1        1 YI2     -0.012800
      6 C21         0.9380   -3.3430    0.1470 c3        1 YI2     -0.089100
      7 C24         3.3350   -3.4320   -3.7770 c3        1 YI2      0.144100
      8 C29         5.5940   -4.4210   -4.2650 c3        1 YI2     -0.094100
      9 C27         4.8290   -3.1640   -3.9450 c3        1 YI2     -0.118400
     10 C26         3.3490   -5.8200   -6.8160 c2        1 YI2     -0.219500
     11 C28         3.6080   -6.5460   -7.8950 c2        1 YI2     -0.219500
     12 O03         2.5810   -2.2630   -4.0520 oh        1 YI2     -0.602800
     13 S22         3.3440   -2.8700   -1.0690 ss        1 YI2     -0.319200
     14 C20         1.7130   -2.2800   -0.5900 c3        1 YI2      0.071600
     15 C17         1.9540   -1.0700    0.2550 c2        1 YI2     -0.125500
     16 C18         2.0710    0.6840   -1.4860 c3        1 YI2     -0.085100
     17 C11        -0.9540    1.2770   -0.2760 c3        1 YI2     -0.074400
     18 C09        -0.9360    1.6940    1.1810 c3        1 YI2     -0.072400
     19 C08         0.3900    1.3390    1.8510 c3        1 YI2     -0.023500
     20 C07         0.6350    2.2520    3.0040 c2        1 YI2     -0.164300
     21 C06         1.7640    2.8340    3.2880 c1        1 YI2     -0.038800
     22 C05         2.8830    3.4330    3.6020 c2        1 YI2     -0.143500
     23 C10         3.2320    4.7860    3.0780 c3        1 YI2     -0.048200
     24 C01         3.7210    5.7310    4.1790 c3        1 YI2      0.182300
     25 O01         2.6430    6.2090    4.9680 oh        1 YI2     -0.591300
     26 C04         3.9110    2.7860    4.4670 c3        1 YI2     -0.048200
     27 C03         4.3410    3.7390    5.5880 c3        1 YI2      0.182300
     28 O02         5.3660    3.0650    6.3040 oh        1 YI2     -0.591300
     29 C02         4.7730    5.0620    5.0210 c2        1 YI2     -0.183400
     30 C30         5.9870    5.5820    5.2350 c2        1 YI2     -0.180200
     31 C31         6.4540    6.8940    4.7100 c3        1 YI2      0.154600
     32 O04         7.7370    7.2360    5.2010 oh        1 YI2     -0.593800
     33 H1         -0.5360   -0.7980    0.1380 hc        1 YI2      0.044700
     34 H2         -0.2660   -0.3000   -1.5800 hc        1 YI2      0.044700
     35 H3          2.5050    1.2330    1.3570 hc        1 YI2      0.053700
     36 H4          1.5330    2.3410    0.3160 hc        1 YI2      0.053700
     37 H5          2.9200   -1.5010    3.4140 ha        1 YI2      0.135000
     38 H6          4.4620   -1.1390    2.4380 ha        1 YI2      0.135000
     39 H8          1.4720   -3.6450    1.0810 hc        1 YI2      0.044700
     40 H9         -0.0740   -2.9580    0.4270 hc        1 YI2      0.044700
     41 H10         0.8030   -4.2470   -0.4950 hc        1 YI2      0.044700
     42 H11         1.9350   -4.3000   -2.3750 h1        1 YI2      0.078200
     43 H12         3.6420   -4.8930   -2.2170 h1        1 YI2      0.078200
     44 H13         5.1880   -4.9060   -5.1880 hc        1 YI2      0.036367
     45 H14         5.5260   -5.1540   -3.4250 hc        1 YI2      0.036367
     46 H15         6.6710   -4.1820   -4.4360 hc        1 YI2      0.036367
     47 H16         4.9610   -2.4200   -4.7750 hc        1 YI2      0.057200
     48 H17         5.2280   -2.6950   -3.0060 hc        1 YI2      0.057200
     49 H18         2.9860   -4.1670   -4.5620 h1        1 YI2      0.075700
     50 H19         3.2540   -4.7260   -6.8440 ha        1 YI2      0.110250
     51 H20         3.2100   -6.2650   -5.8210 ha        1 YI2      0.110250
     52 H21         3.7020   -7.6400   -7.8660 ha        1 YI2      0.110250
     53 H22         3.7450   -6.1010   -8.8890 ha        1 YI2      0.110250
     54 H23         2.8630   -1.5930   -3.4140 ho        1 YI2      0.407000
     55 H24         1.1600   -2.0000   -1.5260 h1        1 YI2      0.079700
     56 H26         2.0130   -0.1050   -2.2730 hc        1 YI2      0.038700
     57 H27         3.1460    0.8940   -1.2680 hc        1 YI2      0.038700
     58 H28         1.5950    1.6130   -1.8840 hc        1 YI2      0.038700
     59 H29        -0.5480    2.1090   -0.9110 hc        1 YI2      0.042200
     60 H30        -2.0130    1.0990   -0.6000 hc        1 YI2      0.042200
     61 H31        -1.1170    2.7990    1.2490 hc        1 YI2      0.041700
     62 H32        -1.7690    1.1880    1.7350 hc        1 YI2      0.041700
     63 H33         0.3100    0.2920    2.2700 hc        1 YI2      0.063700
     64 H34        -0.2440    2.4100    3.6570 ha        1 YI2      0.137000
     65 H35         2.3470    5.2560    2.5740 hc        1 YI2      0.067950
     66 H36         4.0480    4.6740    2.3150 hc        1 YI2      0.067950
     67 H37         4.1290    6.6700    3.7030 h1        1 YI2      0.058700
     68 H38         2.1670    5.4400    5.3040 ho        1 YI2      0.403000
     69 H39         3.4680    3.9230    6.2820 h1        1 YI2      0.058700
     70 H40         3.5240    1.8400    4.9260 hc        1 YI2      0.067950
     71 H41         4.8090    2.5200    3.8480 hc        1 YI2      0.067950
     72 H42         5.5800    3.6160    7.0670 ho        1 YI2      0.403000
     73 H43         6.7430    5.0240    5.8170 ha        1 YI2      0.139000
     74 H44         6.5890    6.8500    3.5930 h1        1 YI2      0.059700
     75 H45         5.7190    7.7090    4.9620 h1        1 YI2      0.059700
     76 H46         7.6700    7.3060    6.1600 ho        1 YI2      0.399000
     77 C23         3.0080   -3.9900   -2.3980 c3        1 YI2     -0.054300
@<TRIPOS>BOND
     1    1    2 1   
     2    1   17 1   
     3    1   33 1   
     4    1   34 1   
     5    2    3 1   
     6    2   15 1   
     7    2   16 1   
     8    3   19 1   
     9    3   35 1   
    10    3   36 1   
    11    4    5 2   
    12    4   37 1   
    13    4   38 1   
    14    5   15 2   
    15    6   14 1   
    16    6   39 1   
    17    6   40 1   
    18    6   41 1   
    19    7    9 1   
    20    7   12 1   
    21    7   49 1   
    22    7   77 1   
    23    8    9 1   
    24    8   44 1   
    25    8   45 1   
    26    8   46 1   
    27    9   47 1   
    28    9   48 1   
    29   10   11 2   
    30   10   50 1   
    31   10   51 1   
    32   11   52 1   
    33   11   53 1   
    34   12   54 1   
    35   13   14 1   
    36   13   77 1   
    37   14   15 1   
    38   14   55 1   
    39   16   56 1   
    40   16   57 1   
    41   16   58 1   
    42   17   18 1   
    43   17   59 1   
    44   17   60 1   
    45   18   19 1   
    46   18   61 1   
    47   18   62 1   
    48   19   20 1   
    49   19   63 1   
    50   20   21 2   
    51   20   64 1   
    52   21   22 2   
    53   22   23 1   
    54   22   26 1   
    55   23   24 1   
    56   23   65 1   
    57   23   66 1   
    58   24   25 1   
    59   24   29 1   
    60   24   67 1   
    61   25   68 1   
    62   26   27 1   
    63   26   70 1   
    64   26   71 1   
    65   27   28 1   
    66   27   29 1   
    67   27   69 1   
    68   28   72 1   
    69   29   30 2   
    70   30   31 1   
    71   30   73 1   
    72   31   32 1   
    73   31   74 1   
    74   31   75 1   
    75   32   76 1   
    76   42   77 1   
    77   43   77 1   
@<TRIPOS>SUBSTRUCTURE
     1 YI2         1 TEMP              0 ****  ****    0 ROOT
