@<TRIPOS>MOLECULE
YI2
   77    76     1     0     0
SMALL
bcc


@<TRIPOS>ATOM
      1 C12        -3.1590   -0.9290   -0.8860 c3        1 YI2     -0.141000
      2 C13        -1.6880   -0.8490   -0.9000 c3        1 YI2     -0.015000
      3 C14        -0.9450   -0.8430    0.6660 c3        1 YI2     -0.084000
      4 C15         0.7100   -1.1880    0.3950 c3        1 YI2     -0.128000
      5 C16         0.5870   -1.7370   -1.1620 c2        1 YI2     -0.148000
      6 C21        -1.8160   -3.2590   -3.3930 c3        1 YI2     -0.204000
      7 C23        -0.0690   -1.9730   -5.8440 c3        1 YI2     -0.314000
      8 C24         1.2370   -1.8270   -6.6600 c3        1 YI2      0.103000
      9 C29         2.9230   -3.1540   -7.9750 c3        1 YI2     -0.205500
     10 C27         1.4610   -3.1020   -7.5050 c3        1 YI2     -0.167500
     11 C26         1.1260   -0.6030   -7.5950 c3        1 YI2     -0.167500
     12 C28         2.3580    0.2970   -7.4100 c3        1 YI2     -0.205500
     13 O03         2.3300   -1.6490   -5.7750 oh        1 YI2     -0.307000
     14 S22         0.2850   -1.7350   -4.0960 ss        1 YI2      0.082000
     15 C20        -1.2180   -1.8920   -3.1590 c3        1 YI2     -0.156000
     16 C17        -0.9150   -1.7160   -1.6740 c2        1 YI2     -0.107000
     17 C18        -1.3970    0.5480   -1.4810 c3        1 YI2     -0.201000
     18 C11        -3.8000    0.2420    0.0830 c3        1 YI2     -0.150000
     19 C09        -3.1210    0.2360    1.6770 c3        1 YI2     -0.128000
     20 C08        -1.3680    0.2060    1.5230 c2        1 YI2     -0.065000
     21 C07        -0.5730    0.5920    2.5860 c1        1 YI2     -0.149000
     22 C06        -1.2230    1.0500    3.9070 c1        1 YI2     -0.120000
     23 C05        -0.5270    1.8730    4.7710 c1        1 YI2     -0.115000
     24 C10        -1.1300    2.3590    6.1020 c2        1 YI2     -0.160000
     25 C01        -0.1780    2.0140    7.2630 c3        1 YI2      0.070000
     26 O01        -0.2240    0.5950    7.5650 oh        1 YI2     -0.319000
     27 C04         0.9000    2.3610    4.4630 c3        1 YI2     -0.122000
     28 C03         1.8360    2.0160    5.6400 c3        1 YI2      0.070000
     29 O02         3.1880    2.5300    5.4320 oh        1 YI2     -0.320000
     30 C02         1.2410    2.4940    6.9620 c2        1 YI2     -0.188000
     31 C30         1.9360    3.3040    7.8250 c1        1 YI2     -0.128000
     32 C31         1.2920    3.7550    9.1390 c2        1 YI2      0.003000
     33 O04         2.2280    4.5070    9.8910 oh        1 YI2     -0.327000
     34 H1         -3.4330   -1.8130   -0.5500 hc        1 YI2      0.081000
     35 H2         -3.4990   -0.8120   -1.8020 hc        1 YI2      0.081000
     36 H3         -1.2890   -1.6530    1.1060 hc        1 YI2      0.098000
     37 H4          1.0710   -1.7410    1.1230 hc        1 YI2      0.096500
     38 H5          1.3100   -0.4100    0.4080 hc        1 YI2      0.096500
     39 H6          1.3230   -1.5900   -1.7930 ha        1 YI2      0.147000
     40 H8         -2.3710   -3.5090   -2.6220 hc        1 YI2      0.082000
     41 H9         -2.3720   -3.2390   -4.2040 hc        1 YI2      0.082000
     42 H10        -1.0950   -3.9170   -3.5060 hc        1 YI2      0.082000
     43 H11        -0.7180   -1.2990   -6.1420 h1        1 YI2      0.096500
     44 H12        -0.4430   -2.8710   -5.9830 h1        1 YI2      0.096500
     45 H13         3.3210   -2.2610   -7.9040 hc        1 YI2      0.079000
     46 H14         2.9550   -3.4550   -8.9120 hc        1 YI2      0.079000
     47 H15         3.4260   -3.7840   -7.4120 hc        1 YI2      0.079000
     48 H16         0.8650   -3.0860   -8.2880 hc        1 YI2      0.086000
     49 H17         1.2640   -3.8960   -6.9590 hc        1 YI2      0.086000
     50 H18         1.0790   -0.9070   -8.5300 hc        1 YI2      0.086000
     51 H19         0.3130   -0.0950   -7.3750 hc        1 YI2      0.086000
     52 H20         2.5790    1.1880   -7.7720 hc        1 YI2      0.079000
     53 H21         2.4630    0.0680   -8.3610 hc        1 YI2      0.079000
     54 H22         1.6860    0.8390   -6.9390 hc        1 YI2      0.079000
     55 H23         2.5630   -2.4370   -5.4270 ho        1 YI2      0.196000
     56 H24        -1.8550   -1.2030   -3.4460 h1        1 YI2      0.109000
     57 H26        -1.4860    1.2220   -0.7730 hc        1 YI2      0.081333
     58 H27        -0.4820    0.5690   -1.8400 hc        1 YI2      0.081333
     59 H28        -2.0370    0.7430   -2.2020 hc        1 YI2      0.081333
     60 H29        -3.6350    1.1190   -0.3280 hc        1 YI2      0.080500
     61 H30        -4.7720    0.1010    0.1520 hc        1 YI2      0.080500
     62 H31        -3.4220    0.8940    2.3410 hc        1 YI2      0.087500
     63 H32        -3.4390   -0.5940    2.0980 hc        1 YI2      0.087500
     64 H33         0.4030    0.5540    2.5080 ha        1 YI2      0.129000
     65 H34        -2.1310    0.7570    4.1340 ha        1 YI2      0.123000
     66 H35        -1.5080    3.2680    6.0950 ha        1 YI2      0.101000
     67 H36        -1.9510    1.8380    6.2520 ha        1 YI2      0.101000
     68 H37        -0.4970    2.3970    8.1090 h1        1 YI2      0.113000
     69 H38        -0.6060    0.4730    8.3630 ho        1 YI2      0.202000
     70 H39         1.2860    2.1650    3.5810 hc        1 YI2      0.108500
     71 H40         0.8320    3.3410    4.4020 hc        1 YI2      0.108500
     72 H41         2.0070    1.0490    5.6700 h1        1 YI2      0.077000
     73 H42         3.7730    1.8570    5.4800 ho        1 YI2      0.205000
     74 H43         2.8470    3.5940    7.6000 ha        1 YI2      0.151000
     75 H44         1.0150    2.9670    9.6560 h4        1 YI2      0.076500
     76 H45         0.5060    4.3110    8.9450 h4        1 YI2      0.076500
     77 H46         1.8650    4.7390   10.6710 ho        1 YI2      0.202000
@<TRIPOS>BOND
     1    1    2 1   
     2    1   18 1   
     3    1   34 1   
     4    1   35 1   
     5    2    3 1   
     6    2   16 1   
     7    2   17 1   
     8    3    4 1   
     9    3   20 1   
    10    3   36 1   
    11    4    5 1   
    12    4   37 1   
    13    4   38 1   
    14    5   16 1   
    15    5   39 1   
    16    6   15 1   
    17    6   40 1   
    18    6   41 1   
    19    6   42 1   
    20    7    8 1   
    21    7   14 1   
    22    7   43 1   
    23    7   44 1   
    24    8   10 1   
    25    8   11 1   
    26    8   13 1   
    27    9   10 1   
    28    9   45 1   
    29    9   46 1   
    30    9   47 1   
    31   10   48 1   
    32   10   49 1   
    33   11   12 1   
    34   11   50 1   
    35   11   51 1   
    36   12   52 1   
    37   12   53 1   
    38   12   54 1   
    39   13   55 1   
    40   14   15 1   
    41   15   16 1   
    42   15   56 1   
    43   17   57 1   
    44   17   58 1   
    45   17   59 1   
    46   18   19 1   
    47   18   60 1   
    48   18   61 1   
    49   19   20 1   
    50   19   62 1   
    51   19   63 1   
    52   20   21 1   
    53   21   64 1   
    54   22   23 1   
    55   22   65 1   
    56   23   27 1   
    57   24   25 1   
    58   24   66 1   
    59   24   67 1   
    60   25   26 1   
    61   25   30 1   
    62   25   68 1   
    63   26   69 1   
    64   27   28 1   
    65   27   70 1   
    66   27   71 1   
    67   28   29 1   
    68   28   30 1   
    69   28   72 1   
    70   29   73 1   
    71   30   31 1   
    72   31   74 1   
    73   32   33 1   
    74   32   75 1   
    75   32   76 1   
    76   33   77 1   
@<TRIPOS>SUBSTRUCTURE
     1 YI2         1 TEMP              0 ****  ****    0 ROOT
