@<TRIPOS>MOLECULE
YI3
   85    87     1     0     0
SMALL
bcc


@<TRIPOS>ATOM
      1 O03         0.3280    0.0400    0.4170 oh        1 YI3     -0.597800
      2 C25         1.7490    0.1600    0.3220 c3        1 YI3      0.147800
      3 C26         2.3340    0.4250    1.7070 c3        1 YI3     -0.123100
      4 C27         2.3420   -1.1210   -0.2520 c3        1 YI3     -0.123100
      5 C24         2.0130    1.3660   -0.5850 c3        1 YI3     -0.064400
      6 C23         1.4840    1.1740   -1.9890 c3        1 YI3     -0.079400
      7 C22         1.6110    2.4520   -2.7930 c3        1 YI3     -0.079400
      8 C20         1.0990    2.2820   -4.2220 c3        1 YI3     -0.054700
      9 C21        -0.4160    2.3640   -4.2250 c3        1 YI3     -0.092100
     10 C17         1.7230    3.3330   -5.1350 c3        1 YI3     -0.053700
     11 C16         3.2620    3.2360   -5.1590 c3        1 YI3     -0.078400
     12 C15         3.7290    3.5480   -6.5820 c3        1 YI3     -0.073400
     13 C14         2.4860    4.0780   -7.2820 c3        1 YI3     -0.038500
     14 C13         1.3210    3.2830   -6.6280 c3        1 YI3     -0.039000
     15 C18         1.2860    1.8510   -7.1310 c3        1 YI3     -0.083100
     16 C12         0.0390    4.0160   -6.9890 c3        1 YI3     -0.066400
     17 C11        -0.1270    4.1060   -8.4950 c3        1 YI3     -0.070400
     18 C09         1.0810    4.6490   -9.2560 c3        1 YI3     -0.030500
     19 C28         1.1390    6.1750   -9.1940 c3        1 YI3     -0.076400
     20 C29         0.2150    6.8180  -10.2060 c3        1 YI3     -0.079400
     21 C30         0.2640    8.3290  -10.1080 c3        1 YI3     -0.080400
     22 C31        -0.6450    8.9770  -11.1200 c3        1 YI3     -0.093100
     23 C08         2.3800    4.0730   -8.7630 c2        1 YI3     -0.068400
     24 C07         3.3650    3.6430   -9.5710 ce        1 YI3     -0.155000
     25 C06         3.3340    3.6910  -11.0170 ce        1 YI3     -0.118000
     26 C05         3.9670    2.8370  -11.8410 c2        1 YI3     -0.127400
     27 C10         3.8690    2.9930  -13.3220 c3        1 YI3     -0.060700
     28 C04         4.7510    1.6580  -11.3900 c3        1 YI3     -0.060700
     29 C03         6.1340    1.6450  -12.0410 c3        1 YI3      0.146600
     30 O02         6.7510    0.4290  -11.6370 oh        1 YI3     -0.597800
     31 C02         6.0380    1.7290  -13.5590 c3        1 YI3     -0.148400
     32 C01         5.2320    2.9410  -14.0100 c3        1 YI3      0.146600
     33 O01         5.9590    4.1440  -13.8230 oh        1 YI3     -0.597800
     34 H1          0.1520   -0.7180    0.9870 ho        1 YI3      0.397000
     35 H2          3.4380    0.5600    1.6350 hc        1 YI3      0.042367
     36 H3          1.8800    1.3470    2.1420 hc        1 YI3      0.042367
     37 H4          2.1190   -0.4320    2.3890 hc        1 YI3      0.042367
     38 H5          2.2730   -1.9490    0.4930 hc        1 YI3      0.042367
     39 H6          3.4140   -0.9620   -0.5150 hc        1 YI3      0.042367
     40 H7          1.7820   -1.4230   -1.1700 hc        1 YI3      0.042367
     41 H8          3.1190    1.5470   -0.6120 hc        1 YI3      0.047200
     42 H9          1.5250    2.2640   -0.1230 hc        1 YI3      0.047200
     43 H10         2.0540    0.3530   -2.5000 hc        1 YI3      0.048700
     44 H11         0.4110    0.8520   -1.9350 hc        1 YI3      0.048700
     45 H12         1.0370    3.2740   -2.2910 hc        1 YI3      0.040200
     46 H13         2.6890    2.7630   -2.8030 hc        1 YI3      0.040200
     47 H14         1.4040    1.2620   -4.5910 hc        1 YI3      0.050700
     48 H15        -0.7530    3.4240   -4.1310 hc        1 YI3      0.035033
     49 H16        -0.8390    1.7830   -3.3700 hc        1 YI3      0.035033
     50 H17        -0.8340    1.9390   -5.1690 hc        1 YI3      0.035033
     51 H18         1.4310    4.3440   -4.7370 hc        1 YI3      0.046700
     52 H19         3.7030    3.9640   -4.4340 hc        1 YI3      0.042200
     53 H20         3.5960    2.2110   -4.8610 hc        1 YI3      0.042200
     54 H21         4.5530    4.3010   -6.5890 hc        1 YI3      0.044200
     55 H22         4.1060    2.6200   -7.0790 hc        1 YI3      0.044200
     56 H23         2.3700    5.1620   -6.9700 hc        1 YI3      0.057700
     57 H24         1.3070    1.8270   -8.2480 hc        1 YI3      0.037700
     58 H25         0.3580    1.3370   -6.7830 hc        1 YI3      0.037700
     59 H26         2.1720    1.2840   -6.7530 hc        1 YI3      0.037700
     60 H27        -0.8490    3.4860   -6.5570 hc        1 YI3      0.043200
     61 H28         0.0600    5.0460   -6.5450 hc        1 YI3      0.043200
     62 H29        -1.0130    4.7570   -8.7200 hc        1 YI3      0.042200
     63 H30        -0.3600    3.0810   -8.8910 hc        1 YI3      0.042200
     64 H31         0.9410    4.3510  -10.3360 hc        1 YI3      0.053700
     65 H32         0.8660    6.5170   -8.1610 hc        1 YI3      0.045200
     66 H33         2.1900    6.5140   -9.3910 hc        1 YI3      0.045200
     67 H34         0.5110    6.5010  -11.2410 hc        1 YI3      0.039700
     68 H35        -0.8380    6.4670  -10.0420 hc        1 YI3      0.039700
     69 H36        -0.0350    8.6460   -9.0750 hc        1 YI3      0.039200
     70 H37         1.3180    8.6790  -10.2690 hc        1 YI3      0.039200
     71 H38        -1.7040    8.6580  -10.9610 hc        1 YI3      0.032700
     72 H39        -0.5950   10.0890  -11.0300 hc        1 YI3      0.032700
     73 H40        -0.3470    8.6940  -12.1580 hc        1 YI3      0.032700
     74 H41         4.2890    3.2350   -9.1240 ha        1 YI3      0.129000
     75 H42         2.7450    4.5210  -11.4520 ha        1 YI3      0.125000
     76 H43         3.2340    2.1600  -13.7290 hc        1 YI3      0.062950
     77 H44         3.3730    3.9640  -13.5890 hc        1 YI3      0.062950
     78 H45         4.2050    0.7180  -11.6770 hc        1 YI3      0.062950
     79 H46         4.8770    1.6380  -10.2770 hc        1 YI3      0.062950
     80 H47         6.7440    2.5120  -11.6550 h1        1 YI3      0.053200
     81 H48         7.6040    0.3880  -12.0850 ho        1 YI3      0.401500
     82 H49         5.5500    0.7980  -13.9490 hc        1 YI3      0.058700
     83 H50         7.0680    1.7910  -13.9960 hc        1 YI3      0.058700
     84 H51         5.0840    2.8960  -15.1280 h1        1 YI3      0.053200
     85 H52         6.0190    4.2980  -12.8720 ho        1 YI3      0.401500
@<TRIPOS>BOND
     1    1    2 1   
     2    1   34 1   
     3    2    3 1   
     4    2    4 1   
     5    2    5 1   
     6    3   35 1   
     7    3   36 1   
     8    3   37 1   
     9    4   38 1   
    10    4   39 1   
    11    4   40 1   
    12    5    6 1   
    13    5   41 1   
    14    5   42 1   
    15    6    7 1   
    16    6   43 1   
    17    6   44 1   
    18    7    8 1   
    19    7   45 1   
    20    7   46 1   
    21    8    9 1   
    22    8   10 1   
    23    8   47 1   
    24    9   48 1   
    25    9   49 1   
    26    9   50 1   
    27   10   11 1   
    28   10   14 1   
    29   10   51 1   
    30   11   12 1   
    31   11   52 1   
    32   11   53 1   
    33   12   13 1   
    34   12   54 1   
    35   12   55 1   
    36   13   14 1   
    37   13   23 1   
    38   13   56 1   
    39   14   15 1   
    40   14   16 1   
    41   15   57 1   
    42   15   58 1   
    43   15   59 1   
    44   16   17 1   
    45   16   60 1   
    46   16   61 1   
    47   17   18 1   
    48   17   62 1   
    49   17   63 1   
    50   18   19 1   
    51   18   23 1   
    52   18   64 1   
    53   19   20 1   
    54   19   65 1   
    55   19   66 1   
    56   20   21 1   
    57   20   67 1   
    58   20   68 1   
    59   21   22 1   
    60   21   69 1   
    61   21   70 1   
    62   22   71 1   
    63   22   72 1   
    64   22   73 1   
    65   23   24 2   
    66   24   25 1   
    67   24   74 1   
    68   25   26 2   
    69   25   75 1   
    70   26   27 1   
    71   26   28 1   
    72   27   32 1   
    73   27   76 1   
    74   27   77 1   
    75   28   29 1   
    76   28   78 1   
    77   28   79 1   
    78   29   30 1   
    79   29   31 1   
    80   29   80 1   
    81   30   81 1   
    82   31   32 1   
    83   31   82 1   
    84   31   83 1   
    85   32   33 1   
    86   32   84 1   
    87   33   85 1   
@<TRIPOS>SUBSTRUCTURE
     1 YI3         1 TEMP              0 ****  ****    0 ROOT
