@<TRIPOS>MOLECULE
YI3
   85    87     1     0     0
SMALL
bcc


@<TRIPOS>ATOM
      1 O03        -8.5690    0.6550    0.9630 oh        1 YI3     -0.596800
      2 C25        -8.1610    1.4300   -0.1660 c3        1 YI3      0.147800
      3 C26        -9.3080    1.5200   -1.1680 c3        1 YI3     -0.103600
      4 C27        -7.8330    2.8130    0.3840 c3        1 YI3     -0.103600
      5 C24        -6.9450    0.7900   -0.8460 c3        1 YI3     -0.104400
      6 C23        -5.7790    0.6010    0.0990 c3        1 YI3     -0.080400
      7 C22        -4.6890   -0.2330   -0.5420 c3        1 YI3     -0.079400
      8 C20        -3.4880   -0.4150    0.3850 c3        1 YI3     -0.054700
      9 C21        -3.7990   -1.4950    1.4040 c3        1 YI3     -0.092100
     10 C17        -2.2410   -0.7480   -0.4290 c3        1 YI3     -0.053700
     11 C16        -1.9030    0.3610   -1.4470 c3        1 YI3     -0.079400
     12 C15        -0.3790    0.4810   -1.5190 c3        1 YI3     -0.073400
     13 C14         0.1340   -0.7300   -0.7530 c3        1 YI3     -0.036500
     14 C13        -0.9270   -0.9440    0.3620 c3        1 YI3     -0.039000
     15 C18        -0.7920    0.1030    1.4540 c3        1 YI3     -0.083100
     16 C12        -0.6960   -2.3400    0.9190 c3        1 YI3     -0.066400
     17 C11         0.7160   -2.4790    1.4610 c3        1 YI3     -0.070400
     18 C09         1.8290   -2.0480    0.5070 c3        1 YI3     -0.029500
     19 C28         2.1380   -3.1370   -0.5180 c3        1 YI3     -0.076400
     20 C29         3.0420   -4.2110    0.0500 c3        1 YI3     -0.079400
     21 C30         3.3130   -5.2950   -0.9720 c3        1 YI3     -0.080400
     22 C31         4.2200   -6.3630   -0.4170 c3        1 YI3     -0.093100
     23 C08         1.5120   -0.7590   -0.2030 c2        1 YI3     -0.075400
     24 C07         2.3950    0.2400   -0.3670 ce        1 YI3     -0.147000
     25 C06         3.7700    0.2170    0.0840 ce        1 YI3     -0.130000
     26 C05         4.4800    1.2870    0.4850 c2        1 YI3     -0.099400
     27 C10         5.8990    1.1390    0.9190 c3        1 YI3     -0.078200
     28 C04         3.9370    2.6660    0.5890 c3        1 YI3     -0.078200
     29 C03         4.8580    3.6780   -0.0930 c3        1 YI3      0.146100
     30 O02         4.4090    5.0050    0.1610 oh        1 YI3     -0.599800
     31 C02         6.2780    3.5930    0.4500 c3        1 YI3     -0.070400
     32 C01         6.8300    2.1810    0.3010 c3        1 YI3      0.146100
     33 O01         7.0500    1.9640   -1.0880 oh        1 YI3     -0.599800
     34 H1         -8.7620   -0.2310    0.6360 ho        1 YI3      0.397000
     35 H2        -10.2230    1.9080   -0.6610 hc        1 YI3      0.043367
     36 H3         -9.0330    2.2080   -2.0010 hc        1 YI3      0.043367
     37 H4         -9.5350    0.5120   -1.5910 hc        1 YI3      0.043367
     38 H5         -8.7620    3.3030    0.7580 hc        1 YI3      0.043367
     39 H6         -7.1130    2.7260    1.2320 hc        1 YI3      0.043367
     40 H7         -7.3830    3.4380   -0.4220 hc        1 YI3      0.043367
     41 H8         -7.2520   -0.2060   -1.2630 hc        1 YI3      0.042700
     42 H9         -6.6370    1.4360   -1.7090 hc        1 YI3      0.042700
     43 H10        -5.3640    1.6030    0.3890 hc        1 YI3      0.049200
     44 H11        -6.1450    0.1110    1.0410 hc        1 YI3      0.049200
     45 H12        -5.0960   -1.2400   -0.8200 hc        1 YI3      0.039700
     46 H13        -4.3710    0.2670   -1.4940 hc        1 YI3      0.039700
     47 H14        -3.3100    0.5540    0.9320 hc        1 YI3      0.052700
     48 H15        -3.0910   -1.4410    2.2660 hc        1 YI3      0.035033
     49 H16        -4.8350   -1.3690    1.8020 hc        1 YI3      0.035033
     50 H17        -3.7200   -2.5080    0.9410 hc        1 YI3      0.035033
     51 H18        -2.4460   -1.7020   -0.9900 hc        1 YI3      0.046700
     52 H19        -2.3230    0.1010   -2.4500 hc        1 YI3      0.042200
     53 H20        -2.3500    1.3350   -1.1290 hc        1 YI3      0.042200
     54 H21        -0.0160    0.4800   -2.5750 hc        1 YI3      0.043700
     55 H22        -0.0420    1.4330   -1.0400 hc        1 YI3      0.043700
     56 H23         0.0650   -1.6160   -1.4570 hc        1 YI3      0.057700
     57 H24        -1.0880    1.1080    1.0670 hc        1 YI3      0.037700
     58 H25        -1.4440   -0.1510    2.3240 hc        1 YI3      0.037700
     59 H26         0.2660    0.1640    1.8090 hc        1 YI3      0.037700
     60 H27        -1.4230   -2.5580    1.7440 hc        1 YI3      0.042700
     61 H28        -0.8710   -3.0980    0.1110 hc        1 YI3      0.042700
     62 H29         0.8020   -1.8680    2.4000 hc        1 YI3      0.041700
     63 H30         0.8860   -3.5510    1.7470 hc        1 YI3      0.041700
     64 H31         2.7520   -1.8930    1.1380 hc        1 YI3      0.053700
     65 H32         1.1790   -3.5990   -0.8740 hc        1 YI3      0.044700
     66 H33         2.6370   -2.6750   -1.4110 hc        1 YI3      0.044700
     67 H34         4.0130   -3.7520    0.3760 hc        1 YI3      0.039200
     68 H35         2.5710   -4.6650    0.9610 hc        1 YI3      0.039200
     69 H36         2.3420   -5.7550   -1.2940 hc        1 YI3      0.039200
     70 H37         3.7810   -4.8390   -1.8840 hc        1 YI3      0.039200
     71 H38         4.4070   -7.1510   -1.1850 hc        1 YI3      0.032700
     72 H39         5.2030   -5.9270   -0.1130 hc        1 YI3      0.032700
     73 H40         3.7600   -6.8450    0.4790 hc        1 YI3      0.032700
     74 H41         2.0830    1.1540   -0.9050 ha        1 YI3      0.126000
     75 H42         4.2540   -0.7770    0.0710 ha        1 YI3      0.122000
     76 H43         5.9410    1.2550    2.0360 hc        1 YI3      0.053950
     77 H44         6.2840    0.1130    0.6720 hc        1 YI3      0.053950
     78 H45         2.9140    2.7380    0.1340 hc        1 YI3      0.053950
     79 H46         3.8360    2.9390    1.6750 hc        1 YI3      0.053950
     80 H47         4.8720    3.4900   -1.2040 h1        1 YI3      0.043700
     81 H48         3.5240    5.0730   -0.2140 ho        1 YI3      0.399500
     82 H49         6.9290    4.3120   -0.1100 hc        1 YI3      0.065200
     83 H50         6.2880    3.8780    1.5330 hc        1 YI3      0.065200
     84 H51         7.8300    2.1190    0.8250 h1        1 YI3      0.043700
     85 H52         7.1990    1.0200   -1.2090 ho        1 YI3      0.399500
@<TRIPOS>BOND
     1    1    2 1   
     2    1   34 1   
     3    2    3 1   
     4    2    4 1   
     5    2    5 1   
     6    3   35 1   
     7    3   36 1   
     8    3   37 1   
     9    4   38 1   
    10    4   39 1   
    11    4   40 1   
    12    5    6 1   
    13    5   41 1   
    14    5   42 1   
    15    6    7 1   
    16    6   43 1   
    17    6   44 1   
    18    7    8 1   
    19    7   45 1   
    20    7   46 1   
    21    8    9 1   
    22    8   10 1   
    23    8   47 1   
    24    9   48 1   
    25    9   49 1   
    26    9   50 1   
    27   10   11 1   
    28   10   14 1   
    29   10   51 1   
    30   11   12 1   
    31   11   52 1   
    32   11   53 1   
    33   12   13 1   
    34   12   54 1   
    35   12   55 1   
    36   13   14 1   
    37   13   23 1   
    38   13   56 1   
    39   14   15 1   
    40   14   16 1   
    41   15   57 1   
    42   15   58 1   
    43   15   59 1   
    44   16   17 1   
    45   16   60 1   
    46   16   61 1   
    47   17   18 1   
    48   17   62 1   
    49   17   63 1   
    50   18   19 1   
    51   18   23 1   
    52   18   64 1   
    53   19   20 1   
    54   19   65 1   
    55   19   66 1   
    56   20   21 1   
    57   20   67 1   
    58   20   68 1   
    59   21   22 1   
    60   21   69 1   
    61   21   70 1   
    62   22   71 1   
    63   22   72 1   
    64   22   73 1   
    65   23   24 2   
    66   24   25 1   
    67   24   74 1   
    68   25   26 2   
    69   25   75 1   
    70   26   27 1   
    71   26   28 1   
    72   27   32 1   
    73   27   76 1   
    74   27   77 1   
    75   28   29 1   
    76   28   78 1   
    77   28   79 1   
    78   29   30 1   
    79   29   31 1   
    80   29   80 1   
    81   30   81 1   
    82   31   32 1   
    83   31   82 1   
    84   31   83 1   
    85   32   33 1   
    86   32   84 1   
    87   33   85 1   
@<TRIPOS>SUBSTRUCTURE
     1 YI3         1 TEMP              0 ****  ****    0 ROOT
