@<TRIPOS>MOLECULE
YI4
   85    87     1     0     0
SMALL
bcc


@<TRIPOS>ATOM
      1 O03         0.1790    0.1150   -0.9790 oh        1 YI4     -0.598800
      2 C25         1.4940   -0.1050   -0.4620 c3        1 YI4      0.147800
      3 C26         1.4160   -0.4950    1.0080 c3        1 YI4     -0.123100
      4 C27         2.1780   -1.2130   -1.2570 c3        1 YI4     -0.123100
      5 C24         2.2520    1.2110   -0.6610 c3        1 YI4     -0.064400
      6 C23         1.6490    2.3620    0.1140 c3        1 YI4     -0.079400
      7 C22         2.3080    3.6730   -0.2650 c3        1 YI4     -0.079400
      8 C20         1.7590    4.8430    0.5500 c3        1 YI4     -0.055700
      9 C21         2.4350    4.8700    1.9080 c3        1 YI4     -0.091100
     10 C17         1.9560    6.1520   -0.2060 c3        1 YI4     -0.053700
     11 C16         1.2460    6.1410   -1.5750 c3        1 YI4     -0.079400
     12 C15         0.6850    7.5420   -1.8240 c3        1 YI4     -0.073400
     13 C14         1.3110    8.4000   -0.7340 c3        1 YI4     -0.038500
     14 C13         1.4290    7.4360    0.4780 c3        1 YI4     -0.040000
     15 C18         0.0730    7.1900    1.1160 c3        1 YI4     -0.083100
     16 C12         2.3800    8.0950    1.4640 c3        1 YI4     -0.066400
     17 C11         1.8550    9.4510    1.8970 c3        1 YI4     -0.071400
     18 C09         1.4540   10.3920    0.7620 c3        1 YI4     -0.026500
     19 C28         2.6740   11.1070    0.1810 c3        1 YI4     -0.049200
     20 C29         3.2650   12.0730    1.1400 c2        1 YI4     -0.164200
     21 C30         4.5750   12.2510    1.3000 c2        1 YI4     -0.225000
     22 C08         0.7050    9.6970   -0.3420 c2        1 YI4     -0.069400
     23 C07        -0.3770   10.2170   -0.9480 ce        1 YI4     -0.154000
     24 C06        -0.9530   11.5110   -0.6540 ce        1 YI4     -0.123000
     25 C05        -2.2550   11.8300   -0.7570 c2        1 YI4     -0.118400
     26 C10        -2.7360   13.2040   -0.4350 c3        1 YI4     -0.076200
     27 C01        -3.6420   13.7830   -1.5250 c3        1 YI4      0.186300
     28 O01        -2.8810   14.2150   -2.6430 oh        1 YI4     -0.592800
     29 C04        -3.3290   10.8750   -1.1310 c3        1 YI4     -0.076200
     30 C03        -4.2050   11.4360   -2.2560 c3        1 YI4      0.186300
     31 O02        -5.3140   10.5740   -2.4890 oh        1 YI4     -0.592800
     32 C02        -4.7150   12.8080   -1.9210 c2        1 YI4     -0.175400
     33 C32        -6.0130   13.1240   -1.9960 c2        1 YI4     -0.108200
     34 C33        -6.5620   14.4780   -1.7140 c3        1 YI4      0.154600
     35 O04        -7.9690   14.4180   -1.9120 oh        1 YI4     -0.597800
     36 H1         -0.3060   -0.7100   -0.8600 ho        1 YI4      0.397000
     37 H2          0.7520    0.2150    1.5580 hc        1 YI4      0.042367
     38 H3          2.4330   -0.4720    1.4650 hc        1 YI4      0.042367
     39 H4          0.9970   -1.5250    1.1140 hc        1 YI4      0.042367
     40 H5          1.6160   -2.1710   -1.1480 hc        1 YI4      0.042367
     41 H6          2.2110   -0.9420   -2.3390 hc        1 YI4      0.042367
     42 H7          3.2190   -1.3620   -0.8860 hc        1 YI4      0.042367
     43 H8          3.3170    1.0520   -0.3480 hc        1 YI4      0.046700
     44 H9          2.2460    1.4560   -1.7560 hc        1 YI4      0.046700
     45 H10         0.5490    2.4130   -0.1010 hc        1 YI4      0.048700
     46 H11         1.7670    2.1790    1.2140 hc        1 YI4      0.048700
     47 H12         3.4170    3.6000   -0.1070 hc        1 YI4      0.040200
     48 H13         2.1450    3.8520   -1.3600 hc        1 YI4      0.040200
     49 H14         0.6540    4.6810    0.7030 hc        1 YI4      0.053700
     50 H15         3.4670    5.2890    1.8250 hc        1 YI4      0.033700
     51 H16         2.5070    3.8380    2.3290 hc        1 YI4      0.033700
     52 H17         1.8540    5.4950    2.6280 hc        1 YI4      0.033700
     53 H18         3.0610    6.2850   -0.3740 hc        1 YI4      0.046700
     54 H19         1.9700    5.8610   -2.3800 hc        1 YI4      0.044200
     55 H20         0.4180    5.3880   -1.5820 hc        1 YI4      0.044200
     56 H21        -0.4310    7.5350   -1.7400 hc        1 YI4      0.043200
     57 H22         0.9500    7.9170   -2.8410 hc        1 YI4      0.043200
     58 H23         2.3650    8.6430   -1.0750 hc        1 YI4      0.057700
     59 H24        -0.4430    8.1590    1.3260 hc        1 YI4      0.037700
     60 H25        -0.5760    6.5910    0.4310 hc        1 YI4      0.037700
     61 H26         0.1870    6.6350    2.0780 hc        1 YI4      0.037700
     62 H27         2.5110    7.4500    2.3720 hc        1 YI4      0.042700
     63 H28         3.3900    8.2100    0.9890 hc        1 YI4      0.042700
     64 H29         2.6400    9.9630    2.5150 hc        1 YI4      0.044200
     65 H30         0.9610    9.2950    2.5580 hc        1 YI4      0.044200
     66 H31         0.7800   11.1750    1.2170 hc        1 YI4      0.053700
     67 H32         2.3580   11.6700   -0.7400 hc        1 YI4      0.052200
     68 H33         3.4370   10.3470   -0.1340 hc        1 YI4      0.052200
     69 H35         2.5370   12.6680    1.7170 ha        1 YI4      0.119000
     70 H36         5.3260   11.6740    0.7450 ha        1 YI4      0.111500
     71 H37         4.9840   12.9910    2.0000 ha        1 YI4      0.111500
     72 H39        -0.8720    9.6430   -1.7530 ha        1 YI4      0.125000
     73 H40        -0.2320   12.2890   -0.3360 ha        1 YI4      0.126000
     74 H41        -3.3180   13.1640    0.5250 hc        1 YI4      0.060700
     75 H42        -1.8720   13.9050   -0.2870 hc        1 YI4      0.060700
     76 H43        -4.1010   14.7420   -1.1430 h1        1 YI4      0.055700
     77 H44        -2.4320   13.4400   -3.0040 ho        1 YI4      0.402500
     78 H45        -3.9760   10.6790   -0.2330 hc        1 YI4      0.060700
     79 H46        -2.9080    9.8880   -1.4580 hc        1 YI4      0.060700
     80 H47        -3.5950   11.5060   -3.2050 h1        1 YI4      0.055700
     81 H48        -4.9470    9.7010   -2.6760 ho        1 YI4      0.402500
     82 H49        -6.7660   12.3670   -2.2840 ha        1 YI4      0.168000
     83 H50        -6.1090   15.2400   -2.4070 h1        1 YI4      0.035200
     84 H51        -6.3490   14.7810   -0.6500 h1        1 YI4      0.035200
     85 H52        -8.2970   15.3180   -1.8030 ho        1 YI4      0.401000
@<TRIPOS>BOND
     1    1    2 1   
     2    1   36 1   
     3    2    3 1   
     4    2    4 1   
     5    2    5 1   
     6    3   37 1   
     7    3   38 1   
     8    3   39 1   
     9    4   40 1   
    10    4   41 1   
    11    4   42 1   
    12    5    6 1   
    13    5   43 1   
    14    5   44 1   
    15    6    7 1   
    16    6   45 1   
    17    6   46 1   
    18    7    8 1   
    19    7   47 1   
    20    7   48 1   
    21    8    9 1   
    22    8   10 1   
    23    8   49 1   
    24    9   50 1   
    25    9   51 1   
    26    9   52 1   
    27   10   11 1   
    28   10   14 1   
    29   10   53 1   
    30   11   12 1   
    31   11   54 1   
    32   11   55 1   
    33   12   13 1   
    34   12   56 1   
    35   12   57 1   
    36   13   14 1   
    37   13   22 1   
    38   13   58 1   
    39   14   15 1   
    40   14   16 1   
    41   15   59 1   
    42   15   60 1   
    43   15   61 1   
    44   16   17 1   
    45   16   62 1   
    46   16   63 1   
    47   17   18 1   
    48   17   64 1   
    49   17   65 1   
    50   18   19 1   
    51   18   22 1   
    52   18   66 1   
    53   19   20 1   
    54   19   67 1   
    55   19   68 1   
    56   20   21 2   
    57   20   69 1   
    58   21   70 1   
    59   21   71 1   
    60   22   23 2   
    61   23   24 1   
    62   23   72 1   
    63   24   25 2   
    64   24   73 1   
    65   25   26 1   
    66   25   29 1   
    67   26   27 1   
    68   26   74 1   
    69   26   75 1   
    70   27   28 1   
    71   27   32 1   
    72   27   76 1   
    73   28   77 1   
    74   29   30 1   
    75   29   78 1   
    76   29   79 1   
    77   30   31 1   
    78   30   32 1   
    79   30   80 1   
    80   31   81 1   
    81   32   33 2   
    82   33   34 1   
    83   33   82 1   
    84   34   35 1   
    85   34   83 1   
    86   34   84 1   
    87   35   85 1   
@<TRIPOS>SUBSTRUCTURE
     1 YI4         1 TEMP              0 ****  ****    0 ROOT
