@<TRIPOS>MOLECULE
YI4
   85    87     1     0     0
SMALL
bcc


@<TRIPOS>ATOM
      1 O03         7.3870   -3.6570   -0.1080 oh        1 YI4     -0.598800
      2 C25         8.2570   -2.5230   -0.1160 c3        1 YI4      0.147800
      3 C26         8.7520   -2.2370    1.2970 c3        1 YI4     -0.123100
      4 C27         9.4440   -2.7940   -1.0360 c3        1 YI4     -0.123100
      5 C24         7.4310   -1.3600   -0.6740 c3        1 YI4     -0.064400
      6 C23         6.2420   -1.0100    0.1940 c3        1 YI4     -0.079400
      7 C22         5.3510    0.0050   -0.4920 c3        1 YI4     -0.079400
      8 C20         4.1770    0.4210    0.3920 c3        1 YI4     -0.055700
      9 C21         4.6420    1.4690    1.3850 c3        1 YI4     -0.091100
     10 C17         3.0230    0.9290   -0.4660 c3        1 YI4     -0.053700
     11 C16         2.5270   -0.1420   -1.4590 c3        1 YI4     -0.079400
     12 C15         1.0060   -0.0120   -1.5670 c3        1 YI4     -0.073400
     13 C14         0.6860    1.2950   -0.8570 c3        1 YI4     -0.038500
     14 C13         1.7420    1.3700    0.2810 c3        1 YI4     -0.040000
     15 C18         1.4100    0.4000    1.4010 c3        1 YI4     -0.083100
     16 C12         1.7350    2.8040    0.7850 c3        1 YI4     -0.066400
     17 C11         0.3570    3.1890    1.2940 c3        1 YI4     -0.071400
     18 C09        -0.7990    2.9050    0.3390 c3        1 YI4     -0.026500
     19 C28        -0.9340    4.0110   -0.7080 c3        1 YI4     -0.049200
     20 C29        -1.3820    5.2940   -0.1130 c2        1 YI4     -0.164200
     21 C30        -0.9090    6.4840   -0.4750 c2        1 YI4     -0.225000
     22 C08        -0.6810    1.5720   -0.3490 c2        1 YI4     -0.069400
     23 C07        -1.7170    0.7350   -0.5310 ce        1 YI4     -0.154000
     24 C06        -3.0810    1.0000   -0.1260 ce        1 YI4     -0.123000
     25 C05        -3.9780    0.0740    0.2550 c2        1 YI4     -0.118400
     26 C10        -5.3640    0.4620    0.6440 c3        1 YI4     -0.076200
     27 C01        -6.4320   -0.3830   -0.0550 c3        1 YI4      0.186300
     28 O01        -6.6010    0.0240   -1.4050 oh        1 YI4     -0.592800
     29 C04        -3.6880   -1.3780    0.3820 c3        1 YI4     -0.076200
     30 C03        -4.7320   -2.2200   -0.3580 c3        1 YI4      0.186300
     31 O02        -4.5210   -3.6030   -0.0930 oh        1 YI4     -0.592800
     32 C02        -6.1270   -1.8510    0.0530 c2        1 YI4     -0.175400
     33 C32        -7.0170   -2.7650    0.4590 c2        1 YI4     -0.108200
     34 C33        -8.4220   -2.4540    0.8390 c3        1 YI4      0.154600
     35 O04        -9.0480   -3.6800    1.1960 oh        1 YI4     -0.597800
     36 H1          7.8990   -4.3960    0.2410 ho        1 YI4      0.397000
     37 H2          9.4730   -3.0260    1.6210 hc        1 YI4      0.042367
     38 H3          9.2630   -1.2470    1.3300 hc        1 YI4      0.042367
     39 H4          7.8920   -2.2290    2.0090 hc        1 YI4      0.042367
     40 H5          9.0820   -3.0310   -2.0650 hc        1 YI4      0.042367
     41 H6         10.1060   -1.8970   -1.0800 hc        1 YI4      0.042367
     42 H7         10.0360   -3.6610   -0.6590 hc        1 YI4      0.042367
     43 H8          8.1050   -0.4710   -0.7790 hc        1 YI4      0.047200
     44 H9          7.0720   -1.6460   -1.6980 hc        1 YI4      0.047200
     45 H10         5.6590   -1.9440    0.4110 hc        1 YI4      0.048700
     46 H11         6.5990   -0.6040    1.1770 hc        1 YI4      0.048700
     47 H12         5.9510    0.9140   -0.7630 hc        1 YI4      0.040200
     48 H13         4.9770   -0.4380   -1.4520 hc        1 YI4      0.040200
     49 H14         3.8250   -0.4840    0.9640 hc        1 YI4      0.053700
     50 H15         4.7440    2.4640    0.8890 hc        1 YI4      0.033700
     51 H16         3.9170    1.5640    2.2290 hc        1 YI4      0.033700
     52 H17         5.6340    1.1860    1.8140 hc        1 YI4      0.033700
     53 H18         3.3980    1.8150   -1.0500 hc        1 YI4      0.046700
     54 H19         3.0040    0.0100   -2.4580 hc        1 YI4      0.044200
     55 H20         2.8010   -1.1660   -1.1010 hc        1 YI4      0.044200
     56 H21         0.6700    0.0090   -2.6310 hc        1 YI4      0.043200
     57 H22         0.5060   -0.8770   -1.0640 hc        1 YI4      0.043200
     58 H23         0.9190    2.1290   -1.5870 hc        1 YI4      0.057700
     59 H24         1.5450   -0.6540    1.0560 hc        1 YI4      0.037700
     60 H25         2.0740    0.5760    2.2810 hc        1 YI4      0.037700
     61 H26         0.3480    0.5260    1.7270 hc        1 YI4      0.037700
     62 H27         2.4770    2.9310    1.6150 hc        1 YI4      0.042700
     63 H28         2.0400    3.4930   -0.0450 hc        1 YI4      0.042700
     64 H29         0.1640    2.6400    2.2550 hc        1 YI4      0.044200
     65 H30         0.3540    4.2870    1.5330 hc        1 YI4      0.044200
     66 H31        -1.7400    2.9050    0.9630 hc        1 YI4      0.053700
     67 H32         0.0460    4.1430   -1.2390 hc        1 YI4      0.052200
     68 H33        -1.6930    3.6920   -1.4750 hc        1 YI4      0.052200
     69 H35        -2.1670    5.2060    0.6570 ha        1 YI4      0.119000
     70 H36        -0.1260    6.6080   -1.2340 ha        1 YI4      0.111500
     71 H37        -1.2770    7.4200   -0.0330 ha        1 YI4      0.111500
     72 H39        -1.5480   -0.2280   -1.0470 ha        1 YI4      0.125000
     73 H40        -3.3860    2.0630   -0.1590 ha        1 YI4      0.126000
     74 H41        -5.4750    0.3290    1.7530 hc        1 YI4      0.060700
     75 H42        -5.5580    1.5420    0.4040 hc        1 YI4      0.060700
     76 H43        -7.4360   -0.1530    0.4090 h1        1 YI4      0.055700
     77 H44        -5.7610   -0.1190   -1.8570 ho        1 YI4      0.402500
     78 H45        -2.6700   -1.6310   -0.0140 hc        1 YI4      0.060700
     79 H46        -3.7010   -1.6610    1.4700 hc        1 YI4      0.060700
     80 H47        -4.6320   -2.0460   -1.4710 h1        1 YI4      0.055700
     81 H48        -3.6110   -3.7950   -0.3480 ho        1 YI4      0.402500
     82 H49        -6.7400   -3.8330    0.5300 ha        1 YI4      0.168000
     83 H50        -8.4510   -1.7510    1.7180 h1        1 YI4      0.035200
     84 H51        -8.9680   -1.9810   -0.0240 h1        1 YI4      0.035200
     85 H52        -9.9750   -3.4720    1.3620 ho        1 YI4      0.401000
@<TRIPOS>BOND
     1    1    2 1   
     2    1   36 1   
     3    2    3 1   
     4    2    4 1   
     5    2    5 1   
     6    3   37 1   
     7    3   38 1   
     8    3   39 1   
     9    4   40 1   
    10    4   41 1   
    11    4   42 1   
    12    5    6 1   
    13    5   43 1   
    14    5   44 1   
    15    6    7 1   
    16    6   45 1   
    17    6   46 1   
    18    7    8 1   
    19    7   47 1   
    20    7   48 1   
    21    8    9 1   
    22    8   10 1   
    23    8   49 1   
    24    9   50 1   
    25    9   51 1   
    26    9   52 1   
    27   10   11 1   
    28   10   14 1   
    29   10   53 1   
    30   11   12 1   
    31   11   54 1   
    32   11   55 1   
    33   12   13 1   
    34   12   56 1   
    35   12   57 1   
    36   13   14 1   
    37   13   22 1   
    38   13   58 1   
    39   14   15 1   
    40   14   16 1   
    41   15   59 1   
    42   15   60 1   
    43   15   61 1   
    44   16   17 1   
    45   16   62 1   
    46   16   63 1   
    47   17   18 1   
    48   17   64 1   
    49   17   65 1   
    50   18   19 1   
    51   18   22 1   
    52   18   66 1   
    53   19   20 1   
    54   19   67 1   
    55   19   68 1   
    56   20   21 2   
    57   20   69 1   
    58   21   70 1   
    59   21   71 1   
    60   22   23 2   
    61   23   24 1   
    62   23   72 1   
    63   24   25 2   
    64   24   73 1   
    65   25   26 1   
    66   25   29 1   
    67   26   27 1   
    68   26   74 1   
    69   26   75 1   
    70   27   28 1   
    71   27   32 1   
    72   27   76 1   
    73   28   77 1   
    74   29   30 1   
    75   29   78 1   
    76   29   79 1   
    77   30   31 1   
    78   30   32 1   
    79   30   80 1   
    80   31   81 1   
    81   32   33 2   
    82   33   34 1   
    83   33   82 1   
    84   34   35 1   
    85   34   83 1   
    86   34   84 1   
    87   35   85 1   
@<TRIPOS>SUBSTRUCTURE
     1 YI4         1 TEMP              0 ****  ****    0 ROOT
