@<TRIPOS>MOLECULE
YI5
   37    39     1     0     0
SMALL
bcc


@<TRIPOS>ATOM
      1 N1          0.0470   -0.8460    0.0650 nc        1 YI5     -0.133100
      2 N2          1.2510   -0.5890   -0.0680 nd        1 YI5     -0.258000
      3 C3          1.9280   -0.3900    1.1670 cd        1 YI5      0.336800
      4 C4          1.0770   -0.5360    2.2710 cc        1 YI5     -0.069400
      5 C6          3.3460   -0.0660    1.1790 ca        1 YI5     -0.177500
      6 C7          1.4070   -0.4380    3.6700 ca        1 YI5     -0.033000
      7 C12         0.5200    0.2120    4.5510 ca        1 YI5     -0.166000
      8 C13         0.8210    0.2970    5.9060 ca        1 YI5      0.102100
      9 C14         2.0240   -0.2790    6.4040 ca        1 YI5      0.121100
     10 C15         2.8940   -0.9240    5.5260 ca        1 YI5     -0.186000
     11 C16         2.5860   -1.0000    4.1660 ca        1 YI5     -0.089000
     12 C21         4.3040   -0.9820    0.6890 ca        1 YI5      0.190100
     13 C22         5.6660   -0.6580    0.6620 ca        1 YI5     -0.252000
     14 C23         6.0800    0.5970    1.1300 ca        1 YI5      0.187100
     15 C24         5.1350    1.5160    1.6240 ca        1 YI5     -0.112600
     16 C25         3.7800    1.1800    1.6380 ca        1 YI5     -0.025000
     17 O29         7.4280    0.8380    1.0720 oh        1 YI5     -0.487100
     18 O30         3.8480   -2.2050    0.2690 oh        1 YI5     -0.477100
     19 O33         2.2250   -0.1430    7.7600 os        1 YI5     -0.299900
     20 S1         -0.4700   -0.8980    1.6710 ss        1 YI5      0.100200
     21 C34         3.4280   -0.7080    8.2730 c3        1 YI5      0.108700
     22 Cl          5.6200    3.0430    2.1990 cl        1 YI5     -0.088400
     23 CAB        -1.1820    1.4880    6.3760 c3        1 YI5      0.108700
     24 OAN         0.0300    0.9130    6.8540 os        1 YI5     -0.301900
     25 H25         3.0400    1.9040    2.0170 ha        1 YI5      0.160000
     26 H12        -0.4060    0.6520    4.1540 ha        1 YI5      0.146000
     27 H16         3.2790   -1.5080    3.4780 ha        1 YI5      0.148000
     28 H15         3.8270   -1.3760    5.8920 ha        1 YI5      0.145000
     29 H22         6.4140   -1.3650    0.2770 ha        1 YI5      0.160000
     30 H30         4.5910   -2.6860   -0.1260 ho        1 YI5      0.427000
     31 H29         7.5960    1.7360    1.4000 ho        1 YI5      0.435000
     32 H341        3.3740   -0.4750    9.3670 h1        1 YI5      0.046700
     33 H342        4.3210   -0.2230    7.8090 h1        1 YI5      0.046700
     34 H343        3.4480   -1.8120    8.1050 h1        1 YI5      0.046700
     35 HAB1       -1.8430    0.7050    5.9310 h1        1 YI5      0.046033
     36 HAB2       -1.6450    1.9150    7.3020 h1        1 YI5      0.046033
     37 HAB3       -0.9720    2.2940    5.6320 h1        1 YI5      0.046033
@<TRIPOS>BOND
     1    1    2 2   
     2    1   20 1   
     3    2    3 1   
     4    3    4 2   
     5    3    5 1   
     6    4    6 1   
     7    4   20 1   
     8    5   12 ar  
     9    5   16 ar  
    10    6    7 ar  
    11    6   11 ar  
    12    7    8 ar  
    13    7   26 1   
    14    8    9 ar  
    15    8   24 1   
    16    9   10 ar  
    17    9   19 1   
    18   10   11 ar  
    19   10   28 1   
    20   11   27 1   
    21   12   13 ar  
    22   12   18 1   
    23   13   14 ar  
    24   13   29 1   
    25   14   15 ar  
    26   14   17 1   
    27   15   16 ar  
    28   15   22 1   
    29   16   25 1   
    30   17   31 1   
    31   18   30 1   
    32   19   21 1   
    33   21   32 1   
    34   21   33 1   
    35   21   34 1   
    36   23   24 1   
    37   23   35 1   
    38   23   36 1   
    39   23   37 1   
@<TRIPOS>SUBSTRUCTURE
     1 YI5         1 TEMP              0 ****  ****    0 ROOT
