@<TRIPOS>MOLECULE
YI5
   37    39     1     0     0
SMALL
bcc


@<TRIPOS>ATOM
      1 N1         -0.1510    4.1790    0.1550 nc        1 YI5     -0.134100
      2 N2         -1.1290    3.4200    0.1020 nd        1 YI5     -0.266000
      3 C3         -0.7830    2.0440    0.1830 cd        1 YI5      0.292800
      4 C4          0.6010    1.8500    0.3160 cc        1 YI5     -0.055400
      5 C6         -1.8080    1.0160    0.0640 ca        1 YI5     -0.225500
      6 C7          1.3140    0.6060    0.4530 ca        1 YI5     -0.042000
      7 C12         2.5480    0.4360   -0.2060 ca        1 YI5     -0.163000
      8 C13         3.2520   -0.7550   -0.0720 ca        1 YI5      0.102100
      9 C14         2.7290   -1.8030    0.7390 ca        1 YI5      0.126100
     10 C15         1.5090   -1.6240    1.3910 ca        1 YI5     -0.185000
     11 C16         0.8070   -0.4270    1.2450 ca        1 YI5     -0.086000
     12 C21        -2.5370    0.5700    1.1870 ca        1 YI5      0.184100
     13 C22        -3.5260   -0.4160    1.0630 ca        1 YI5     -0.193000
     14 C23        -3.7920   -0.9560   -0.2030 ca        1 YI5      0.180100
     15 C24        -3.0760   -0.5100   -1.3320 ca        1 YI5     -0.109600
     16 C25        -2.0970    0.4740   -1.1910 ca        1 YI5     -0.018000
     17 O29        -4.7680   -1.9170   -0.2450 oh        1 YI5     -0.485100
     18 O30        -2.3180    1.0320    2.4600 oh        1 YI5     -0.489100
     19 O33         3.5050   -2.9370    0.8090 os        1 YI5     -0.298900
     20 S1          1.3280    3.3830    0.3160 ss        1 YI5      0.114200
     21 C34         2.9860   -4.0020    1.5990 c3        1 YI5      0.107700
     22 CL         -3.3940   -1.1530   -2.8760 cl        1 YI5     -0.089400
     23 CAB         4.9910   -0.0050   -1.5090 c3        1 YI5      0.108700
     24 OAN         4.4640   -1.0290   -0.6730 os        1 YI5     -0.300900
     25 H25        -1.5420    0.8270   -2.0750 ha        1 YI5      0.157000
     26 H12         2.9420    1.2520   -0.8310 ha        1 YI5      0.146000
     27 H16        -0.1590   -0.2980    1.7610 ha        1 YI5      0.148000
     28 H15         1.0890   -2.4210    2.0220 ha        1 YI5      0.148000
     29 H22        -4.0880   -0.7580    1.9430 ha        1 YI5      0.175000
     30 H30        -1.7260    1.7980    2.4100 ho        1 YI5      0.432000
     31 H29        -4.8830   -2.1990   -1.1670 ho        1 YI5      0.434000
     32 H341        3.7660   -4.7990    1.4980 h1        1 YI5      0.048033
     33 H342        2.8800   -3.6870    2.6660 h1        1 YI5      0.048033
     34 H343        2.0070   -4.3550    1.1940 h1        1 YI5      0.048033
     35 HAB1        5.9470   -0.4510   -1.8870 h1        1 YI5      0.046367
     36 HAB2        4.2960    0.2130   -2.3560 h1        1 YI5      0.046367
     37 HAB3        5.1950    0.9220   -0.9200 h1        1 YI5      0.046367
@<TRIPOS>BOND
     1    1    2 2   
     2    1   20 1   
     3    2    3 1   
     4    3    4 2   
     5    3    5 1   
     6    4    6 1   
     7    4   20 1   
     8    5   12 ar  
     9    5   16 ar  
    10    6    7 ar  
    11    6   11 ar  
    12    7    8 ar  
    13    7   26 1   
    14    8    9 ar  
    15    8   24 1   
    16    9   10 ar  
    17    9   19 1   
    18   10   11 ar  
    19   10   28 1   
    20   11   27 1   
    21   12   13 ar  
    22   12   18 1   
    23   13   14 ar  
    24   13   29 1   
    25   14   15 ar  
    26   14   17 1   
    27   15   16 ar  
    28   15   22 1   
    29   16   25 1   
    30   17   31 1   
    31   18   30 1   
    32   19   21 1   
    33   21   32 1   
    34   21   33 1   
    35   21   34 1   
    36   23   24 1   
    37   23   35 1   
    38   23   36 1   
    39   23   37 1   
@<TRIPOS>SUBSTRUCTURE
     1 YI5         1 TEMP              0 ****  ****    0 ROOT
