@<TRIPOS>MOLECULE
YIN
   47    47     1     0     0
SMALL
bcc


@<TRIPOS>ATOM
      1 C1         -0.6150    0.7200    1.0170 c1        1 YIN     -0.153000
      2 N1         -2.4490    1.8950   -2.4880 n2        1 YIN     -0.092000
      3 O1         -0.8980   -2.8820   -1.2660 os        1 YIN     -0.176000
      4 BR1         4.1690    0.9340    3.2780 br        1 YIN      0.056000
      5 C2          3.0220   -2.9440   -0.7820 c2        1 YIN     -0.531000
      6 N2         -4.6220    2.1410   -1.8510 n3        1 YIN     -0.265000
      7 C3          2.6350   -1.9410   -0.0530 c1        1 YIN      0.119000
      8 N3         -3.7470   -0.1890   -2.0090 n2        1 YIN     -0.143000
      9 C4          2.6230    0.5910    2.3160 c2        1 YIN     -0.222000
     10 N4         -2.8430    3.1880   -2.5360 n3        1 YIN     -0.244000
     11 C5          1.4900    1.3030    2.4330 c2        1 YIN     -0.053000
     12 C6          0.3500    1.0000    1.6760 c1        1 YIN     -0.059000
     13 C7         -0.8280   -1.8480   -0.2730 c3        1 YIN      0.085000
     14 C8         -4.1620    3.4040   -2.1560 c1        1 YIN      0.015000
     15 C9         -1.8430   -0.7520   -0.4650 c2        1 YIN     -0.152000
     16 C10        -1.7160    0.4140    0.2100 c2        1 YIN      0.033000
     17 C11        -3.5460    1.2020   -2.0670 c2        1 YIN     -0.024000
     18 C12        -2.9850   -1.0200   -1.3640 c2        1 YIN      0.136000
     19 C13        -4.5900   -2.9530   -1.9090 c3        1 YIN     -0.137000
     20 C14        -4.6760   -4.4100   -2.1400 c2        1 YIN     -0.048000
     21 C15        -3.5960   -5.2290   -2.0640 c2        1 YIN     -0.220000
     22 C16        -2.3000   -4.7640   -1.7060 c1        1 YIN     -0.049000
     23 C17        -2.1800   -3.3400   -1.5070 c2        1 YIN      0.016000
     24 C18        -3.2320   -2.4670   -1.5790 c2        1 YIN     -0.092000
     25 C19         0.7440   -5.9080   -1.1600 c1        1 YIN     -0.241500
     26 C20        -0.9210   -2.4130    1.1130 c2        1 YIN     -0.170000
     27 C21        -0.9070   -3.7260    1.3840 c2        1 YIN     -0.055000
     28 C22        -0.9650   -4.2440    2.6860 c1        1 YIN     -0.057000
     29 C23        -1.0140   -4.7120    3.7920 c1        1 YIN     -0.304000
     30 C24         1.8390   -6.3110   -0.8910 c1        1 YIN     -0.241500
     31 H2          2.4580   -3.8990   -0.8400 ha        1 YIN      0.207000
     32 H3          3.9240   -2.9530   -1.4140 ha        1 YIN      0.207000
     33 H5          2.7130   -0.2640    1.6200 h4        1 YIN      0.193000
     34 H6          1.3930    2.1610    3.1240 ha        1 YIN      0.155000
     35 H8         -2.1880    3.8700   -2.8400 hn        1 YIN      0.281000
     36 H13        -4.9530   -2.4250   -2.8430 hc        1 YIN      0.156000
     37 H14        -5.3050   -2.6630   -1.0840 hc        1 YIN      0.156000
     38 H15        -5.6830   -4.7950   -2.3760 ha        1 YIN      0.138000
     39 H16        -3.6950   -6.3110   -2.2540 ha        1 YIN      0.158000
     40 H19        -0.2380   -5.5440   -1.4050 ha        1 YIN      0.238000
     41 H21        -0.9670   -1.6490    1.9060 ha        1 YIN      0.147000
     42 H22        -0.8470   -4.4820    0.5700 ha        1 YIN      0.176000
     43 H24         2.8020   -6.6810   -0.6500 ha        1 YIN      0.238000
     44 HN2        -5.5370    1.8900   -1.5860 hn        1 YIN      0.266000
     45 H10        -2.4880    1.2060    0.1530 ha        1 YIN      0.155000
     46 H7          0.2220   -1.4350   -0.4290 h1        1 YIN      0.165000
     47 BR2        -1.0830   -5.3930    5.3890 br        1 YIN      0.233000
@<TRIPOS>BOND
     1    1   12 1   
     2    1   16 1   
     3    2   10 1   
     4    2   17 1   
     5    3   13 1   
     6    3   23 1   
     7    4    9 1   
     8    5    7 1   
     9    5   31 1   
    10    5   32 1   
    11    6   14 1   
    12    6   17 1   
    13    6   44 1   
    14    8   17 1   
    15    8   18 1   
    16    9   11 1   
    17    9   33 1   
    18   10   14 1   
    19   10   35 1   
    20   11   12 1   
    21   11   34 1   
    22   13   15 1   
    23   13   26 1   
    24   13   46 1   
    25   15   16 1   
    26   15   18 1   
    27   16   45 1   
    28   18   24 1   
    29   19   20 1   
    30   19   24 1   
    31   19   36 1   
    32   19   37 1   
    33   20   21 1   
    34   20   38 1   
    35   21   22 1   
    36   21   39 1   
    37   22   23 1   
    38   23   24 1   
    39   25   30 1   
    40   25   40 1   
    41   26   27 1   
    42   26   41 1   
    43   27   28 1   
    44   27   42 1   
    45   28   29 1   
    46   29   47 1   
    47   30   43 1   
@<TRIPOS>SUBSTRUCTURE
     1 YIN         1 TEMP              0 ****  ****    0 ROOT
