@<TRIPOS>MOLECULE
YIN
   47    47     1     0     0
SMALL
bcc


@<TRIPOS>ATOM
      1 C1         -0.5800    0.1600    1.3960 c1        1 YIN     -0.157000
      2 N1         -1.5650    1.5600   -2.2210 n2        1 YIN     -0.112000
      3 O1         -0.8350   -3.3310   -1.2270 os        1 YIN     -0.174000
      4 Br1         3.8040    1.5620    4.0410 br        1 YIN      0.057000
      5 C2          2.3510    1.1740   -1.8080 c2        1 YIN     -0.543000
      6 N2         -3.7770    2.0970   -2.1630 n7        1 YIN     -0.262000
      7 C3          2.6780    1.3270   -0.5580 c1        1 YIN      0.144000
      8 N3         -3.2160   -0.3270   -2.1390 n2        1 YIN     -0.141000
      9 C4          2.4720    1.1470    2.8210 c2        1 YIN     -0.224000
     10 N4         -1.7600    2.8930   -2.3340 n7        1 YIN     -0.244000
     11 C5          1.2460    0.7260    3.1650 c2        1 YIN     -0.058000
     12 C6          0.2630    0.4240    2.2110 c1        1 YIN     -0.055000
     13 C7         -0.7060   -2.3330   -0.1990 c3        1 YIN      0.096000
     14 C8         -3.0930    3.2850   -2.3030 c1        1 YIN      0.021000
     15 C9         -1.6360   -1.1610   -0.3680 c2        1 YIN     -0.153000
     16 C10        -1.5590   -0.0700    0.4240 c2        1 YIN      0.027000
     17 C11        -2.8160    1.0210   -2.1180 c2        1 YIN     -0.017000
     18 C12        -2.6740   -1.2620   -1.4190 c2        1 YIN      0.132000
     19 C13        -4.4510   -2.9760   -2.1380 c3        1 YIN     -0.134000
     20 C14        -4.6830   -4.4100   -2.4130 c2        1 YIN     -0.051000
     21 C15        -3.7200   -5.3510   -2.2480 c2        1 YIN     -0.220000
     22 C16        -2.4260   -5.0510   -1.7360 c1        1 YIN     -0.039000
     23 C17        -2.1410   -3.6490   -1.5460 c2        1 YIN      0.022000
     24 C18        -3.0780   -2.6610   -1.6910 c2        1 YIN     -0.098000
     25 C19        -0.2380   -7.3040   -0.8030 c1        1 YIN     -0.240500
     26 C20        -0.8510   -2.9450    1.1610 c2        1 YIN     -0.180000
     27 C21        -0.9270   -4.2660    1.3780 c2        1 YIN     -0.042000
     28 C22        -1.0320   -4.8270    2.6590 c1        1 YIN     -0.057000
     29 C23        -1.1220   -5.3320    3.7460 c1        1 YIN     -0.303000
     30 C24         0.5170   -8.1360   -0.3920 c1        1 YIN     -0.240500
     31 H2          1.3070    1.0540   -2.1490 ha        1 YIN      0.202000
     32 H3          3.0740    1.1430   -2.6390 ha        1 YIN      0.202000
     33 H5          2.7810    1.2800    1.7670 h4        1 YIN      0.195000
     34 H6          0.9350    0.5940    4.2190 ha        1 YIN      0.157000
     35 H8         -0.9680    3.4820   -2.4360 hn        1 YIN      0.280000
     36 H13        -4.6700   -2.3930   -3.0840 hc        1 YIN      0.154000
     37 H14        -5.1930   -2.6190   -1.3660 hc        1 YIN      0.154000
     38 H15        -5.7000   -4.6710   -2.7510 ha        1 YIN      0.139000
     39 H16        -3.9250   -6.4130   -2.4710 ha        1 YIN      0.160000
     40 H19        -0.9170   -6.5590   -1.1760 ha        1 YIN      0.234500
     41 H21        -0.8580   -2.2150    1.9870 ha        1 YIN      0.145000
     42 H22        -0.9110   -4.9940    0.5360 ha        1 YIN      0.183000
     43 H24         1.1870   -8.8700   -0.0260 ha        1 YIN      0.234500
     44 HN2        -4.7550    1.9720   -2.1470 hn        1 YIN      0.268000
     45 H10        -2.2990    0.7510    0.3280 ha        1 YIN      0.152000
     46 H7          0.3660   -1.9880   -0.3360 h1        1 YIN      0.151000
     47 Br2        -1.2520   -6.0670    5.3150 br        1 YIN      0.233000
@<TRIPOS>BOND
     1    1   12 1   
     2    1   16 1   
     3    2   10 1   
     4    2   17 1   
     5    3   13 1   
     6    3   23 1   
     7    4    9 1   
     8    5    7 1   
     9    5   31 1   
    10    5   32 1   
    11    6   14 1   
    12    6   17 1   
    13    6   44 1   
    14    8   17 1   
    15    8   18 1   
    16    9   11 1   
    17    9   33 1   
    18   10   14 1   
    19   10   35 1   
    20   11   12 1   
    21   11   34 1   
    22   13   15 1   
    23   13   26 1   
    24   13   46 1   
    25   15   16 1   
    26   15   18 1   
    27   16   45 1   
    28   18   24 1   
    29   19   20 1   
    30   19   24 1   
    31   19   36 1   
    32   19   37 1   
    33   20   21 1   
    34   20   38 1   
    35   21   22 1   
    36   21   39 1   
    37   22   23 1   
    38   23   24 1   
    39   25   30 1   
    40   25   40 1   
    41   26   27 1   
    42   26   41 1   
    43   27   28 1   
    44   27   42 1   
    45   28   29 1   
    46   29   47 1   
    47   30   43 1   
@<TRIPOS>SUBSTRUCTURE
     1 YIN         1 TEMP              0 ****  ****    0 ROOT
