@<TRIPOS>MOLECULE
YIN
   47    52     1     0     0
SMALL
bcc


@<TRIPOS>ATOM
      1 C1         -0.2450   -2.0000    0.5220 ca        1 YIN     -0.113300
      2 N1         -2.5840   -2.8600    0.4420 na        1 YIN      0.021400
      3 O1         -2.7380    1.6380    1.8840 os        1 YIN     -0.314900
      4 BR1         4.1470   -2.6070   -0.9510 br        1 YIN     -0.084100
      5 C2          0.6890   -2.6490    1.3370 ca        1 YIN     -0.103500
      6 N2         -3.6380   -3.6620   -1.4400 na        1 YIN     -0.359900
      7 C3          2.0010   -2.8280    0.9000 ca        1 YIN     -0.107500
      8 N3         -3.6920   -1.2130   -1.0620 ne        1 YIN     -0.349600
      9 C4          2.3870   -2.3640   -0.3600 ca        1 YIN     -0.014900
     10 N4         -2.2840   -4.1830    0.3500 n2        1 YIN     -0.478800
     11 C5          1.4560   -1.7180   -1.1790 ca        1 YIN     -0.107500
     12 C6          0.1460   -1.5390   -0.7380 ca        1 YIN     -0.103500
     13 C7         -1.7400    0.6230    1.6570 c3        1 YIN      0.259600
     14 C8         -2.9090   -4.6600   -0.7300 cc        1 YIN      0.405400
     15 C9         -2.2250   -0.4640    0.7530 c2        1 YIN     -0.259400
     16 C10        -1.6680   -1.8490    1.0050 c3        1 YIN      0.166500
     17 C11        -3.3200   -2.4450   -0.7610 cd        1 YIN      0.092400
     18 C12        -3.1960   -0.2260   -0.1860 ce        1 YIN      0.239400
     19 C13        -4.5910    1.5560   -1.3180 ca        1 YIN     -0.058000
     20 C14        -5.1390    2.8360   -1.2910 ca        1 YIN     -0.171000
     21 C15        -4.8800    3.6960   -0.2210 ca        1 YIN     -0.089000
     22 C16        -4.0590    3.2920    0.8270 ca        1 YIN     -0.158000
     23 C17        -3.5000    2.0060    0.7930 ca        1 YIN      0.137100
     24 C18        -3.7690    1.1210   -0.2720 ca        1 YIN     -0.116800
     25 C19        -0.3680    1.8670   -0.0700 ca        1 YIN     -0.109000
     26 C20        -0.4650    1.2780    1.1940 ca        1 YIN     -0.096300
     27 C21         0.6330    1.3300    2.0590 ca        1 YIN     -0.109000
     28 C22         1.8160    1.9500    1.6610 ca        1 YIN     -0.106500
     29 C23         1.9070    2.5340    0.3940 ca        1 YIN     -0.018900
     30 C24         0.8100    2.4930   -0.4710 ca        1 YIN     -0.106500
     31 H2          0.3890   -3.0290    2.3260 ha        1 YIN      0.143000
     32 H3          2.7250   -3.3380    1.5540 ha        1 YIN      0.149000
     33 H5          1.7500   -1.3430   -2.1720 ha        1 YIN      0.149000
     34 H6         -0.5810   -1.0160   -1.3790 ha        1 YIN      0.143000
     35 H8         -2.9410   -5.7150   -1.0300 h5        1 YIN      0.078100
     36 H13        -4.8120    0.8850   -2.1620 ha        1 YIN      0.154000
     37 H14        -5.7850    3.1700   -2.1160 ha        1 YIN      0.136000
     38 H15        -5.3250    4.7020   -0.2060 ha        1 YIN      0.136000
     39 H16        -3.8430    3.9560    1.6760 ha        1 YIN      0.153000
     40 H19        -1.2360    1.8360   -0.7500 ha        1 YIN      0.142000
     41 H21         0.5690    0.8820    3.0620 ha        1 YIN      0.142000
     42 H22         2.6730    1.9780    2.3520 ha        1 YIN      0.147000
     43 H24         0.8670    2.9550   -1.4690 ha        1 YIN      0.147000
     44 HN2        -3.7700   -3.6870   -2.4210 hn        1 YIN      0.310700
     45 H10        -1.6890   -2.0400    2.1250 h1        1 YIN      0.087700
     46 H7         -1.5960    0.2110    2.7030 h1        1 YIN      0.084700
     47 BR2         3.4940    3.3710   -0.1420 br        1 YIN     -0.088100
@<TRIPOS>BOND
     1    1    5 ar  
     2    1   12 ar  
     3    1   16 1   
     4    2   10 1   
     5    2   16 1   
     6    2   17 1   
     7    3   13 1   
     8    3   23 1   
     9    4    9 1   
    10    5    7 ar  
    11    5   31 1   
    12    6   14 1   
    13    6   17 1   
    14    6   44 1   
    15    7    9 ar  
    16    7   32 1   
    17    8   17 2   
    18    8   18 1   
    19    9   11 ar  
    20   10   14 2   
    21   11   12 ar  
    22   11   33 1   
    23   12   34 1   
    24   13   15 1   
    25   13   26 1   
    26   13   46 1   
    27   14   35 1   
    28   15   16 1   
    29   15   18 2   
    30   16   45 1   
    31   18   24 1   
    32   19   20 ar  
    33   19   24 ar  
    34   19   36 1   
    35   20   21 ar  
    36   20   37 1   
    37   21   22 ar  
    38   21   38 1   
    39   22   23 ar  
    40   22   39 1   
    41   23   24 ar  
    42   25   26 ar  
    43   25   30 ar  
    44   25   40 1   
    45   26   27 ar  
    46   27   28 ar  
    47   27   41 1   
    48   28   29 ar  
    49   28   42 1   
    50   29   30 ar  
    51   29   47 1   
    52   30   43 1   
@<TRIPOS>SUBSTRUCTURE
     1 YIN         1 TEMP              0 ****  ****    0 ROOT
