@<TRIPOS>MOLECULE
YIO
   24    24     1     0     0
SMALL
bcc


@<TRIPOS>ATOM
      1 C1         -0.0080   -0.0240    0.1290 c3        1 YIO      0.207200
      2 C2          1.5240    0.0290    0.1170 c3        1 YIO      0.080100
      3 C3          2.0500    0.0260    1.5630 c3        1 YIO      0.113100
      4 C4          1.4170    1.1850    2.3520 c3        1 YIO      0.124100
      5 C5         -0.1100    1.1190    2.2240 c3        1 YIO      0.096100
      6 C6         -0.7730    2.3700    2.8110 c3        1 YIO      0.144400
      7 O2          2.0840   -1.1110   -0.5070 oh        1 YIO     -0.603800
      8 O3          3.4510    0.2390    1.5880 oh        1 YIO     -0.607800
      9 O4          1.8520    2.4420    1.8650 oh        1 YIO     -0.593800
     10 O5         -0.5400    1.0690    0.8590 os        1 YIO     -0.408600
     11 O6         -2.1730    2.2140    2.8800 oh        1 YIO     -0.597800
     12 S1         -0.7090    0.0810   -1.5050 sh        1 YIO     -0.360900
     13 H1         -0.3580   -1.0010    0.5560 h2        1 YIO      0.087700
     14 H2          1.8720    0.9670   -0.4010 h1        1 YIO      0.072700
     15 H3          1.8080   -0.9570    2.0530 h1        1 YIO      0.059700
     16 HA          1.7000   -1.1600   -1.3950 ho        1 YIO      0.427000
     17 H4          1.7050    1.0890    3.4370 h1        1 YIO      0.059700
     18 HB          3.8410   -0.4090    0.9860 ho        1 YIO      0.432000
     19 H5         -0.4770    0.1940    2.7500 h1        1 YIO      0.060700
     20 HC          2.8180    2.4050    1.8250 ho        1 YIO      0.426000
     21 H61C       -0.4350    2.5100    3.8710 h1        1 YIO      0.067700
     22 H62C       -0.4970    3.2660    2.1940 h1        1 YIO      0.067700
     23 HO6        -2.4910    2.0980    1.9760 ho        1 YIO      0.413000
     24 HS1        -0.6560    1.3930   -1.6820 hs        1 YIO      0.232800
@<TRIPOS>BOND
     1    1    2 1   
     2    1   10 1   
     3    1   12 1   
     4    1   13 1   
     5    2    3 1   
     6    2    7 1   
     7    2   14 1   
     8    3    4 1   
     9    3    8 1   
    10    3   15 1   
    11    4    5 1   
    12    4    9 1   
    13    4   17 1   
    14    5    6 1   
    15    5   10 1   
    16    5   19 1   
    17    6   11 1   
    18    6   21 1   
    19    6   22 1   
    20    7   16 1   
    21    8   18 1   
    22    9   20 1   
    23   11   23 1   
    24   12   24 1   
@<TRIPOS>SUBSTRUCTURE
     1 YIO         1 TEMP              0 ****  ****    0 ROOT
