@<TRIPOS>MOLECULE
YIO
   24    24     1     0     0
SMALL
bcc


@<TRIPOS>ATOM
      1 C1         -0.6080    0.9640    0.5520 c3        1 YIO      0.207200
      2 C2         -1.3370   -0.2800    0.0330 c3        1 YIO      0.080100
      3 C3         -0.6050   -1.5450    0.5140 c3        1 YIO      0.113100
      4 C4          0.8700   -1.4910    0.0810 c3        1 YIO      0.124100
      5 C5          1.4940   -0.1700    0.5490 c3        1 YIO      0.096100
      6 C6          2.8950    0.0240   -0.0420 c3        1 YIO      0.144400
      7 O2         -2.6540   -0.3690    0.5440 oh        1 YIO     -0.603800
      8 O3         -1.1590   -2.7040   -0.0850 oh        1 YIO     -0.607800
      9 O4          1.0010   -1.5730   -1.3270 oh        1 YIO     -0.593800
     10 O5          0.7420    0.9700    0.1190 os        1 YIO     -0.408600
     11 O6          3.5430    1.1280    0.5500 oh        1 YIO     -0.597800
     12 S1         -1.3290    2.4800   -0.0430 sh        1 YIO     -0.360900
     13 H1         -0.6700    1.0090    1.6730 h2        1 YIO      0.087700
     14 H2         -1.3580   -0.2710   -1.0940 h1        1 YIO      0.072700
     15 H3         -0.6810   -1.6240    1.6330 h1        1 YIO      0.059700
     16 HA         -3.1010    0.4570    0.3100 ho        1 YIO      0.427000
     17 H4          1.4210   -2.3520    0.5540 h1        1 YIO      0.059700
     18 HB         -2.1120   -2.6710    0.0750 ho        1 YIO      0.432000
     19 H5          1.5360   -0.1690    1.6740 h1        1 YIO      0.060700
     20 HC          0.4800   -2.3380   -1.6090 ho        1 YIO      0.426000
     21 H61C        3.5320   -0.8650    0.2070 h1        1 YIO      0.067700
     22 H62C        2.8200    0.1490   -1.1540 h1        1 YIO      0.067700
     23 HO6         3.0160    1.9110    0.3450 ho        1 YIO      0.413000
     24 HS1        -0.7690    2.5300   -1.2440 hs        1 YIO      0.232800
@<TRIPOS>BOND
     1    1    2 1   
     2    1   10 1   
     3    1   12 1   
     4    1   13 1   
     5    2    3 1   
     6    2    7 1   
     7    2   14 1   
     8    3    4 1   
     9    3    8 1   
    10    3   15 1   
    11    4    5 1   
    12    4    9 1   
    13    4   17 1   
    14    5    6 1   
    15    5   10 1   
    16    5   19 1   
    17    6   11 1   
    18    6   21 1   
    19    6   22 1   
    20    7   16 1   
    21    8   18 1   
    22    9   20 1   
    23   11   23 1   
    24   12   24 1   
@<TRIPOS>SUBSTRUCTURE
     1 YIO         1 TEMP              0 ****  ****    0 ROOT
