@<TRIPOS>MOLECULE
YIQ
   47    50     1     0     0
SMALL
bcc


@<TRIPOS>ATOM
      1 CAU        -4.8970    0.8480   -0.4340 ca        1 YIQ     -0.166000
      2 CAV        -6.2920    0.9600   -0.3390 ca        1 YIQ     -0.026200
      3 NAG        -7.1380    2.0020   -0.7270 na        1 YIQ     -0.192400
      4 CAZ        -8.4530    1.6370   -0.4190 cc        1 YIQ     -0.111100
      5 CBA        -8.4760    0.3690    0.1540 cd        1 YIQ     -0.181200
      6 CAW        -7.1090   -0.0920    0.2200 ca        1 YIQ     -0.116800
      7 CAX        -6.4880   -1.2520    0.6830 ca        1 YIQ     -0.057000
      8 CAY        -5.1140   -1.3690    0.5990 ca        1 YIQ     -0.202000
      9 CAT        -4.3050   -0.3290    0.0420 ca        1 YIQ      0.071600
     10 NAF        -2.9170   -0.5590   -0.0400 n         1 YIQ     -0.466100
     11 CAS        -1.9330    0.4070   -0.2070 c         1 YIQ      0.694300
     12 OBB        -2.1740    1.6190   -0.3580 o         1 YIQ     -0.574100
     13 CAQ        -0.5300   -0.0790   -0.2120 cc        1 YIQ     -0.154300
     14 NAE        -0.1320   -1.3450   -0.7000 na        1 YIQ     -0.176400
     15 CAR         0.5700    0.6170    0.2840 cd        1 YIQ     -0.089200
     16 CAO         1.7330   -0.2120    0.0580 ca        1 YIQ     -0.119800
     17 CAP         3.0920   -0.0590    0.3350 ca        1 YIQ     -0.039000
     18 CAN         1.2620   -1.4100   -0.5970 ca        1 YIQ     -0.029200
     19 CAM         2.1600   -2.4240   -0.9730 ca        1 YIQ     -0.150000
     20 CAL         3.5000   -2.2390   -0.6840 ca        1 YIQ     -0.086000
     21 CAK         3.9690   -1.0750   -0.0320 ca        1 YIQ     -0.148900
     22 CAI         5.4150   -0.9630    0.2550 ce        1 YIQ      0.394900
     23 CAJ         6.0350   -2.1630    0.9010 c3        1 YIQ     -0.171400
     24 NAD         6.0270    0.1480   -0.0780 n2        1 YIQ     -0.459400
     25 NAC         7.3530    0.2910    0.0470 nh        1 YIQ     -0.482300
     26 CAH         7.8180    1.6870    0.1040 c2        1 YIQ      0.771100
     27 NAB         7.5230    2.4880   -1.0360 nh        1 YIQ     -0.912800
     28 NAA         8.5610    2.0300    1.1210 n2        1 YIQ     -0.867100
     29 HAU        -4.3000    1.6670   -0.8610 ha        1 YIQ      0.170000
     30 HAG        -6.8460    2.8600   -1.1100 hn        1 YIQ      0.301700
     31 HAZ        -9.2790    2.3160   -0.6390 h4        1 YIQ      0.165000
     32 HBA        -9.3510   -0.1790    0.4910 ha        1 YIQ      0.156000
     33 HAX        -7.0910   -2.0650    1.1130 ha        1 YIQ      0.136000
     34 HAY        -4.6370   -2.2880    0.9720 ha        1 YIQ      0.126000
     35 HAF        -2.6240   -1.4590    0.2730 hn        1 YIQ      0.319500
     36 HAE        -0.6530   -1.8560   -1.3670 hn        1 YIQ      0.295700
     37 HAR         0.5550    1.5990    0.7510 ha        1 YIQ      0.174000
     38 HAP         3.4540    0.8520    0.8350 ha        1 YIQ      0.149000
     39 HAM         1.8090   -3.3320   -1.4800 ha        1 YIQ      0.139000
     40 HAL         4.2280   -3.0140   -0.9730 ha        1 YIQ      0.138000
     41 HAJ1        6.7440   -2.6610    0.1930 hc        1 YIQ      0.055367
     42 HAJ2        6.6010   -1.8710    1.8220 hc        1 YIQ      0.055367
     43 HAJ3        5.2510   -2.9010    1.1970 hc        1 YIQ      0.055367
     44 HAB1        6.9220    2.0700   -1.7130 hn        1 YIQ      0.400300
     45 HAB2        7.2410    3.4150   -0.7990 hn        1 YIQ      0.400300
     46 HAA         8.9610    2.9420    1.0830 hn        1 YIQ      0.404400
     47 HAC         7.8060   -0.2740    0.7570 hn        1 YIQ      0.402800
@<TRIPOS>BOND
     1    1    2 ar  
     2    1    9 ar  
     3    1   29 1   
     4    2    3 1   
     5    2    6 ar  
     6    3    4 1   
     7    3   30 1   
     8    4    5 2   
     9    4   31 1   
    10    5    6 1   
    11    5   32 1   
    12    6    7 ar  
    13    7    8 ar  
    14    7   33 1   
    15    8    9 ar  
    16    8   34 1   
    17    9   10 1   
    18   10   11 1   
    19   10   35 1   
    20   11   12 2   
    21   11   13 1   
    22   13   14 1   
    23   13   15 2   
    24   14   18 1   
    25   14   36 1   
    26   15   16 1   
    27   15   37 1   
    28   16   17 ar  
    29   16   18 ar  
    30   17   21 ar  
    31   17   38 1   
    32   18   19 ar  
    33   19   20 ar  
    34   19   39 1   
    35   20   21 ar  
    36   20   40 1   
    37   21   22 1   
    38   22   23 1   
    39   22   24 2   
    40   23   41 1   
    41   23   42 1   
    42   23   43 1   
    43   24   25 1   
    44   25   26 1   
    45   25   47 1   
    46   26   27 1   
    47   26   28 2   
    48   27   44 1   
    49   27   45 1   
    50   28   46 1   
@<TRIPOS>SUBSTRUCTURE
     1 YIQ         1 TEMP              0 ****  ****    0 ROOT
