@<TRIPOS>MOLECULE
YIQ
   50    53     1     0     0
SMALL
bcc


@<TRIPOS>ATOM
      1 CAU        -0.0120   -0.0530    0.1870 ca        1 YIQ     -0.080000
      2 CAV         0.4830    0.3630   -1.0520 ca        1 YIQ     -0.061200
      3 NAG         1.4740    1.2880   -1.3760 na        1 YIQ     -0.159400
      4 CAZ         1.6130    1.3160   -2.7620 cc        1 YIQ     -0.028100
      5 CBA         0.7080    0.4300   -3.3600 cd        1 YIQ     -0.181200
      6 CAW        -0.0270   -0.1980   -2.3000 ca        1 YIQ     -0.043800
      7 CAX        -1.0250   -1.1730   -2.2540 ca        1 YIQ     -0.047000
      8 CAY        -1.5210   -1.5890   -1.0300 ca        1 YIQ     -0.186000
      9 CAT        -1.0190   -1.0280    0.1740 ca        1 YIQ     -0.099400
     10 NAF        -1.5100   -1.5560    1.4510 n4        1 YIQ     -0.526200
     11 CAS        -2.2920   -0.5420    2.2500 c         1 YIQ      0.577300
     12 OBB        -1.7690   -0.1700    3.2930 o         1 YIQ     -0.397100
     13 CAQ        -3.6000   -0.1280    1.7620 cc        1 YIQ     -0.178300
     14 NAE        -4.0740   -0.2510    0.4360 na        1 YIQ     -0.146400
     15 CAR        -4.5830    0.4590    2.5750 cd        1 YIQ     -0.004200
     16 CAO        -5.7130    0.7370    1.7250 ca        1 YIQ     -0.164800
     17 CAP        -6.9570    1.3250    1.9510 ca        1 YIQ      0.049000
     18 CAN        -5.3420    0.2980    0.3910 ca        1 YIQ      0.052800
     19 CAM        -6.2450    0.4560   -0.6870 ca        1 YIQ     -0.126000
     20 CAL        -7.4550    1.0600   -0.4360 ca        1 YIQ     -0.047000
     21 CAK        -7.8250    1.5130    0.8680 ca        1 YIQ     -0.264900
     22 CAI        -9.0920    2.2240    1.0160 ce        1 YIQ      0.641900
     23 CAJ        -9.5350    3.0200   -0.1710 c3        1 YIQ     -0.241400
     24 NAD        -9.7440    2.1180    2.1770 n2        1 YIQ     -0.675400
     25 NAC       -10.8920    2.8670    2.4550 n4        1 YIQ     -0.410100
     26 CAH       -12.1300    1.9990    2.6940 c2        1 YIQ      0.626100
     27 NAB       -11.8880    0.8650    3.6550 n4        1 YIQ     -0.844600
     28 NAA       -13.1970    2.3030    2.0790 n2        1 YIQ     -0.614100
     29 HAU         0.3900    0.3640    1.1240 ha        1 YIQ      0.165000
     30 HAG         2.0320    1.7840   -0.7260 hn        1 YIQ      0.328700
     31 HAZ         2.3560    1.9700   -3.2370 h4        1 YIQ      0.210000
     32 HBA         0.5940    0.2440   -4.4260 ha        1 YIQ      0.195000
     33 HAX        -1.3980   -1.6240   -3.1890 ha        1 YIQ      0.176000
     34 HAY        -2.2690   -2.3980   -1.0040 ha        1 YIQ      0.144000
     35 HAF        -0.6940   -1.8500    2.0150 hn        1 YIQ      0.474800
     36 HAE        -3.5060   -0.4600   -0.3550 hn        1 YIQ      0.341700
     37 HAR        -4.4970    0.6630    3.6450 ha        1 YIQ      0.204000
     38 HAP        -7.2140    1.6640    2.9680 ha        1 YIQ      0.159000
     39 HAM        -5.9830    0.1100   -1.7010 ha        1 YIQ      0.185000
     40 HAL        -8.1640    1.1830   -1.2730 ha        1 YIQ      0.162000
     41 HAJ1      -10.1850    2.3860   -0.8320 hc        1 YIQ      0.110367
     42 HAJ2      -10.0890    3.9570    0.0870 hc        1 YIQ      0.110367
     43 HAJ3       -8.6440    3.3410   -0.7780 hc        1 YIQ      0.110367
     44 HAB1      -12.7800    0.4000    3.8910 hn        1 YIQ      0.499800
     45 HAB2      -11.2560    0.1680    3.2250 hn        1 YIQ      0.499800
     46 HAA       -14.0830    1.8360    2.1570 hn        1 YIQ      0.542400
     47 HAC       -10.6990    3.3730    3.3450 hn        1 YIQ      0.491800
     48 HAF2       -2.0990   -2.3790    1.2730 hn        1 YIQ      0.474800
     49 HAC2      -11.1510    3.5770    1.7310 hn        1 YIQ      0.491800
     50 HAB3      -11.4570    1.2020    4.5290 hn        1 YIQ      0.499800
@<TRIPOS>BOND
     1    1    2 ar  
     2    1    9 ar  
     3    1   29 1   
     4    2    3 1   
     5    2    6 ar  
     6    3    4 1   
     7    3   30 1   
     8    4    5 2   
     9    4   31 1   
    10    5    6 1   
    11    5   32 1   
    12    6    7 ar  
    13    7    8 ar  
    14    7   33 1   
    15    8    9 ar  
    16    8   34 1   
    17    9   10 1   
    18   10   11 1   
    19   10   35 1   
    20   10   48 1   
    21   11   12 2   
    22   11   13 1   
    23   13   14 1   
    24   13   15 2   
    25   14   18 1   
    26   14   36 1   
    27   15   16 1   
    28   15   37 1   
    29   16   17 ar  
    30   16   18 ar  
    31   17   21 ar  
    32   17   38 1   
    33   18   19 ar  
    34   19   20 ar  
    35   19   39 1   
    36   20   21 ar  
    37   20   40 1   
    38   21   22 1   
    39   22   23 1   
    40   22   24 2   
    41   23   41 1   
    42   23   42 1   
    43   23   43 1   
    44   24   25 1   
    45   25   26 1   
    46   25   47 1   
    47   25   49 1   
    48   26   27 1   
    49   26   28 2   
    50   27   44 1   
    51   27   45 1   
    52   27   50 1   
    53   28   46 1   
@<TRIPOS>SUBSTRUCTURE
     1 YIQ         1 TEMP              0 ****  ****    0 ROOT
