@<TRIPOS>MOLECULE
YIQ
   49    52     1     0     0
SMALL
bcc


@<TRIPOS>ATOM
      1 CAU         0.1600   -0.4020    0.1440 ca        1 YIQ     -0.140000
      2 CAV         1.5440   -0.3700   -0.0820 ca        1 YIQ     -0.036200
      3 NAG         2.5890   -0.9520    0.6340 na        1 YIQ     -0.185400
      4 CAZ         3.7920   -0.6270   -0.0010 cc        1 YIQ     -0.089100
      5 CBA         3.5450    0.1610   -1.1220 cd        1 YIQ     -0.180200
      6 CAW         2.1160    0.3450   -1.2030 ca        1 YIQ     -0.094800
      7 CAX         1.2680    1.0220   -2.0790 ca        1 YIQ     -0.051000
      8 CAY        -0.0970    0.9990   -1.8600 ca        1 YIQ     -0.194000
      9 CAT        -0.6580    0.2890   -0.7570 ca        1 YIQ      0.026600
     10 NAF        -2.0730    0.2740   -0.6400 ns        1 YIQ     -0.442100
     11 CAS        -2.7620    0.1180    0.5430 c         1 YIQ      0.676300
     12 OBB        -2.2590   -0.1270    1.6520 o         1 YIQ     -0.541100
     13 CAQ        -4.2560    0.2080    0.4540 cc        1 YIQ     -0.105300
     14 NAE        -5.0200   -0.3140   -0.6180 na        1 YIQ     -0.128400
     15 CAR        -5.0970    0.7500    1.4190 cd        1 YIQ     -0.088200
     16 CAO        -6.4570    0.5630    0.9500 ca        1 YIQ     -0.152800
     17 CAP        -7.6920    0.8650    1.4730 ca        1 YIQ      0.056000
     18 CAN        -6.3480   -0.1240   -0.3390 ca        1 YIQ      0.056800
     19 CAM        -7.5220   -0.4670   -1.0560 ca        1 YIQ     -0.140000
     20 CAL        -8.7380   -0.1490   -0.5080 ca        1 YIQ     -0.048000
     21 CAK        -8.8710    0.5160    0.7580 ca        1 YIQ     -0.275900
     22 CAI       -10.1710    0.7720    1.2930 ce        1 YIQ      0.619900
     23 CAJ       -11.3490    0.2750    0.5140 c3        1 YIQ     -0.228400
     24 NAD       -10.2610    1.4320    2.4780 n2        1 YIQ     -0.737400
     25 NAC       -11.4460    1.5720    3.1640 ny        1 YIQ     -0.370100
     26 CAH       -12.0670    2.9810    3.0950 c2        1 YIQ      0.593100
     27 NAB       -11.0400    4.0840    3.1980 nz        1 YIQ     -0.846600
     28 NAA       -13.3230    3.0960    2.9570 n2        1 YIQ     -0.632100
     29 HAU        -0.2530   -0.9450    1.0070 ha        1 YIQ      0.161000
     30 HAG         2.4920   -1.4960    1.4500 hn        1 YIQ      0.306700
     31 HAZ         4.7430   -0.9870    0.4000 h4        1 YIQ      0.179000
     32 HBA         4.2820    0.5640   -1.8110 ha        1 YIQ      0.169000
     33 HAX         1.6860    1.5710   -2.9370 ha        1 YIQ      0.148000
     34 HAY        -0.7550    1.5400   -2.5570 ha        1 YIQ      0.125000
     35 HAF        -2.5540    0.6930   -1.4060 hn        1 YIQ      0.313500
     36 HAE        -4.6470   -0.8140   -1.3910 hn        1 YIQ      0.338700
     37 HAR        -4.7880    1.2090    2.3580 ha        1 YIQ      0.197000
     38 HAP        -7.7440    1.3610    2.4560 ha        1 YIQ      0.150000
     39 HAM        -7.4530   -0.9820   -2.0270 ha        1 YIQ      0.178000
     40 HAL        -9.6420   -0.4290   -1.0750 ha        1 YIQ      0.152000
     41 HAJ1      -12.3480    0.5330    0.9400 hc        1 YIQ      0.096367
     42 HAJ2      -11.2940   -0.8450    0.4290 hc        1 YIQ      0.096367
     43 HAJ3      -11.3190    0.7000   -0.5250 hc        1 YIQ      0.096367
     44 HAB1      -10.3990    3.9140    3.9870 hn        1 YIQ      0.492133
     45 HAB2      -11.4980    4.9960    3.3370 hn        1 YIQ      0.492133
     46 HAA       -13.8290    3.9600    2.9150 hn        1 YIQ      0.522400
     47 HAC       -11.1990    1.4220    4.1640 hn        1 YIQ      0.486300
     48 HAC2      -12.2020    0.9000    2.9070 hn        1 YIQ      0.486300
     49 HAB3      -10.4820    4.1190    2.3310 hn        1 YIQ      0.492133
@<TRIPOS>BOND
     1    1    2 ar  
     2    1    9 ar  
     3    1   29 1   
     4    2    3 1   
     5    2    6 ar  
     6    3    4 1   
     7    3   30 1   
     8    4    5 2   
     9    4   31 1   
    10    5    6 1   
    11    5   32 1   
    12    6    7 ar  
    13    7    8 ar  
    14    7   33 1   
    15    8    9 ar  
    16    8   34 1   
    17    9   10 1   
    18   10   11 1   
    19   10   35 1   
    20   11   12 2   
    21   11   13 1   
    22   13   14 1   
    23   13   15 2   
    24   14   18 1   
    25   14   36 1   
    26   15   16 1   
    27   15   37 1   
    28   16   17 ar  
    29   16   18 ar  
    30   17   21 ar  
    31   17   38 1   
    32   18   19 ar  
    33   19   20 ar  
    34   19   39 1   
    35   20   21 ar  
    36   20   40 1   
    37   21   22 1   
    38   22   23 1   
    39   22   24 2   
    40   23   41 1   
    41   23   42 1   
    42   23   43 1   
    43   24   25 1   
    44   25   26 1   
    45   25   47 1   
    46   25   48 1   
    47   26   27 1   
    48   26   28 2   
    49   27   44 1   
    50   27   45 1   
    51   27   49 1   
    52   28   46 1   
@<TRIPOS>SUBSTRUCTURE
     1 YIQ         1 TEMP              0 ****  ****    0 ROOT
