@<TRIPOS>MOLECULE
YIR
   49    52     1     0     0
SMALL
bcc


@<TRIPOS>ATOM
      1 NAA         0.1180   -0.1490    0.1740 no        1 YIR      0.325200
      2 NAB         2.9740   -0.1480    1.3790 na        1 YIR     -0.160400
      3 NAC         4.5490    0.2290    3.8770 n         1 YIR     -0.466100
      4 NAD         7.8660   -0.0790    9.3960 n2        1 YIR     -0.473400
      5 NAE         8.4860    0.0520   10.5750 nh        1 YIR     -0.477300
      6 NAF        10.6940   -0.7350    9.8430 nh        1 YIR     -0.913800
      7 NAG         9.6110   -1.6130   11.8410 n2        1 YIR     -0.865100
      8 CAH         1.3290    0.1220   -1.9930 ca        1 YIR     -0.025000
      9 CAI         2.5110    0.2410   -2.7360 ca        1 YIR     -0.181000
     10 CAJ         3.7610    0.2190   -2.1290 ca        1 YIR     -0.018000
     11 CAK         3.8410    0.0750   -0.7460 ca        1 YIR     -0.128800
     12 CAL         2.6270   -0.0450    0.0410 ca        1 YIR      0.020800
     13 CAM         1.3670   -0.0220   -0.6010 ca        1 YIR     -0.208200
     14 CAN         4.9360    0.0060    0.1920 cc        1 YIR     -0.090200
     15 CAO         4.3800   -0.1370    1.4640 cd        1 YIR     -0.138300
     16 CAP         5.1520   -0.2650    2.7280 c         1 YIR      0.698300
     17 CAQ         5.1010    0.2300    5.1710 ca        1 YIR      0.072600
     18 CAR         4.5040    1.0520    6.1560 ca        1 YIR     -0.185000
     19 CAS         4.9900    1.0710    7.4600 ca        1 YIR     -0.031300
     20 CAT         6.0990    0.2820    7.8210 ca        1 YIR     -0.134900
     21 CAU         6.6760   -0.5430    6.8480 ca        1 YIR     -0.070000
     22 CAV         6.1940   -0.5780    5.5430 ca        1 YIR     -0.161000
     23 CAW         4.3180    1.9200    8.4810 c3        1 YIR     -0.041100
     24 CAX         4.3430    1.2240    9.8250 c3        1 YIR     -0.070400
     25 CAY         5.7610    0.9440   10.2650 c3        1 YIR     -0.150700
     26 CAZ         6.6370    0.3480    9.1940 ce        1 YIR      0.410900
     27 CBA         9.6230   -0.8640   10.7720 c2        1 YIR      0.771100
     28 OBB        -0.9350   -0.1170   -0.4030 o         1 YIR     -0.221000
     29 OBC         0.1770   -0.2830    1.3720 o         1 YIR     -0.221000
     30 OBD         6.2780   -0.7930    2.7100 o         1 YIR     -0.563100
     31 HNAB        2.3370   -0.3630    2.1090 hn        1 YIR      0.332700
     32 HNAC        3.7340    0.7920    3.7680 hn        1 YIR      0.320500
     33 H1AF       10.5260   -0.1240    9.0730 hn        1 YIR      0.400300
     34 H2AF       11.0710   -1.6130    9.5560 hn        1 YIR      0.400300
     35 HAG        10.4380   -2.1380   12.0180 hn        1 YIR      0.404400
     36 HAH         0.3540    0.1410   -2.5110 ha        1 YIR      0.170000
     37 HAI         2.4360    0.3530   -3.8290 ha        1 YIR      0.150000
     38 HAJ         4.6800    0.3120   -2.7280 ha        1 YIR      0.151000
     39 HAN         5.9970    0.0510   -0.0440 ha        1 YIR      0.182000
     40 HAR         3.6390    1.6860    5.9040 ha        1 YIR      0.132000
     41 HAU         7.5330   -1.1880    7.1000 ha        1 YIR      0.150000
     42 HAV         6.6830   -1.2390    4.8090 ha        1 YIR      0.171000
     43 H1AW        4.8500    2.9070    8.5500 hc        1 YIR      0.056200
     44 H2AW        3.2570    2.1300    8.1820 hc        1 YIR      0.056200
     45 H1AX        3.8380    1.8670   10.5930 hc        1 YIR      0.050700
     46 H2AX        3.7670    0.2630    9.7590 hc        1 YIR      0.050700
     47 H1AY        5.7260    0.2520   11.1520 hc        1 YIR      0.058200
     48 H2AY        6.2340    1.9060   10.6080 hc        1 YIR      0.058200
     49 HAE         7.8960    0.0800   11.3990 hn        1 YIR      0.401800
@<TRIPOS>BOND
     1    1   13 1   
     2    1   28 1   
     3    1   29 1   
     4    2   12 1   
     5    2   15 1   
     6    2   31 1   
     7    3   16 1   
     8    3   17 1   
     9    3   32 1   
    10    4    5 1   
    11    4   26 2   
    12    5   27 1   
    13    5   49 1   
    14    6   27 1   
    15    6   33 1   
    16    6   34 1   
    17    7   27 2   
    18    7   35 1   
    19    8    9 ar  
    20    8   13 ar  
    21    8   36 1   
    22    9   10 ar  
    23    9   37 1   
    24   10   11 ar  
    25   10   38 1   
    26   11   12 ar  
    27   11   14 1   
    28   12   13 ar  
    29   14   15 2   
    30   14   39 1   
    31   15   16 1   
    32   16   30 2   
    33   17   18 ar  
    34   17   22 ar  
    35   18   19 ar  
    36   18   40 1   
    37   19   20 ar  
    38   19   23 1   
    39   20   21 ar  
    40   20   26 1   
    41   21   22 ar  
    42   21   41 1   
    43   22   42 1   
    44   23   24 1   
    45   23   43 1   
    46   23   44 1   
    47   24   25 1   
    48   24   45 1   
    49   24   46 1   
    50   25   26 1   
    51   25   47 1   
    52   25   48 1   
@<TRIPOS>SUBSTRUCTURE
     1 YIR         1 TEMP              0 ****  ****    0 ROOT
