@<TRIPOS>MOLECULE
YIR
   51    54     1     0     0
SMALL
bcc


@<TRIPOS>ATOM
      1 NAA         0.3660   -0.9530    0.4250 no        1 YIR      0.327200
      2 NAB         3.1760   -0.1160    1.3860 na        1 YIR     -0.164400
      3 NAC         4.7440    0.6310    3.7800 ns        1 YIR     -0.441100
      4 NAD         8.2020    0.3470    9.1950 n2        1 YIR     -0.745400
      5 NAE         8.8310    0.5160   10.4040 ny        1 YIR     -0.363100
      6 NAF         9.4750   -1.9480   10.3070 nz        1 YIR     -0.847600
      7 NAG         8.9350   -0.7900   12.4550 n2        1 YIR     -0.638100
      8 CAH         1.2790   -0.4140   -1.8430 ca        1 YIR      0.004000
      9 CAI         2.3260    0.0010   -2.6830 ca        1 YIR     -0.168000
     10 CAJ         3.5770    0.3310   -2.1840 ca        1 YIR     -0.004000
     11 CAK         3.8000    0.2510   -0.8060 ca        1 YIR     -0.144800
     12 CAL         2.7280   -0.1630    0.0740 ca        1 YIR      0.036800
     13 CAM         1.4620   -0.5050   -0.4600 ca        1 YIR     -0.213200
     14 CAN         4.9410    0.5020    0.0370 cc        1 YIR     -0.020200
     15 CAO         4.5390    0.2540    1.3580 cd        1 YIR     -0.200300
     16 CAP         5.4010    0.3950    2.5340 c         1 YIR      0.717300
     17 CAQ         5.3040    0.6240    5.0260 ca        1 YIR      0.236600
     18 CAR         4.4880    0.9580    6.1580 ca        1 YIR     -0.243000
     19 CAS         4.9870    0.9590    7.4420 ca        1 YIR      0.078700
     20 CAT         6.3570    0.6180    7.6970 ca        1 YIR     -0.277900
     21 CAU         7.1610    0.2790    6.5650 ca        1 YIR      0.002000
     22 CAV         6.6710    0.2770    5.2870 ca        1 YIR     -0.207000
     23 CAW         4.0790    1.3440    8.5550 c3        1 YIR     -0.073100
     24 CAX         4.5340    0.7740    9.8770 c3        1 YIR     -0.072400
     25 CAY         5.9870    1.1100   10.1340 c3        1 YIR     -0.191700
     26 CAZ         6.8870    0.6610    9.0110 ce        1 YIR      0.603900
     27 CBA         9.0810   -0.7900   11.1940 c2        1 YIR      0.586100
     28 OBB        -0.7050   -1.2040   -0.0500 o         1 YIR     -0.212000
     29 OBC         0.5790   -1.0590    1.6100 o         1 YIR     -0.212000
     30 OBD         6.6350    0.3400    2.4730 o         1 YIR     -0.524100
     31 HNAB        2.7000   -0.5530    2.1400 hn        1 YIR      0.327700
     32 HNAC        3.7800    0.9040    3.7310 hn        1 YIR      0.348500
     33 H1AF        8.6590   -2.2510    9.7540 hn        1 YIR      0.490800
     34 H2AF       10.2200   -1.6670    9.6530 hn        1 YIR      0.490800
     35 HAG         9.0850   -1.5760   13.0570 hn        1 YIR      0.518400
     36 HAH         0.2970   -0.6730   -2.2830 ha        1 YIR      0.186000
     37 HAI         2.1360    0.0600   -3.7670 ha        1 YIR      0.169000
     38 HAJ         4.3890    0.6520   -2.8570 ha        1 YIR      0.163000
     39 HAN         5.9290    0.8290   -0.2860 ha        1 YIR      0.188000
     40 HAR         3.4280    1.2280    6.0000 ha        1 YIR      0.171000
     41 HAU         8.2240    0.0200    6.7070 ha        1 YIR      0.148000
     42 HAV         7.3420    0.0150    4.4480 ha        1 YIR      0.204000
     43 H1AW        3.0300    0.9970    8.3420 hc        1 YIR      0.096700
     44 H2AW        4.0450    2.4690    8.6110 hc        1 YIR      0.096700
     45 H1AX        3.9060    1.2000   10.7070 hc        1 YIR      0.078700
     46 H2AX        4.3900   -0.3390    9.8860 hc        1 YIR      0.078700
     47 H1AY        6.0950    2.2300   10.2290 hc        1 YIR      0.077700
     48 H2AY        6.2750    0.6520   11.1180 hc        1 YIR      0.077700
     49 HAE         8.3700    1.1750   11.0670 hn        1 YIR      0.483800
     50 HAE2        9.7760    0.8820   10.1720 hn        1 YIR      0.483800
     51 HAF3        9.8120   -2.7410   10.8690 hn        1 YIR      0.490800
@<TRIPOS>BOND
     1    1   13 1   
     2    1   28 1   
     3    1   29 1   
     4    2   12 1   
     5    2   15 1   
     6    2   31 1   
     7    3   16 1   
     8    3   17 1   
     9    3   32 1   
    10    4    5 1   
    11    4   26 2   
    12    5   27 1   
    13    5   49 1   
    14    5   50 1   
    15    6   27 1   
    16    6   33 1   
    17    6   34 1   
    18    6   51 1   
    19    7   27 2   
    20    7   35 1   
    21    8    9 ar  
    22    8   13 ar  
    23    8   36 1   
    24    9   10 ar  
    25    9   37 1   
    26   10   11 ar  
    27   10   38 1   
    28   11   12 ar  
    29   11   14 1   
    30   12   13 ar  
    31   14   15 2   
    32   14   39 1   
    33   15   16 1   
    34   16   30 2   
    35   17   18 ar  
    36   17   22 ar  
    37   18   19 ar  
    38   18   40 1   
    39   19   20 ar  
    40   19   23 1   
    41   20   21 ar  
    42   20   26 1   
    43   21   22 ar  
    44   21   41 1   
    45   22   42 1   
    46   23   24 1   
    47   23   43 1   
    48   23   44 1   
    49   24   25 1   
    50   24   45 1   
    51   24   46 1   
    52   25   26 1   
    53   25   47 1   
    54   25   48 1   
@<TRIPOS>SUBSTRUCTURE
     1 YIR         1 TEMP              0 ****  ****    0 ROOT
