@<TRIPOS>MOLECULE
YIR
   49    52     1     0     0
SMALL
bcc


@<TRIPOS>ATOM
      1 NAA        -6.0590   -1.5610   -0.9010 no        1 YIR      0.325200
      2 NAB        -3.5620    0.1450   -0.2200 na        1 YIR     -0.160400
      3 NAC        -0.6160    0.0660    0.2000 n         1 YIR     -0.466100
      4 NAD         5.8270    0.1630    0.0080 n2        1 YIR     -0.473400
      5 NAE         7.1550    0.0440    0.1230 nh        1 YIR     -0.477300
      6 NAF         7.6690    2.4450    0.1940 nh        1 YIR     -0.913800
      7 NAG         8.8430    0.9190   -1.3000 n2        1 YIR     -0.865100
      8 CAH        -7.3040    0.3620    0.0930 ca        1 YIR     -0.025000
      9 CAI        -7.3390    1.6270    0.6950 ca        1 YIR     -0.181000
     10 CAJ        -6.1770    2.3430    0.9580 ca        1 YIR     -0.018000
     11 CAK        -4.9460    1.7880    0.6160 ca        1 YIR     -0.128800
     12 CAL        -4.8900    0.4770   -0.0050 ca        1 YIR      0.020800
     13 CAM        -6.0870   -0.2300   -0.2650 ca        1 YIR     -0.208200
     14 CAN        -3.5790    2.2370    0.7320 cc        1 YIR     -0.090200
     15 CAO        -2.7690    1.2260    0.2110 cd        1 YIR     -0.138300
     16 CAP        -1.2860    1.2790    0.1180 c         1 YIR      0.698300
     17 CAQ         0.7780   -0.1170    0.1530 ca        1 YIR      0.072600
     18 CAR         1.3060   -1.3620    0.5720 ca        1 YIR     -0.185000
     19 CAS         2.6750   -1.6100    0.5200 ca        1 YIR     -0.031300
     20 CAT         3.5650   -0.6180    0.0640 ca        1 YIR     -0.134900
     21 CAU         3.0360    0.6060   -0.3650 ca        1 YIR     -0.070000
     22 CAV         1.6690    0.8620   -0.3270 ca        1 YIR     -0.161000
     23 CAW         3.1960   -2.9410    0.9340 c3        1 YIR     -0.041100
     24 CAX         4.3730   -3.3260    0.0650 c3        1 YIR     -0.070400
     25 CAY         5.4810   -2.3040    0.1680 c3        1 YIR     -0.150700
     26 CAZ         5.0190   -0.8740    0.0610 ce        1 YIR      0.410900
     27 CBA         7.9200    1.1830   -0.4150 c2        1 YIR      0.771100
     28 OBB        -7.0940   -2.1370   -1.0990 o         1 YIR     -0.221000
     29 OBC        -4.9980   -2.0460   -1.2100 o         1 YIR     -0.221000
     30 OBD        -0.7180    2.3760   -0.0250 o         1 YIR     -0.563100
     31 HNAB       -3.2570   -0.6430   -0.7400 hn        1 YIR      0.332700
     32 HNAC       -1.1350   -0.7330    0.4930 hn        1 YIR      0.320500
     33 H1AF        6.9120    2.4680    0.8430 hn        1 YIR      0.400300
     34 H2AF        7.6280    3.1940   -0.4630 hn        1 YIR      0.400300
     35 HAG         9.4260    1.6820   -1.5650 hn        1 YIR      0.404400
     36 HAH        -8.2490   -0.1760   -0.1030 ha        1 YIR      0.170000
     37 HAI        -8.3170    2.0560    0.9610 ha        1 YIR      0.150000
     38 HAJ        -6.2230    3.3360    1.4310 ha        1 YIR      0.151000
     39 HAN        -3.2390    3.1860    1.1410 ha        1 YIR      0.182000
     40 HAR         0.6390   -2.1570    0.9400 ha        1 YIR      0.132000
     41 HAU         3.7010    1.3970   -0.7470 ha        1 YIR      0.150000
     42 HAV         1.2990    1.8420   -0.6710 ha        1 YIR      0.171000
     43 H1AW        3.5130   -2.8950    2.0120 hc        1 YIR      0.056200
     44 H2AW        2.3930   -3.7210    0.8530 hc        1 YIR      0.056200
     45 H1AX        4.7650   -4.3280    0.3810 hc        1 YIR      0.050700
     46 H2AX        4.0360   -3.4170   -1.0010 hc        1 YIR      0.050700
     47 H1AY        6.0040   -2.4290    1.1560 hc        1 YIR      0.058200
     48 H2AY        6.2350   -2.5170   -0.6410 hc        1 YIR      0.058200
     49 HAE         7.5610   -0.8370   -0.1720 hn        1 YIR      0.401800
@<TRIPOS>BOND
     1    1   13 1   
     2    1   28 1   
     3    1   29 1   
     4    2   12 1   
     5    2   15 1   
     6    2   31 1   
     7    3   16 1   
     8    3   17 1   
     9    3   32 1   
    10    4    5 1   
    11    4   26 2   
    12    5   27 1   
    13    5   49 1   
    14    6   27 1   
    15    6   33 1   
    16    6   34 1   
    17    7   27 2   
    18    7   35 1   
    19    8    9 ar  
    20    8   13 ar  
    21    8   36 1   
    22    9   10 ar  
    23    9   37 1   
    24   10   11 ar  
    25   10   38 1   
    26   11   12 ar  
    27   11   14 1   
    28   12   13 ar  
    29   14   15 2   
    30   14   39 1   
    31   15   16 1   
    32   16   30 2   
    33   17   18 ar  
    34   17   22 ar  
    35   18   19 ar  
    36   18   40 1   
    37   19   20 ar  
    38   19   23 1   
    39   20   21 ar  
    40   20   26 1   
    41   21   22 ar  
    42   21   41 1   
    43   22   42 1   
    44   23   24 1   
    45   23   43 1   
    46   23   44 1   
    47   24   25 1   
    48   24   45 1   
    49   24   46 1   
    50   25   26 1   
    51   25   47 1   
    52   25   48 1   
@<TRIPOS>SUBSTRUCTURE
     1 YIR         1 TEMP              0 ****  ****    0 ROOT
