@<TRIPOS>MOLECULE
YIS
   83    88     1     0     0
SMALL
bcc


@<TRIPOS>ATOM
      1 C1          1.5400   -0.9080   -0.9310 c3        1 YIS     -0.090433
      2 C2          2.4500   -0.1440    0.0250 c3        1 YIS     -0.077300
      3 C3          1.8450   -0.1750    1.4230 c3        1 YIS     -0.090433
      4 C4          3.8230   -0.8070    0.0580 c3        1 YIS     -0.090433
      5 C5          2.5870    1.2740   -0.4410 cc        1 YIS      0.328600
      6 C6          2.2000    2.4540    0.2990 cc        1 YIS     -0.201300
      7 C7          2.5250    3.5340   -0.5480 cd        1 YIS     -0.078700
      8 N8          2.4120    4.9100   -0.2880 ns        1 YIS     -0.392100
      9 C9          1.2790    5.5940   -0.6810 c         1 YIS      0.635100
     10 O10         0.2270    5.1360   -1.1320 o         1 YIS     -0.465100
     11 N11         1.2640    7.1040   -0.4770 ny        1 YIS     -0.686800
     12 C12         1.2760    7.4870    0.9700 c3        1 YIS      0.175100
     13 C13         1.2320    8.9720    1.1440 ca        1 YIS     -0.165300
     14 C14         2.2720    9.6010    1.8330 ca        1 YIS     -0.090000
     15 C15         2.2390   10.9790    2.0480 ca        1 YIS     -0.115000
     16 C16         1.1650   11.7300    1.5760 ca        1 YIS     -0.077000
     17 C17         0.1200   11.1020    0.8930 ca        1 YIS     -0.101000
     18 C18         0.1410    9.7250    0.6710 ca        1 YIS     -0.025100
     19 S19        -1.1400    8.8760   -0.0830 ss        1 YIS     -0.136800
     20 C20        -1.7930    9.9070   -1.2590 cc        1 YIS     -0.131100
     21 C21        -1.4150    9.7440   -2.6310 cc        1 YIS     -0.103000
     22 C22        -2.0030   10.4760   -3.6210 cd        1 YIS     -0.067000
     23 C23        -3.0130   11.4290   -3.2690 cd        1 YIS     -0.067300
     24 N24        -3.7790   12.3050   -3.9960 nc        1 YIS     -0.053000
     25 N25        -4.5670   12.9670   -3.1840 nc        1 YIS     -0.305700
     26 C26        -4.3730   12.5800   -1.8810 cd        1 YIS      0.370400
     27 C27        -5.0840   13.0700   -0.7060 ca        1 YIS     -0.097900
     28 C28        -6.4850   13.0540   -0.7380 ca        1 YIS     -0.072000
     29 C29        -7.2170   13.5490    0.3390 ca        1 YIS     -0.125000
     30 C30        -6.5530   14.0570    1.4540 ca        1 YIS     -0.094000
     31 C31        -5.1600   14.0720    1.4900 ca        1 YIS     -0.137000
     32 C32        -4.4080   13.5860    0.4150 ca        1 YIS      0.012900
     33 S33        -2.7030   13.5850    0.4290 ss        1 YIS     -0.243000
     34 C34        -2.2440   14.9150    1.5090 c3        1 YIS     -0.059300
     35 C35        -0.8230   15.3130    1.1560 c3        1 YIS      0.136400
     36 O36         0.1190   14.7790    2.0660 oh        1 YIS     -0.612800
     37 N37        -3.3740   11.5770   -1.8810 na        1 YIS     -0.090200
     38 C38        -2.7690   10.8250   -0.9120 cd        1 YIS      0.054700
     39 N39         3.0600    2.9630   -1.7430 na        1 YIS      0.165300
     40 N40         3.1030    1.6310   -1.6560 nd        1 YIS     -0.443800
     41 C41         3.5370    3.7020   -2.8650 ca        1 YIS     -0.042200
     42 C42         4.8380    3.4850   -3.3620 ca        1 YIS     -0.058000
     43 C43         5.2930    4.2250   -4.4440 ca        1 YIS     -0.197000
     44 C44         4.4700    5.1900   -5.0480 ca        1 YIS      0.160100
     45 O45         4.8970    5.9630   -6.0930 oh        1 YIS     -0.468100
     46 C46         3.1580    5.3940   -4.5680 ca        1 YIS     -0.019600
     47 Cl          2.1150    6.5300   -5.2700 cl        1 YIS     -0.052400
     48 C48         2.6910    4.6330   -3.4970 ca        1 YIS     -0.124000
     49 H11C        0.5400   -0.4180   -0.9940 hc        1 YIS      0.045033
     50 H12C        1.9870   -0.9480   -1.9530 hc        1 YIS      0.045033
     51 H13C        1.4030   -1.9540   -0.5620 hc        1 YIS      0.045033
     52 H31C        0.8310    0.2910    1.4230 hc        1 YIS      0.045033
     53 H32C        2.4980    0.3710    2.1460 hc        1 YIS      0.045033
     54 H33C        1.7480   -1.2340    1.7640 hc        1 YIS      0.045033
     55 H41C        4.5140   -0.2400    0.7270 hc        1 YIS      0.045033
     56 H42C        4.2650   -0.8490   -0.9660 hc        1 YIS      0.045033
     57 H43C        3.7260   -1.8500    0.4460 hc        1 YIS      0.045033
     58 H6          1.7610    2.4940    1.2910 ha        1 YIS      0.185000
     59 H8          3.2660    5.3980   -0.1150 hn        1 YIS      0.345500
     60 H11         0.3640    7.4770   -0.8900 hn        1 YIS      0.473300
     61 H121        0.3710    7.0100    1.4530 hx        1 YIS      0.108700
     62 H122        2.2040    7.0600    1.4480 hx        1 YIS      0.108700
     63 H14         3.1190    9.0110    2.2190 ha        1 YIS      0.141000
     64 H15         3.0610   11.4690    2.5940 ha        1 YIS      0.160000
     65 H16         1.1250   12.8230    1.7460 ha        1 YIS      0.187000
     66 H17        -0.7350   11.7070    0.5370 ha        1 YIS      0.165000
     67 H21        -0.6400    9.0020   -2.8750 ha        1 YIS      0.133000
     68 H38        -3.0960   10.9990    0.1350 h4        1 YIS      0.199000
     69 H22        -1.7420   10.3720   -4.6850 ha        1 YIS      0.181000
     70 H28        -7.0060   12.6620   -1.6270 ha        1 YIS      0.160000
     71 H29        -8.3180   13.5420    0.3040 ha        1 YIS      0.152000
     72 H30        -7.1260   14.4500    2.3080 ha        1 YIS      0.148000
     73 H31        -4.6500   14.4730    2.3800 ha        1 YIS      0.138000
     74 H341       -2.3070   14.5900    2.5750 h1        1 YIS      0.082200
     75 H342       -2.9380   15.7790    1.3670 h1        1 YIS      0.082200
     76 H351       -0.7370   16.4330    1.1210 h1        1 YIS      0.070200
     77 H352       -0.5180   14.8930    0.1560 h1        1 YIS      0.070200
     78 H36        -0.0070   15.2240    2.9120 ho        1 YIS      0.410000
     79 H42         5.4930    2.7230   -2.9070 ha        1 YIS      0.170000
     80 H48         1.6410    4.7430   -3.1720 ha        1 YIS      0.156000
     81 H43         6.3060    4.0500   -4.8390 ha        1 YIS      0.161000
     82 H45         5.7690    5.6410   -6.3770 ho        1 YIS      0.440000
     83 H112        2.0510    7.5440   -0.9590 hn        1 YIS      0.473300
@<TRIPOS>BOND
     1    1    2 1   
     2    1   49 1   
     3    1   50 1   
     4    1   51 1   
     5    2    3 1   
     6    2    4 1   
     7    2    5 1   
     8    3   52 1   
     9    3   53 1   
    10    3   54 1   
    11    4   55 1   
    12    4   56 1   
    13    4   57 1   
    14    5    6 1   
    15    5   40 2   
    16    6    7 2   
    17    6   58 1   
    18    7    8 1   
    19    7   39 1   
    20    8    9 1   
    21    8   59 1   
    22    9   10 2   
    23    9   11 1   
    24   11   12 1   
    25   11   60 1   
    26   11   83 1   
    27   12   13 1   
    28   12   61 1   
    29   12   62 1   
    30   13   14 ar  
    31   13   18 ar  
    32   14   15 ar  
    33   14   63 1   
    34   15   16 ar  
    35   15   64 1   
    36   16   17 ar  
    37   16   65 1   
    38   17   18 ar  
    39   17   66 1   
    40   18   19 1   
    41   19   20 1   
    42   20   21 1   
    43   20   38 2   
    44   21   22 2   
    45   21   67 1   
    46   22   23 1   
    47   22   69 1   
    48   23   24 2   
    49   23   37 1   
    50   24   25 1   
    51   25   26 2   
    52   26   27 1   
    53   26   37 1   
    54   27   28 ar  
    55   27   32 ar  
    56   28   29 ar  
    57   28   70 1   
    58   29   30 ar  
    59   29   71 1   
    60   30   31 ar  
    61   30   72 1   
    62   31   32 ar  
    63   31   73 1   
    64   32   33 1   
    65   33   34 1   
    66   34   35 1   
    67   34   74 1   
    68   34   75 1   
    69   35   36 1   
    70   35   76 1   
    71   35   77 1   
    72   36   78 1   
    73   37   38 1   
    74   38   68 1   
    75   39   40 1   
    76   39   41 1   
    77   41   42 ar  
    78   41   48 ar  
    79   42   43 ar  
    80   42   79 1   
    81   43   44 ar  
    82   43   81 1   
    83   44   45 1   
    84   44   46 ar  
    85   45   82 1   
    86   46   47 1   
    87   46   48 ar  
    88   48   80 1   
@<TRIPOS>SUBSTRUCTURE
     1 YIS         1 TEMP              0 ****  ****    0 ROOT
