@<TRIPOS>MOLECULE
YIS
   82    87     1     0     0
SMALL
bcc


@<TRIPOS>ATOM
      1 C1         -6.9430    4.5380   -2.3820 c3        1 YIS     -0.085100
      2 C2         -7.5810    4.0460   -1.0870 c3        1 YIS     -0.077300
      3 C3         -7.3070    5.0510    0.0280 c3        1 YIS     -0.085100
      4 C4         -9.0850    3.9250   -1.2890 c3        1 YIS     -0.085100
      5 C5         -6.9580    2.7360   -0.7140 cc        1 YIS      0.337600
      6 C6         -5.5350    2.5530   -0.4810 cc        1 YIS     -0.274300
      7 C7         -5.3890    1.1960   -0.1480 cd        1 YIS      0.020300
      8 N8         -4.2370    0.4690    0.1650 n         1 YIS     -0.429100
      9 C9         -3.1690    1.1140    0.8500 c         1 YIS      0.747100
     10 O10        -3.0640    2.3600    0.8740 o         1 YIS     -0.603100
     11 N11        -2.2230    0.2990    1.5000 n         1 YIS     -0.540900
     12 C12        -0.9830    0.9310    1.9020 c3        1 YIS      0.126300
     13 C13        -0.0950   -0.0040    2.6720 ca        1 YIS     -0.101300
     14 C14        -0.3850   -0.2640    4.0140 ca        1 YIS     -0.092000
     15 C15         0.4380   -1.1000    4.7670 ca        1 YIS     -0.137000
     16 C16         1.5600   -1.6790    4.1760 ca        1 YIS     -0.104000
     17 C17         1.8540   -1.4250    2.8380 ca        1 YIS     -0.139000
     18 C18         1.0320   -0.5920    2.0710 ca        1 YIS     -0.011100
     19 S19         1.3030   -0.2150    0.4350 ss        1 YIS     -0.088800
     20 C20         2.6850   -1.0700   -0.0530 cc        1 YIS     -0.102100
     21 C21         2.7120   -2.4990   -0.1370 cc        1 YIS     -0.096000
     22 C22         3.7850   -3.1600   -0.6630 cd        1 YIS     -0.088000
     23 C23         4.9000   -2.3990   -1.1420 cd        1 YIS     -0.069300
     24 N24         6.1040   -2.7410   -1.7170 nc        1 YIS     -0.079000
     25 N25         6.7810   -1.6530   -1.9750 nc        1 YIS     -0.310700
     26 C26         6.0810   -0.5330   -1.5930 cd        1 YIS      0.343400
     27 C27         6.4650    0.8680   -1.7210 ca        1 YIS     -0.103900
     28 C28         5.6050    1.7520   -2.3830 ca        1 YIS     -0.100000
     29 C29         5.9450    3.0950   -2.5200 ca        1 YIS     -0.145000
     30 C30         7.1530    3.5570   -1.9960 ca        1 YIS     -0.093000
     31 C31         8.0140    2.6810   -1.3430 ca        1 YIS     -0.152000
     32 C32         7.6910    1.3250   -1.1920 ca        1 YIS      0.031900
     33 S33         8.6830    0.1910   -0.4260 ss        1 YIS     -0.108000
     34 C34         9.9580    1.1380    0.3410 c3        1 YIS     -0.067300
     35 C35        10.7670    0.1630    1.1740 c3        1 YIS      0.143400
     36 O36        11.8130    0.9140    1.7730 oh        1 YIS     -0.599800
     37 N37         4.8510   -0.9680   -1.0480 na        1 YIS     -0.079200
     38 C38         3.7680   -0.3330   -0.4950 cd        1 YIS      0.007700
     39 N39        -6.7150    0.6420   -0.1500 na        1 YIS      0.120300
     40 N40        -7.6210    1.5640   -0.5400 nd        1 YIS     -0.496800
     41 C41        -7.0030   -0.7520   -0.1410 ca        1 YIS     -0.014200
     42 C42        -8.0580   -1.2360    0.6660 ca        1 YIS     -0.072000
     43 C43        -8.3350   -2.5920    0.7120 ca        1 YIS     -0.145000
     44 C44        -7.5680   -3.4980   -0.0440 ca        1 YIS      0.139100
     45 O45        -7.9070   -4.8200    0.0830 oh        1 YIS     -0.485100
     46 C46        -6.5300   -3.0200   -0.8610 ca        1 YIS     -0.067600
     47 CL         -5.5940   -4.0870   -1.8000 cl        1 YIS     -0.085400
     48 C48        -6.2590   -1.6510   -0.9250 ca        1 YIS     -0.113000
     49 H11C       -5.8370    4.6320   -2.2600 hc        1 YIS      0.039589
     50 H12C       -7.1530    3.8240   -3.2130 hc        1 YIS      0.039589
     51 H13C       -7.3610    5.5370   -2.6530 hc        1 YIS      0.039589
     52 H31C       -7.7220    6.0490   -0.2520 hc        1 YIS      0.039589
     53 H32C       -7.7880    4.7170    0.9780 hc        1 YIS      0.039589
     54 H33C       -6.2080    5.1520    0.1990 hc        1 YIS      0.039589
     55 H41C       -9.3150    3.1980   -2.1040 hc        1 YIS      0.039589
     56 H42C       -9.5810    3.5800   -0.3500 hc        1 YIS      0.039589
     57 H43C       -9.5070    4.9200   -1.5690 hc        1 YIS      0.039589
     58 H6         -4.7540    3.3070   -0.5210 ha        1 YIS      0.193000
     59 H8         -4.3810   -0.5020    0.3540 hn        1 YIS      0.311500
     60 H11        -2.1430   -0.6510    1.2160 hn        1 YIS      0.301500
     61 H121       -0.4320    1.3390    1.0000 h1        1 YIS      0.069200
     62 H122       -1.2480    1.8190    2.5500 h1        1 YIS      0.069200
     63 H14        -1.2720    0.2000    4.4740 ha        1 YIS      0.145000
     64 H15         0.2030   -1.2980    5.8230 ha        1 YIS      0.139000
     65 H16         2.2180   -2.3360    4.7640 ha        1 YIS      0.138000
     66 H17         2.7440   -1.8860    2.3810 ha        1 YIS      0.141000
     67 H21         1.8360   -3.0570    0.2310 ha        1 YIS      0.155000
     68 H38         3.8140    0.7720   -0.4430 h4        1 YIS      0.189000
     69 H22         3.8360   -4.2560   -0.7430 ha        1 YIS      0.171000
     70 H28         4.6610    1.3790   -2.8080 ha        1 YIS      0.137000
     71 H29         5.2670    3.7850   -3.0420 ha        1 YIS      0.140000
     72 H30         7.4290    4.6170   -2.1020 ha        1 YIS      0.138000
     73 H31         8.9660    3.0660   -0.9470 ha        1 YIS      0.140000
     74 H341       10.6230    1.6250   -0.4140 h1        1 YIS      0.080700
     75 H342        9.5460    1.9440    0.9960 h1        1 YIS      0.080700
     76 H351       10.1290   -0.3030    1.9730 h1        1 YIS      0.038700
     77 H352       11.1980   -0.6480    0.5260 h1        1 YIS      0.038700
     78 H36        12.3560    0.2850    2.2620 ho        1 YIS      0.405000
     79 H42        -8.6700   -0.5330    1.2560 ha        1 YIS      0.165000
     80 H48        -5.4720   -1.2880   -1.6070 ha        1 YIS      0.165000
     81 H43        -9.1540   -2.9820    1.3360 ha        1 YIS      0.164000
     82 H45        -7.3470   -5.3420   -0.5150 ho        1 YIS      0.433000
@<TRIPOS>BOND
     1    1    2 1   
     2    1   49 1   
     3    1   50 1   
     4    1   51 1   
     5    2    3 1   
     6    2    4 1   
     7    2    5 1   
     8    3   52 1   
     9    3   53 1   
    10    3   54 1   
    11    4   55 1   
    12    4   56 1   
    13    4   57 1   
    14    5    6 1   
    15    5   40 2   
    16    6    7 2   
    17    6   58 1   
    18    7    8 1   
    19    7   39 1   
    20    8    9 1   
    21    8   59 1   
    22    9   10 2   
    23    9   11 1   
    24   11   12 1   
    25   11   60 1   
    26   12   13 1   
    27   12   61 1   
    28   12   62 1   
    29   13   14 ar  
    30   13   18 ar  
    31   14   15 ar  
    32   14   63 1   
    33   15   16 ar  
    34   15   64 1   
    35   16   17 ar  
    36   16   65 1   
    37   17   18 ar  
    38   17   66 1   
    39   18   19 1   
    40   19   20 1   
    41   20   21 1   
    42   20   38 2   
    43   21   22 2   
    44   21   67 1   
    45   22   23 1   
    46   22   69 1   
    47   23   24 2   
    48   23   37 1   
    49   24   25 1   
    50   25   26 2   
    51   26   27 1   
    52   26   37 1   
    53   27   28 ar  
    54   27   32 ar  
    55   28   29 ar  
    56   28   70 1   
    57   29   30 ar  
    58   29   71 1   
    59   30   31 ar  
    60   30   72 1   
    61   31   32 ar  
    62   31   73 1   
    63   32   33 1   
    64   33   34 1   
    65   34   35 1   
    66   34   74 1   
    67   34   75 1   
    68   35   36 1   
    69   35   76 1   
    70   35   77 1   
    71   36   78 1   
    72   37   38 1   
    73   38   68 1   
    74   39   40 1   
    75   39   41 1   
    76   41   42 ar  
    77   41   48 ar  
    78   42   43 ar  
    79   42   79 1   
    80   43   44 ar  
    81   43   81 1   
    82   44   45 1   
    83   44   46 ar  
    84   45   82 1   
    85   46   47 1   
    86   46   48 ar  
    87   48   80 1   
@<TRIPOS>SUBSTRUCTURE
     1 YIS         1 TEMP              0 ****  ****    0 ROOT
