@<TRIPOS>MOLECULE
YIS
   84    89     1     0     0
SMALL
bcc


@<TRIPOS>ATOM
      1 C1          3.0850    2.3440    2.2380 c3        1 YIS     -0.093767
      2 C2          4.1710    3.1490    1.5330 c3        1 YIS     -0.082300
      3 C3          4.4060    4.4510    2.2890 c3        1 YIS     -0.093767
      4 C4          5.4660    2.3440    1.5060 c3        1 YIS     -0.093767
      5 C5          3.7400    3.4490    0.1270 cc        1 YIS      0.344600
      6 C6          3.5630    4.7540   -0.4540 cc        1 YIS     -0.200300
      7 C7          3.1580    4.4970   -1.7880 cd        1 YIS     -0.187700
      8 N8          2.8980    5.4460   -2.8370 n4        1 YIS     -0.477200
      9 C9          1.6340    6.2860   -2.6250 c         1 YIS      0.645100
     10 O10         1.6870    7.4100   -3.1470 o         1 YIS     -0.540100
     11 N11         0.5700    5.7320   -1.9740 n         1 YIS     -0.502900
     12 C12        -0.6550    6.4910   -1.8110 c3        1 YIS      0.125300
     13 C13        -0.7110    7.3590   -0.5830 ca        1 YIS     -0.077300
     14 C14        -0.6940    6.7290    0.6590 ca        1 YIS     -0.120000
     15 C15        -0.8010    7.4710    1.8410 ca        1 YIS     -0.050000
     16 C16        -0.9330    8.8550    1.7760 ca        1 YIS     -0.101000
     17 C17        -0.9520    9.4890    0.5320 ca        1 YIS     -0.034000
     18 C18        -0.8460    8.7630   -0.6590 ca        1 YIS     -0.109500
     19 S19        -1.0250    9.5150   -2.1660 s4        1 YIS      0.086000
     20 C20        -0.8080   11.1450   -1.9750 cc        1 YIS     -0.225500
     21 C21         0.4230   11.7870   -2.3630 cc        1 YIS     -0.112000
     22 C22         0.5610   13.1410   -2.3470 cd        1 YIS     -0.041000
     23 C23        -0.5440   13.9500   -1.9160 cd        1 YIS     -0.057300
     24 N24        -0.7300   15.2880   -1.7610 nc        1 YIS     -0.012000
     25 N25        -1.9480   15.5120   -1.3000 nc        1 YIS     -0.288700
     26 C26        -2.6360   14.3480   -1.1210 cd        1 YIS      0.422400
     27 C27        -4.0040   14.1900   -0.6410 ca        1 YIS     -0.117900
     28 C28        -4.9910   15.0060   -1.2120 ca        1 YIS     -0.067000
     29 C29        -6.3060   14.9370   -0.7530 ca        1 YIS     -0.109000
     30 C30        -6.6400   14.0510    0.2700 ca        1 YIS     -0.085000
     31 C31        -5.6600   13.2340    0.8340 ca        1 YIS     -0.123000
     32 C32        -4.3350   13.2970    0.3930 ca        1 YIS      0.015900
     33 S33        -3.1300   12.2800    1.0620 ss        1 YIS     -0.330000
     34 C34        -3.4570   12.2310    2.8150 c3        1 YIS     -0.000300
     35 C35        -2.2140   12.5830    3.6020 c3        1 YIS      0.134400
     36 O36        -1.4130   11.4120    3.7130 oh        1 YIS     -0.637800
     37 N37        -1.7730   13.2800   -1.5180 na        1 YIS     -0.109200
     38 C38        -1.8790   11.9330   -1.5440 cd        1 YIS      0.144700
     39 N39         3.1010    3.0820   -1.9360 na        1 YIS      0.222300
     40 N40         3.4600    2.4810   -0.8090 nd        1 YIS     -0.405800
     41 C41         2.8840    2.4200   -3.1860 ca        1 YIS     -0.103200
     42 C42         3.7970    1.4500   -3.6430 ca        1 YIS     -0.034000
     43 C43         3.5700    0.8150   -4.8570 ca        1 YIS     -0.194000
     44 C44         2.4390    1.1260   -5.6300 ca        1 YIS      0.191100
     45 O45         2.1880    0.5410   -6.8340 oh        1 YIS     -0.449100
     46 C46         1.5080    2.0870   -5.1620 ca        1 YIS     -0.009600
     47 CL          0.1210    2.4880   -6.0400 cl        1 YIS     -0.017400
     48 C48         1.7280    2.7130   -3.9370 ca        1 YIS     -0.139000
     49 H11C        2.9290    1.3610    1.7320 hc        1 YIS      0.051033
     50 H12C        2.1210    2.9060    2.2460 hc        1 YIS      0.051033
     51 H13C        3.3930    2.1500    3.2950 hc        1 YIS      0.051033
     52 H31C        3.4710    5.0590    2.3320 hc        1 YIS      0.051033
     53 H32C        5.2110    5.0520    1.8010 hc        1 YIS      0.051033
     54 H33C        4.7250    4.2190    3.3350 hc        1 YIS      0.051033
     55 H41C        5.3060    1.3560    1.0110 hc        1 YIS      0.051033
     56 H42C        6.2630    2.9000    0.9590 hc        1 YIS      0.051033
     57 H43C        5.8120    2.1620    2.5530 hc        1 YIS      0.051033
     58 H6          3.7190    5.7140    0.0320 ha        1 YIS      0.194000
     59 H8          3.6930    6.1060   -2.8950 hn        1 YIS      0.490800
     60 H11         0.1450    9.2070   -2.6890 hs        1 YIS      0.334000
     61 H121       -1.4900    5.7260   -1.7460 h1        1 YIS      0.093700
     62 H122       -0.8190    7.0990   -2.7480 h1        1 YIS      0.093700
     63 H14        -0.6150    5.6300    0.7190 ha        1 YIS      0.152000
     64 H15        -0.7910    6.9570    2.8170 ha        1 YIS      0.175000
     65 H16        -1.0330    9.4630    2.6970 ha        1 YIS      0.203000
     66 H17        -1.0670   10.5910    0.5080 ha        1 YIS      0.173000
     67 H21         1.2680   11.1570   -2.6840 ha        1 YIS      0.151000
     68 H38        -2.8530   11.4960   -1.2200 h4        1 YIS      0.204000
     69 H22         1.4880   13.6570   -2.6470 ha        1 YIS      0.199000
     70 H28        -4.7230   15.7160   -2.0120 ha        1 YIS      0.168000
     71 H29        -7.0760   15.5890   -1.1970 ha        1 YIS      0.166000
     72 H30        -7.6780   13.9930    0.6360 ha        1 YIS      0.161000
     73 H31        -5.9390   12.5320    1.6360 ha        1 YIS      0.148000
     74 H341       -3.7910   11.1940    3.0650 h1        1 YIS      0.095700
     75 H342       -4.2750   12.9470    3.0740 h1        1 YIS      0.095700
     76 H351       -1.6210   13.3870    3.0880 h1        1 YIS      0.058700
     77 H352       -2.5130   12.9420    4.6260 h1        1 YIS      0.058700
     78 H36        -0.7920   11.5700    4.4340 ho        1 YIS      0.422000
     79 H42         4.6860    1.1790   -3.0470 ha        1 YIS      0.179000
     80 H48         0.9590    3.3980   -3.5480 ha        1 YIS      0.134000
     81 H43         4.2820    0.0510   -5.2130 ha        1 YIS      0.177000
     82 H45         2.8680   -0.1340   -7.0080 ho        1 YIS      0.454000
     83 H82         2.8050    4.9610   -3.7480 hn        1 YIS      0.490800
     84 H112        0.6810    4.8980   -1.4330 hn        1 YIS      0.367500
@<TRIPOS>BOND
     1    1    2 1   
     2    1   49 1   
     3    1   50 1   
     4    1   51 1   
     5    2    3 1   
     6    2    4 1   
     7    2    5 1   
     8    3   52 1   
     9    3   53 1   
    10    3   54 1   
    11    4   55 1   
    12    4   56 1   
    13    4   57 1   
    14    5    6 1   
    15    5   40 2   
    16    6    7 2   
    17    6   58 1   
    18    7    8 1   
    19    7   39 1   
    20    8    9 1   
    21    8   59 1   
    22    8   83 1   
    23    9   10 2   
    24    9   11 1   
    25   11   12 1   
    26   11   84 1   
    27   12   13 1   
    28   12   61 1   
    29   12   62 1   
    30   13   14 ar  
    31   13   18 ar  
    32   14   15 ar  
    33   14   63 1   
    34   15   16 ar  
    35   15   64 1   
    36   16   17 ar  
    37   16   65 1   
    38   17   18 ar  
    39   17   66 1   
    40   18   19 1   
    41   19   20 1   
    42   19   60 1   
    43   20   21 1   
    44   20   38 2   
    45   21   22 2   
    46   21   67 1   
    47   22   23 1   
    48   22   69 1   
    49   23   24 2   
    50   23   37 1   
    51   24   25 1   
    52   25   26 2   
    53   26   27 1   
    54   26   37 1   
    55   27   28 ar  
    56   27   32 ar  
    57   28   29 ar  
    58   28   70 1   
    59   29   30 ar  
    60   29   71 1   
    61   30   31 ar  
    62   30   72 1   
    63   31   32 ar  
    64   31   73 1   
    65   32   33 1   
    66   33   34 1   
    67   34   35 1   
    68   34   74 1   
    69   34   75 1   
    70   35   36 1   
    71   35   76 1   
    72   35   77 1   
    73   36   78 1   
    74   37   38 1   
    75   38   68 1   
    76   39   40 1   
    77   39   41 1   
    78   41   42 ar  
    79   41   48 ar  
    80   42   43 ar  
    81   42   79 1   
    82   43   44 ar  
    83   43   81 1   
    84   44   45 1   
    85   44   46 ar  
    86   45   82 1   
    87   46   47 1   
    88   46   48 ar  
    89   48   80 1   
@<TRIPOS>SUBSTRUCTURE
     1 YIS         1 TEMP              0 ****  ****    0 ROOT
