@<TRIPOS>MOLECULE
YIS
   82    74     1     0     0
SMALL
bcc


@<TRIPOS>ATOM
      1 C1          3.5410   -7.5840    5.4570 c3        1 YIS     -0.203000
      2 C2          2.5340   -6.8240    4.5810 c3        1 YIS      0.018000
      3 C3          2.6630   -7.2950    3.1250 c3        1 YIS     -0.203000
      4 C4          1.1070   -7.0990    5.0840 c3        1 YIS     -0.203000
      5 C5          2.8250   -5.3010    4.6600 c2        1 YIS     -0.085000
      6 C6          2.2690   -4.3320    3.8610 c1        1 YIS     -0.212000
      7 C7          2.8550   -3.1320    4.1820 c1        1 YIS      0.056000
      8 N8          2.5070   -1.8420    3.6280 n2        1 YIS     -0.285000
      9 C9          1.4790   -1.7420    2.6220 c2        1 YIS      0.372000
     10 O10         0.9040   -2.7430    2.2400 o         1 YIS     -0.369000
     11 N11         1.0850   -0.4480    2.1200 n         1 YIS     -0.330000
     12 C12         0.5550   -0.3240    0.7820 c3        1 YIS     -0.011000
     13 C13        -0.6500    0.6260    0.7940 c2        1 YIS     -0.120000
     14 C14        -1.4940    0.6650    1.8970 c2        1 YIS     -0.096000
     15 C15        -2.5840    1.5300    1.9100 c1        1 YIS     -0.135000
     16 C16        -2.8290    2.3570    0.8170 c1        1 YIS     -0.122000
     17 C17        -1.9830    2.3190   -0.2880 c1        1 YIS     -0.122000
     18 C18        -0.8950    1.4550   -0.3000 c1        1 YIS     -0.238000
     19 S19         0.1610    1.3650   -1.7460 ss        1 YIS      0.356000
     20 C20        -0.6680    2.1260   -3.1400 c2        1 YIS     -0.325000
     21 C21        -0.6330    0.9710   -3.8800 c2        1 YIS     -0.094000
     22 C22        -1.0470    0.9830   -5.1880 c1        1 YIS     -0.090000
     23 C23        -1.5100    2.1830   -5.7710 c1        1 YIS     -0.045000
     24 N24        -2.0020    2.4640   -7.0100 n1        1 YIS     -0.080000
     25 N25        -2.3390    3.7780   -7.0400 n2        1 YIS     -0.033000
     26 C26        -2.0580    4.3100   -5.8280 c2        1 YIS     -0.072000
     27 C27        -2.5840    5.3630   -6.6010 c1        1 YIS     -0.005000
     28 C28        -1.7400    6.1260   -7.4020 c1        1 YIS     -0.122000
     29 C29        -2.2630    7.1520   -8.1830 c1        1 YIS     -0.122000
     30 C30        -3.6290    7.4160   -8.1620 c1        1 YIS     -0.122000
     31 C31        -4.4720    6.6530   -7.3600 c1        1 YIS     -0.122000
     32 C32        -3.9500    5.6270   -6.5800 c1        1 YIS     -0.211000
     33 S33        -5.0300    4.6550   -5.5460 ss        1 YIS      0.214000
     34 C34        -6.5340    4.2890   -6.4340 c3        1 YIS     -0.302000
     35 C35        -7.0310    2.8970   -6.0420 c3        1 YIS     -0.008000
     36 O36        -7.8670    2.3900   -7.0650 oh        1 YIS     -0.326000
     37 N37        -1.5430    3.3200   -5.0410 n2        1 YIS     -0.081000
     38 C38        -1.1240    3.3090   -3.7170 c1        1 YIS      0.031000
     39 N39         3.7620   -3.3590    5.1670 n3        1 YIS     -0.119000
     40 N40         3.7430   -4.7060    5.4630 n2        1 YIS     -0.065000
     41 C41         4.5530   -2.4190    5.7600 c1        1 YIS      0.033000
     42 C42         5.8160   -2.1460    5.2430 c1        1 YIS     -0.122000
     43 C43         6.6200   -1.1840    5.8450 c1        1 YIS     -0.122000
     44 C44         6.1630   -0.4940    6.9640 c1        1 YIS      0.089000
     45 O45         6.9290    0.5680    7.5000 oh        1 YIS     -0.233000
     46 C46         4.9000   -0.7680    7.4800 c1        1 YIS     -0.087000
     47 CL          4.2950    0.1500    8.8380 cl        1 YIS      0.019000
     48 C48         4.0960   -1.7310    6.8780 c2        1 YIS     -0.123000
     49 H11C        3.4510   -7.2900    6.3900 hc        1 YIS      0.078889
     50 H12C        3.3620   -8.5500    5.3980 hc        1 YIS      0.078889
     51 H13C        4.4540   -7.4000    5.1420 hc        1 YIS      0.078889
     52 H31C        1.9360   -6.9080    2.5890 hc        1 YIS      0.078889
     53 H32C        3.5280   -7.0030    2.7620 hc        1 YIS      0.078889
     54 H33C        2.6080   -8.2770    3.0920 hc        1 YIS      0.078889
     55 H41C        0.4570   -6.7100    4.4570 hc        1 YIS      0.078889
     56 H42C        0.9880   -6.6950    5.9710 hc        1 YIS      0.078889
     57 H43C        0.9620   -8.0720    5.1450 hc        1 YIS      0.078889
     58 H6          1.5850   -4.4730    3.1750 DU        1 YIS      0.193000
     59 H8          2.9600   -1.0910    3.8960 hn        1 YIS      0.227000
     60 H11         1.2130    0.3010    2.6340 hn        1 YIS      0.209000
     61 H121        0.2730   -1.2070    0.4590 h1        1 YIS      0.125000
     62 H122        1.2490    0.0350    0.1880 h1        1 YIS      0.125000
     63 H14        -1.3220    0.0830    2.6660 ha        1 YIS      0.160000
     64 H15        -3.1800    1.5570    2.6890 ha        1 YIS      0.139000
     65 H16        -3.5970    2.9670    0.8260 ha        1 YIS      0.145000
     66 H17        -2.1550    2.9000   -1.0560 ha        1 YIS      0.145000
     67 H21        -0.2410    0.1570   -3.4990 ha        1 YIS      0.158000
     68 H38        -1.0910    4.1470   -3.2070 ha        1 YIS      0.197000
     69 H22        -1.0230    0.1570   -5.7190 ha        1 YIS      0.171000
     70 H28        -0.7770    5.9410   -7.4170 ha        1 YIS      0.145000
     71 H29        -1.6680    7.6910   -8.7480 ha        1 YIS      0.145000
     72 H30        -3.9970    8.1410   -8.7130 ha        1 YIS      0.145000
     73 H31        -5.4360    6.8390   -7.3460 ha        1 YIS      0.145000
     74 H341       -7.2180    4.9570   -6.2080 h1        1 YIS      0.124000
     75 H342       -6.3580    4.3140   -7.3990 h1        1 YIS      0.124000
     76 H351       -7.5390    2.9550   -5.2030 h1        1 YIS      0.077500
     77 H352       -6.2630    2.2980   -5.9200 h1        1 YIS      0.077500
     78 H36        -8.5660    1.9760   -6.6990 ho        1 YIS      0.206000
     79 H42         6.1390   -2.6320    4.4540 ha        1 YIS      0.145000
     80 H48         3.2060   -1.9240    7.2430 ha        1 YIS      0.165000
     81 H43         7.5110   -0.9910    5.4800 ha        1 YIS      0.145000
     82 H45         7.6480    0.2380    7.9070 ho        1 YIS      0.225000
@<TRIPOS>BOND
     1    1    2 1   
     2    1   49 1   
     3    1   50 1   
     4    1   51 1   
     5    2    3 1   
     6    2    4 1   
     7    2    5 1   
     8    3   52 1   
     9    3   53 1   
    10    3   54 1   
    11    4   55 1   
    12    4   56 1   
    13    4   57 1   
    14    5    6 1   
    15    5   40 1   
    16    6    7 1   
    17    7   39 1   
    18    8    9 1   
    19    8   59 1   
    20    9   10 1   
    21    9   11 1   
    22   11   12 1   
    23   11   60 1   
    24   12   13 1   
    25   12   61 1   
    26   12   62 1   
    27   13   14 1   
    28   13   18 1   
    29   14   15 1   
    30   14   63 1   
    31   15   64 1   
    32   16   17 1   
    33   16   65 1   
    34   17   66 1   
    35   18   19 1   
    36   19   20 1   
    37   20   21 1   
    38   20   38 1   
    39   21   22 1   
    40   21   67 1   
    41   22   69 1   
    42   23   37 1   
    43   24   25 1   
    44   25   26 1   
    45   26   27 1   
    46   26   37 1   
    47   27   32 1   
    48   28   29 1   
    49   28   70 1   
    50   29   71 1   
    51   30   31 1   
    52   30   72 1   
    53   31   73 1   
    54   32   33 1   
    55   33   34 1   
    56   34   35 1   
    57   34   74 1   
    58   34   75 1   
    59   35   36 1   
    60   35   76 1   
    61   35   77 1   
    62   36   78 1   
    63   38   68 1   
    64   39   40 1   
    65   39   41 1   
    66   41   48 1   
    67   42   43 1   
    68   42   79 1   
    69   43   81 1   
    70   44   45 1   
    71   44   46 1   
    72   45   82 1   
    73   46   48 1   
    74   48   80 1   
@<TRIPOS>SUBSTRUCTURE
     1 YIS         1 TEMP              0 ****  ****    0 ROOT
