@<TRIPOS>MOLECULE
YIT
   53    55     1     0     0
SMALL
bcc


@<TRIPOS>ATOM
      1 NAA        -3.6820   -0.4300   -0.7220 na        1 YIT     -0.173400
      2 CAI        -5.0670   -0.5030   -0.4840 ca        1 YIT     -0.070200
      3 CAH        -6.0660   -1.2120   -1.1620 ca        1 YIT     -0.112000
      4 CAG        -7.3590   -1.1680   -0.6600 ca        1 YIT     -0.168000
      5 CAL        -7.6570   -0.4320    0.5060 ca        1 YIT      0.099100
      6 OBB        -8.9230   -0.3500    1.0610 os        1 YIT     -0.327900
      7 CAO        -9.9530   -1.0670    0.3940 c3        1 YIT      0.113700
      8 CAK        -6.6750    0.2860    1.2010 ca        1 YIT     -0.105000
      9 CAJ        -5.3770    0.2590    0.7040 ca        1 YIT     -0.079800
     10 CAN        -4.1360    0.8710    1.1330 cc        1 YIT     -0.091200
     11 CAM        -3.1520    0.4730    0.2330 cd        1 YIT     -0.153300
     12 CAP        -1.7260    0.8820    0.2840 c         1 YIT      0.696300
     13 OBC        -1.4130    2.0210    0.6740 o         1 YIT     -0.568100
     14 NAB        -0.8000   -0.0700   -0.1310 n         1 YIT     -0.468100
     15 CAQ         0.5980    0.0750   -0.1380 ca        1 YIT      0.071600
     16 CAV         1.3950   -1.0890   -0.2700 ca        1 YIT     -0.172000
     17 CAU         2.7800   -0.9940   -0.3210 ca        1 YIT     -0.082000
     18 CAR         1.2440    1.3270   -0.0560 ca        1 YIT     -0.172000
     19 CAS         2.6310    1.4030   -0.1100 ca        1 YIT     -0.082000
     20 CAT         3.4140    0.2520   -0.2460 ca        1 YIT     -0.144900
     21 CAW         4.8860    0.3610   -0.3180 ce        1 YIT      0.400900
     22 CAX         5.4060    1.4310   -1.2390 c3        1 YIT     -0.152700
     23 CAZ         5.9760    2.6180   -0.4880 c3        1 YIT     -0.081400
     24 CBA         6.4000    3.7070   -1.4410 c3        1 YIT     -0.095100
     25 NAC         5.5980   -0.4760    0.3980 n2        1 YIT     -0.460400
     26 NAD         6.9320   -0.4080    0.4720 nh        1 YIT     -0.481300
     27 CAY         7.5880   -1.6660    0.8690 c2        1 YIT      0.771100
     28 NAF         8.5130   -2.1380    0.0780 n2        1 YIT     -0.866100
     29 NAE         7.2400   -2.1680    2.1560 nh        1 YIT     -0.912800
     30 HAA        -3.3110   -0.4850   -1.6390 hn        1 YIT      0.285700
     31 HAH        -5.8380   -1.7910   -2.0670 ha        1 YIT      0.138000
     32 HAG        -8.1540   -1.7180   -1.1850 ha        1 YIT      0.140000
     33 HAK        -6.9330    0.8480    2.1090 ha        1 YIT      0.158000
     34 HAF         9.0240   -2.9210    0.4200 hn        1 YIT      0.403400
     35 HAO1      -10.8600   -0.8570    1.0170 h1        1 YIT      0.043700
     36 HAO2      -10.0940   -0.6840   -0.6460 h1        1 YIT      0.043700
     37 HAO3       -9.7310   -2.1620    0.3820 h1        1 YIT      0.043700
     38 HAN        -4.0010    1.5190    1.9960 ha        1 YIT      0.175000
     39 HAB        -1.1270   -1.0050   -0.2430 hn        1 YIT      0.322500
     40 HAV         0.9280   -2.0830   -0.3320 ha        1 YIT      0.152000
     41 HAR         0.6590    2.2550    0.0590 ha        1 YIT      0.152000
     42 HAU         3.3790   -1.9130   -0.4200 ha        1 YIT      0.142000
     43 HAS         3.1160    2.3900   -0.0390 ha        1 YIT      0.142000
     44 HAX1        6.1950    1.0000   -1.9150 hc        1 YIT      0.057700
     45 HAX2        4.5700    1.7810   -1.9030 hc        1 YIT      0.057700
     46 HAZ1        5.2050    3.0180    0.2220 hc        1 YIT      0.049700
     47 HAZ2        6.8560    2.3000    0.1300 hc        1 YIT      0.049700
     48 HBA1        5.5300    4.0700   -2.0400 hc        1 YIT      0.035700
     49 HBA2        6.8240    4.5710   -0.8740 hc        1 YIT      0.035700
     50 HBA3        7.1800    3.3320   -2.1470 hc        1 YIT      0.035700
     51 HAD         7.4100    0.0230   -0.3120 hn        1 YIT      0.403800
     52 HAE1        6.4980   -1.6890    2.6190 hn        1 YIT      0.399800
     53 HAE2        7.1180   -3.1580    2.1690 hn        1 YIT      0.399800
@<TRIPOS>BOND
     1    1    2 1   
     2    1   11 1   
     3    1   30 1   
     4    2    3 ar  
     5    2    9 ar  
     6    3    4 ar  
     7    3   31 1   
     8    4    5 ar  
     9    4   32 1   
    10    5    6 1   
    11    5    8 ar  
    12    6    7 1   
    13    7   35 1   
    14    7   36 1   
    15    7   37 1   
    16    8    9 ar  
    17    8   33 1   
    18    9   10 1   
    19   10   11 2   
    20   10   38 1   
    21   11   12 1   
    22   12   13 2   
    23   12   14 1   
    24   14   15 1   
    25   14   39 1   
    26   15   16 ar  
    27   15   18 ar  
    28   16   17 ar  
    29   16   40 1   
    30   17   20 ar  
    31   17   42 1   
    32   18   19 ar  
    33   18   41 1   
    34   19   20 ar  
    35   19   43 1   
    36   20   21 1   
    37   21   22 1   
    38   21   25 2   
    39   22   23 1   
    40   22   44 1   
    41   22   45 1   
    42   23   24 1   
    43   23   46 1   
    44   23   47 1   
    45   24   48 1   
    46   24   49 1   
    47   24   50 1   
    48   25   26 1   
    49   26   27 1   
    50   26   51 1   
    51   27   28 2   
    52   27   29 1   
    53   28   34 1   
    54   29   52 1   
    55   29   53 1   
@<TRIPOS>SUBSTRUCTURE
     1 YIT         1 TEMP              0 ****  ****    0 ROOT
