@<TRIPOS>MOLECULE
YIT
   55    57     1     0     0
SMALL
bcc


@<TRIPOS>ATOM
      1 NAA        -0.1630    0.3310   -0.1100 na        1 YIT     -0.159400
      2 CAI         1.2520    0.2710    0.0040 ca        1 YIT     -0.073200
      3 CAH         2.0490    0.1080    1.1410 ca        1 YIT     -0.105000
      4 CAG         3.4240   -0.0030    0.9690 ca        1 YIT     -0.147000
      5 CAL         4.0020    0.0430   -0.3170 ca        1 YIT      0.121100
      6 OBB         5.3540   -0.0670   -0.5590 os        1 YIT     -0.316900
      7 CAO         6.1990   -0.2240    0.5780 c3        1 YIT      0.108700
      8 CAK         3.2200    0.2080   -1.4720 ca        1 YIT     -0.093000
      9 CAJ         1.8460    0.3300   -1.3090 ca        1 YIT     -0.099800
     10 CAN         0.7570    0.5180   -2.2450 cc        1 YIT      0.000800
     11 CAM        -0.4190    0.5610   -1.5000 cd        1 YIT     -0.232300
     12 CAP        -1.7530    0.6970   -2.0840 c         1 YIT      0.713300
     13 OBC        -1.9730    1.2700   -3.1570 o         1 YIT     -0.523100
     14 NAB        -2.8270    0.0830   -1.3580 ns        1 YIT     -0.428100
     15 CAQ        -4.1520    0.1120   -1.6610 ca        1 YIT      0.234600
     16 CAV        -5.0740   -0.6680   -0.8730 ca        1 YIT     -0.221000
     17 CAU        -6.4130   -0.6820   -1.1490 ca        1 YIT      0.006500
     18 CAR        -4.7180    0.8890   -2.7290 ca        1 YIT     -0.221000
     19 CAS        -6.0610    0.8670   -2.9870 ca        1 YIT      0.006500
     20 CAT        -6.9770    0.0820   -2.2180 ca        1 YIT     -0.284900
     21 CAW        -8.3540    0.0310   -2.5430 ce        1 YIT      0.600900
     22 CAX        -8.8820    0.8930   -3.6630 c3        1 YIT     -0.203700
     23 CAZ        -8.7670    0.1880   -5.0050 c3        1 YIT     -0.077400
     24 CBA        -9.3030    1.0540   -6.1150 c3        1 YIT     -0.107100
     25 NAC        -9.1590   -0.8240   -1.8430 n2        1 YIT     -0.744400
     26 NAD       -10.4510   -1.0720   -2.2280 ny        1 YIT     -0.361100
     27 CAY       -11.5430   -0.3370   -1.4120 c2        1 YIT      0.580100
     28 NAF       -12.5730    0.1050   -2.0050 n2        1 YIT     -0.639100
     29 NAE       -11.2090   -0.2350    0.0590 nz        1 YIT     -0.848600
     30 HAA        -0.6410    0.9140    0.5430 hn        1 YIT      0.262700
     31 HAH         1.6090    0.0660    2.1470 ha        1 YIT      0.148000
     32 HAG         4.0630   -0.1300    1.8570 ha        1 YIT      0.156000
     33 HAK         3.6940    0.2360   -2.4630 ha        1 YIT      0.170000
     34 HAF       -13.3380    0.5800   -1.5670 hn        1 YIT      0.516400
     35 HAO1        6.1170    0.6610    1.2550 h1        1 YIT      0.054367
     36 HAO2        7.2230   -0.2830    0.1270 h1        1 YIT      0.054367
     37 HAO3        5.9540   -1.1670    1.1240 h1        1 YIT      0.054367
     38 HAN         0.8460    0.5940   -3.3290 ha        1 YIT      0.183000
     39 HAB        -2.5560   -0.5080   -0.5930 hn        1 YIT      0.353500
     40 HAV        -4.6870   -1.2780   -0.0380 ha        1 YIT      0.189000
     41 HAR        -4.0580    1.5110   -3.3640 ha        1 YIT      0.189000
     42 HAU        -7.0640   -1.3140   -0.5220 ha        1 YIT      0.151000
     43 HAS        -6.4260    1.4670   -3.8390 ha        1 YIT      0.151000
     44 HAX1       -8.3140    1.8640   -3.7000 hc        1 YIT      0.078700
     45 HAX2       -9.9490    1.1970   -3.4860 hc        1 YIT      0.078700
     46 HAZ1       -7.6890   -0.0590   -5.2050 hc        1 YIT      0.052700
     47 HAZ2       -9.3260   -0.7840   -4.9770 hc        1 YIT      0.052700
     48 HBA1       -8.7320    2.0110   -6.1840 hc        1 YIT      0.059700
     49 HBA2       -9.2080    0.5190   -7.0930 hc        1 YIT      0.059700
     50 HBA3      -10.3810    1.2970   -5.9510 hc        1 YIT      0.059700
     51 HAD       -10.6030   -2.0830   -2.0370 hn        1 YIT      0.486300
     52 HAE1      -10.4370    0.4350    0.1910 hn        1 YIT      0.489133
     53 HAE2      -10.9080   -1.1500    0.4250 hn        1 YIT      0.489133
     54 HAD2      -10.6620   -0.8830   -3.2330 hn        1 YIT      0.486300
     55 HAE3      -12.0240    0.0840    0.5980 hn        1 YIT      0.489133
@<TRIPOS>BOND
     1    1    2 1   
     2    1   11 1   
     3    1   30 1   
     4    2    3 ar  
     5    2    9 ar  
     6    3    4 ar  
     7    3   31 1   
     8    4    5 ar  
     9    4   32 1   
    10    5    6 1   
    11    5    8 ar  
    12    6    7 1   
    13    7   35 1   
    14    7   36 1   
    15    7   37 1   
    16    8    9 ar  
    17    8   33 1   
    18    9   10 1   
    19   10   11 2   
    20   10   38 1   
    21   11   12 1   
    22   12   13 2   
    23   12   14 1   
    24   14   15 1   
    25   14   39 1   
    26   15   16 ar  
    27   15   18 ar  
    28   16   17 ar  
    29   16   40 1   
    30   17   20 ar  
    31   17   42 1   
    32   18   19 ar  
    33   18   41 1   
    34   19   20 ar  
    35   19   43 1   
    36   20   21 1   
    37   21   22 1   
    38   21   25 2   
    39   22   23 1   
    40   22   44 1   
    41   22   45 1   
    42   23   24 1   
    43   23   46 1   
    44   23   47 1   
    45   24   48 1   
    46   24   49 1   
    47   24   50 1   
    48   25   26 1   
    49   26   27 1   
    50   26   51 1   
    51   26   54 1   
    52   27   28 2   
    53   27   29 1   
    54   28   34 1   
    55   29   52 1   
    56   29   53 1   
    57   29   55 1   
@<TRIPOS>SUBSTRUCTURE
     1 YIT         1 TEMP              0 ****  ****    0 ROOT
