@<TRIPOS>MOLECULE
YIT
   56    58     1     0     0
SMALL
bcc


@<TRIPOS>ATOM
      1 NAA        -0.0670    0.6410   -0.0600 na        1 YIT     -0.155400
      2 CAI         1.3040    0.2590   -0.1400 ca        1 YIT     -0.049200
      3 CAH         2.4490    1.0180    0.1130 ca        1 YIT     -0.105000
      4 CAG         3.6900    0.4270   -0.1050 ca        1 YIT     -0.106000
      5 CAL         3.7990   -0.9040   -0.5680 ca        1 YIT      0.135100
      6 OBB         4.9900   -1.5410   -0.8070 os        1 YIT     -0.304900
      7 CAO         6.1880   -0.8090   -0.5430 c3        1 YIT      0.102700
      8 CAK         2.6610   -1.6860   -0.8260 ca        1 YIT     -0.075000
      9 CAJ         1.4130   -1.1070   -0.6060 ca        1 YIT     -0.126800
     10 CAN         0.0760   -1.6020   -0.7540 cc        1 YIT      0.101800
     11 CAM        -0.8000   -0.5570   -0.3890 cd        1 YIT     -0.313300
     12 CAP        -2.2150   -0.6380   -0.5280 c         1 YIT      0.605300
     13 OBC        -2.9560   -1.6050   -0.6470 o         1 YIT     -0.464100
     14 NAB        -2.9370    0.7450   -0.5430 n4        1 YIT     -0.574200
     15 CAQ        -4.3040    0.7030   -1.0560 ca        1 YIT      0.041600
     16 CAV        -5.3000   -0.0050   -0.3580 ca        1 YIT     -0.086000
     17 CAU        -6.6020   -0.0440   -0.8570 ca        1 YIT     -0.061000
     18 CAR        -4.6240    1.3650   -2.2570 ca        1 YIT     -0.086000
     19 CAS        -5.9310    1.3350   -2.7360 ca        1 YIT     -0.061000
     20 CAT        -6.9280    0.6330   -2.0380 ca        1 YIT     -0.179900
     21 CAW        -8.3130    0.6630   -2.5580 ce        1 YIT      0.625900
     22 CAX        -8.8280    2.0190   -2.9560 c3        1 YIT     -0.226700
     23 CAZ        -8.9920    2.1760   -4.4590 c3        1 YIT     -0.072400
     24 CBA        -9.4350    3.5790   -4.7950 c3        1 YIT     -0.112100
     25 NAC        -8.9690   -0.4830   -2.6330 n2        1 YIT     -0.624400
     26 NAD       -10.2770   -0.5350   -3.1500 n4        1 YIT     -0.428100
     27 CAY       -11.1160   -1.5940   -2.4330 c2        1 YIT      0.646100
     28 NAF       -12.2380   -1.2310   -1.9680 n2        1 YIT     -0.608100
     29 NAE       -10.4590   -2.9460   -2.3770 n4        1 YIT     -0.843600
     30 HAA        -0.3190    1.0710    0.8090 hn        1 YIT      0.256700
     31 HAH         2.3830    2.0560    0.4720 ha        1 YIT      0.166000
     32 HAG         4.6020    1.0170    0.0910 ha        1 YIT      0.176000
     33 HAK         2.7690   -2.7190   -1.1910 ha        1 YIT      0.183000
     34 HAF       -12.9090   -1.8110   -1.4960 hn        1 YIT      0.549400
     35 HAO1        6.2480    0.0920   -1.2000 h1        1 YIT      0.066033
     36 HAO2        6.2450   -0.5270    0.5360 h1        1 YIT      0.066033
     37 HAO3        6.9910   -1.5460   -0.8040 h1        1 YIT      0.066033
     38 HAN        -0.2150   -2.5930   -1.1140 ha        1 YIT      0.192000
     39 HAB        -2.3740    1.3880   -1.1180 hn        1 YIT      0.471800
     40 HAV        -5.0610   -0.5540    0.5720 ha        1 YIT      0.189500
     41 HAR        -3.8590    1.9170   -2.8340 ha        1 YIT      0.189500
     42 HAU        -7.3680   -0.5980   -0.2900 ha        1 YIT      0.168500
     43 HAS        -6.1680    1.8660   -3.6750 ha        1 YIT      0.168500
     44 HAX1       -8.1110    2.8110   -2.5900 hc        1 YIT      0.115700
     45 HAX2       -9.8030    2.2310   -2.4330 hc        1 YIT      0.115700
     46 HAZ1       -8.0170    1.9600   -4.9740 hc        1 YIT      0.039200
     47 HAZ2       -9.7460    1.4460   -4.8540 hc        1 YIT      0.039200
     48 HBA1       -9.5630    3.6810   -5.9020 hc        1 YIT      0.073367
     49 HBA2       -8.6760    4.3290   -4.4630 hc        1 YIT      0.073367
     50 HBA3      -10.4090    3.8230   -4.3050 hc        1 YIT      0.073367
     51 HAD       -10.2270   -0.8040   -4.1540 hn        1 YIT      0.494300
     52 HAE1      -11.1200   -3.6460   -2.0000 hn        1 YIT      0.502467
     53 HAE2      -10.1610   -3.2580   -3.3150 hn        1 YIT      0.502467
     54 HAB2       -2.9550    1.1030    0.4200 hn        1 YIT      0.471800
     55 HAD2      -10.7990    0.3730   -3.0920 hn        1 YIT      0.494300
     56 HAE3       -9.6280   -2.9120   -1.7610 hn        1 YIT      0.502467
@<TRIPOS>BOND
     1    1    2 1   
     2    1   11 1   
     3    1   30 1   
     4    2    3 ar  
     5    2    9 ar  
     6    3    4 ar  
     7    3   31 1   
     8    4    5 ar  
     9    4   32 1   
    10    5    6 1   
    11    5    8 ar  
    12    6    7 1   
    13    7   35 1   
    14    7   36 1   
    15    7   37 1   
    16    8    9 ar  
    17    8   33 1   
    18    9   10 1   
    19   10   11 2   
    20   10   38 1   
    21   11   12 1   
    22   12   13 2   
    23   12   14 1   
    24   14   15 1   
    25   14   39 1   
    26   14   54 1   
    27   15   16 ar  
    28   15   18 ar  
    29   16   17 ar  
    30   16   40 1   
    31   17   20 ar  
    32   17   42 1   
    33   18   19 ar  
    34   18   41 1   
    35   19   20 ar  
    36   19   43 1   
    37   20   21 1   
    38   21   22 1   
    39   21   25 2   
    40   22   23 1   
    41   22   44 1   
    42   22   45 1   
    43   23   24 1   
    44   23   46 1   
    45   23   47 1   
    46   24   48 1   
    47   24   49 1   
    48   24   50 1   
    49   25   26 1   
    50   26   27 1   
    51   26   51 1   
    52   26   55 1   
    53   27   28 2   
    54   27   29 1   
    55   28   34 1   
    56   29   52 1   
    57   29   53 1   
    58   29   56 1   
@<TRIPOS>SUBSTRUCTURE
     1 YIT         1 TEMP              0 ****  ****    0 ROOT
