@<TRIPOS>MOLECULE
YIV
   19    18     1     0     0
SMALL
bcc


@<TRIPOS>ATOM
      1 C          -0.1420    0.0000    0.1140 c         1 YIV      0.543900
      2 N           1.3530    0.0000   -0.0870 n4        1 YIV     -0.696800
      3 C1          2.1340    0.0000    1.1900 c3        1 YIV      0.097800
      4 O1         -0.5850   -0.0000    1.2430 o         1 YIV     -0.359100
      5 C2          3.6380    0.0000    0.9520 c3        1 YIV     -0.109400
      6 C3          4.3530    0.0000    2.2910 c3        1 YIV     -0.076400
      7 C4          5.8480    0.0000    2.0970 c3        1 YIV     -0.101100
      8 H1          1.8290    0.9140    1.7780 hx        1 YIV      0.115700
      9 H1A         1.8290   -0.9130    1.7780 hx        1 YIV      0.115700
     10 H2          3.9450   -0.9070    0.3680 hc        1 YIV      0.066700
     11 H2A         3.9450    0.9080    0.3680 hc        1 YIV      0.066700
     12 H3          4.0490   -0.9050    2.8810 hc        1 YIV      0.057700
     13 H3A         4.0490    0.9050    2.8810 hc        1 YIV      0.057700
     14 H4          6.1770   -0.9060    1.5330 hc        1 YIV      0.052700
     15 H4A         6.1760    0.9070    1.5330 hc        1 YIV      0.052700
     16 H4B         6.3590    0.0000    3.0910 hc        1 YIV      0.052700
     17 H          -0.6960    0.0000   -0.8540 hx        1 YIV      0.135200
     18 HN          1.6120   -0.8300   -0.6350 hn        1 YIV      0.462800
     19 HN3         1.6120    0.8300   -0.6350 hn        1 YIV      0.462800
@<TRIPOS>BOND
     1    1    2 1   
     2    1    4 2   
     3    1   17 1   
     4    2    3 1   
     5    2   18 1   
     6    2   19 1   
     7    3    5 1   
     8    3    8 1   
     9    3    9 1   
    10    5    6 1   
    11    5   10 1   
    12    5   11 1   
    13    6    7 1   
    14    6   12 1   
    15    6   13 1   
    16    7   14 1   
    17    7   15 1   
    18    7   16 1   
@<TRIPOS>SUBSTRUCTURE
     1 YIV         1 TEMP              0 ****  ****    0 ROOT
