@<TRIPOS>MOLECULE
YIV
   19    18     1     0     0
SMALL
bcc


@<TRIPOS>ATOM
      1 C          -0.1430    0.0020    0.1160 c         1 YIV      0.543900
      2 N           1.3520    0.0000   -0.0860 ny        1 YIV     -0.696800
      3 C1          2.1340    0.0010    1.1900 c3        1 YIV      0.097800
      4 O1         -0.5850    0.0030    1.2460 o         1 YIV     -0.359100
      5 C2          3.6370   -0.0010    0.9520 c3        1 YIV     -0.109400
      6 C3          4.3540    0.0010    2.2900 c3        1 YIV     -0.076400
      7 C4          5.8490   -0.0020    2.0940 c3        1 YIV     -0.101100
      8 H1          1.8310    0.9160    1.7770 hx        1 YIV      0.115700
      9 H1A         1.8280   -0.9110    1.7810 hx        1 YIV      0.115700
     10 H2          3.9430   -0.9100    0.3690 hc        1 YIV      0.066700
     11 H2A         3.9460    0.9050    0.3650 hc        1 YIV      0.066700
     12 H3          4.0490   -0.9030    2.8820 hc        1 YIV      0.057700
     13 H3A         4.0510    0.9070    2.8790 hc        1 YIV      0.057700
     14 H4          6.1760   -0.9100    1.5320 hc        1 YIV      0.052700
     15 H4A         6.1780    0.9030    1.5280 hc        1 YIV      0.052700
     16 H4B         6.3600   -0.0000    3.0880 hc        1 YIV      0.052700
     17 H          -0.6970    0.0030   -0.8510 hx        1 YIV      0.135200
     18 HN          1.6090   -0.8310   -0.6330 hn        1 YIV      0.462800
     19 HN3         1.6110    0.8290   -0.6360 hn        1 YIV      0.462800
@<TRIPOS>BOND
     1    1    2 1   
     2    1    4 2   
     3    1   17 1   
     4    2    3 1   
     5    2   18 1   
     6    2   19 1   
     7    3    5 1   
     8    3    8 1   
     9    3    9 1   
    10    5    6 1   
    11    5   10 1   
    12    5   11 1   
    13    6    7 1   
    14    6   12 1   
    15    6   13 1   
    16    7   14 1   
    17    7   15 1   
    18    7   16 1   
@<TRIPOS>SUBSTRUCTURE
     1 YIV         1 TEMP              0 ****  ****    0 ROOT
