@<TRIPOS>MOLECULE
YIV
   18    17     1     0     0
SMALL
bcc


@<TRIPOS>ATOM
      1 C          -2.4250    0.4730    0.4510 c         1 YIV      0.656900
      2 N          -1.3730    0.5840   -0.4250 n         1 YIV     -0.581900
      3 C1         -0.2270   -0.2830   -0.3970 c3        1 YIV      0.079000
      4 O1         -2.5210   -0.4310    1.2970 o         1 YIV     -0.606100
      5 C2          1.0870    0.4200   -0.0510 c3        1 YIV     -0.102400
      6 C3          2.2300   -0.5720   -0.0900 c3        1 YIV     -0.078400
      7 C4          3.5420    0.0890    0.2460 c3        1 YIV     -0.093100
      8 H1         -0.4150   -1.1030    0.3550 h1        1 YIV      0.060700
      9 H1A        -0.1210   -0.7610   -1.4140 h1        1 YIV      0.060700
     10 H2          1.2860    1.2510   -0.7770 hc        1 YIV      0.043700
     11 H2A         1.0210    0.8770    0.9710 hc        1 YIV      0.043700
     12 H3          2.0290   -1.4030    0.6360 hc        1 YIV      0.042700
     13 H3A         2.2920   -1.0330   -1.1120 hc        1 YIV      0.042700
     14 H4          3.7730    0.9040   -0.4810 hc        1 YIV      0.034367
     15 H4A         3.5090    0.5330    1.2710 hc        1 YIV      0.034367
     16 H4B         4.3720   -0.6590    0.2130 hc        1 YIV      0.034367
     17 H          -3.2090    1.2550    0.3130 h5        1 YIV      0.024200
     18 HN         -1.3120    1.3850   -1.0060 hn        1 YIV      0.305500
@<TRIPOS>BOND
     1    1    2 1   
     2    1    4 2   
     3    1   17 1   
     4    2    3 1   
     5    2   18 1   
     6    3    5 1   
     7    3    8 1   
     8    3    9 1   
     9    5    6 1   
    10    5   10 1   
    11    5   11 1   
    12    6    7 1   
    13    6   12 1   
    14    6   13 1   
    15    7   14 1   
    16    7   15 1   
    17    7   16 1   
@<TRIPOS>SUBSTRUCTURE
     1 YIV         1 TEMP              0 ****  ****    0 ROOT
