@<TRIPOS>MOLECULE
YIW
   74    78     1     0     0
SMALL
bcc


@<TRIPOS>ATOM
      1 C1          4.0820   -0.7600    1.7720 c3        1 YIW     -0.098100
      2 C2          4.9420   -1.6950    0.9440 c3        1 YIW     -0.070000
      3 C3          5.6680   -2.6860    1.8350 c3        1 YIW     -0.098100
      4 C4          4.0980   -2.4080   -0.0660 cc        1 YIW      0.368800
      5 N5          3.6580   -3.6920   -0.0590 nd        1 YIW     -0.289700
      6 N6          2.9170   -3.9620   -1.1250 nd        1 YIW     -0.001000
      7 C7          2.8280   -2.8540   -1.9020 cc        1 YIW     -0.061300
      8 C8          2.1750   -2.5570   -3.1470 cc        1 YIW     -0.031000
      9 C9          2.2860   -1.3070   -3.6710 cd        1 YIW     -0.114000
     10 C10         3.0360   -0.2670   -3.0010 cd        1 YIW     -0.234500
     11 S11         2.8970    1.2320   -3.6780 s4        1 YIW      0.126000
     12 C12         3.8940    1.2760   -5.0450 ca        1 YIW     -0.117500
     13 C13         4.7900    0.2480   -5.3600 ca        1 YIW     -0.035000
     14 C14         5.5360    0.2720   -6.5390 ca        1 YIW     -0.105000
     15 C15         5.3910    1.3360   -7.4260 ca        1 YIW     -0.039000
     16 C16         4.5000    2.3720   -7.1260 ca        1 YIW     -0.121000
     17 C17         3.7570    2.3530   -5.9470 ca        1 YIW     -0.065300
     18 C18         2.7710    3.4660   -5.7070 c3        1 YIW      0.126300
     19 N19         3.3480    4.7910   -5.5990 n         1 YIW     -0.504900
     20 C20         3.8040    5.2390   -4.3930 c         1 YIW      0.646100
     21 O21         3.7650    4.6310   -3.3110 o         1 YIW     -0.544100
     22 N22         4.3600    6.6610   -4.2900 n4        1 YIW     -0.476200
     23 C23         5.0660    7.0960   -5.4660 cc        1 YIW     -0.189700
     24 C24         6.3060    6.6270   -5.9670 cd        1 YIW     -0.200300
     25 C25         6.5630    7.4510   -7.1200 cd        1 YIW      0.345600
     26 N26         5.5390    8.3540   -7.2840 nc        1 YIW     -0.401800
     27 N27         4.6420    8.1460   -6.3290 na        1 YIW      0.217300
     28 C28         3.5180    8.9960   -6.0600 ca        1 YIW     -0.064200
     29 C29         3.6830   10.3930   -6.0300 ca        1 YIW     -0.128000
     30 C30         2.5760   11.2050   -5.7740 ca        1 YIW     -0.100000
     31 C31         1.3200   10.6440   -5.5510 ca        1 YIW     -0.085000
     32 C32         1.1580    9.2560   -5.5960 ca        1 YIW     -0.100000
     33 C33         2.2430    8.4260   -5.8560 ca        1 YIW     -0.128000
     34 C34         7.7590    7.3730   -8.0240 c3        1 YIW     -0.083300
     35 C35         7.3030    7.0660   -9.4460 c3        1 YIW     -0.093767
     36 C36         8.4980    8.7070   -8.0030 c3        1 YIW     -0.093767
     37 C37         8.6970    6.2720   -7.5440 c3        1 YIW     -0.093767
     38 C38         3.6830   -0.5620   -1.8020 cc        1 YIW      0.129700
     39 N39         3.5890   -1.7920   -1.2540 na        1 YIW     -0.127200
     40 H11C        4.7200   -0.2350    2.5240 hc        1 YIW      0.058533
     41 H12C        3.5890    0.0050    1.1250 hc        1 YIW      0.058533
     42 H13C        3.2920   -1.3290    2.3200 hc        1 YIW      0.058533
     43 H2          5.7130   -1.0890    0.3830 hc        1 YIW      0.051700
     44 H31C        6.3410   -2.1280    2.5310 hc        1 YIW      0.058533
     45 H32C        6.2840   -3.3890    1.2250 hc        1 YIW      0.058533
     46 H33C        4.9430   -3.2820    2.4410 hc        1 YIW      0.058533
     47 H8          1.6010   -3.3660   -3.6320 ha        1 YIW      0.205000
     48 H9          1.7910   -1.0620   -4.6250 ha        1 YIW      0.160000
     49 H38         4.2850    0.1860   -1.2440 h4        1 YIW      0.181000
     50 H13         4.9030   -0.6120   -4.6730 ha        1 YIW      0.166000
     51 H14         6.2310   -0.5560   -6.7670 ha        1 YIW      0.184000
     52 H15         5.9680    1.3590   -8.3670 ha        1 YIW      0.180000
     53 H16         4.3750    3.1990   -7.8450 ha        1 YIW      0.157000
     54 H22         3.5690    7.3000   -4.0880 hn        1 YIW      0.491300
     55 H181        2.1630    3.2710   -4.7740 h1        1 YIW      0.095700
     56 H182        2.0550    3.5030   -6.5870 h1        1 YIW      0.095700
     57 H19         3.6460    1.9210   -2.8540 hs        1 YIW      0.299000
     58 H24         6.9370    5.8340   -5.5750 ha        1 YIW      0.193000
     59 H29         4.6660   10.8550   -6.2210 ha        1 YIW      0.147500
     60 H33         2.0790    7.3430   -5.9580 ha        1 YIW      0.147500
     61 H30         2.7040   12.3010   -5.7570 ha        1 YIW      0.168500
     62 H31         0.4510   11.2940   -5.3530 ha        1 YIW      0.173000
     63 H32         0.1590    8.8170   -5.4440 ha        1 YIW      0.168500
     64 H351        6.7370    6.1050   -9.4790 hc        1 YIW      0.051256
     65 H352        6.6530    7.8850   -9.8390 hc        1 YIW      0.051256
     66 H353        8.1970    6.9760  -10.1110 hc        1 YIW      0.051256
     67 H361        8.8060    8.9690   -6.9630 hc        1 YIW      0.051256
     68 H362        7.8520    9.5230   -8.4080 hc        1 YIW      0.051256
     69 H363        9.4140    8.6340   -8.6380 hc        1 YIW      0.051256
     70 H371        9.0590    6.4850   -6.5100 hc        1 YIW      0.051256
     71 H372        9.5830    6.2200   -8.2240 hc        1 YIW      0.051256
     72 H373        8.1840    5.2810   -7.5570 hc        1 YIW      0.051256
     73 H192        3.5770    5.2750   -6.4440 hn        1 YIW      0.368500
     74 H222        5.0100    6.6750   -3.4860 hn        1 YIW      0.491300
@<TRIPOS>BOND
     1    1    2 1   
     2    1   40 1   
     3    1   41 1   
     4    1   42 1   
     5    2    3 1   
     6    2    4 1   
     7    2   43 1   
     8    3   44 1   
     9    3   45 1   
    10    3   46 1   
    11    4    5 2   
    12    4   39 1   
    13    5    6 1   
    14    6    7 2   
    15    7    8 1   
    16    7   39 1   
    17    8    9 2   
    18    8   47 1   
    19    9   10 1   
    20    9   48 1   
    21   10   11 1   
    22   10   38 2   
    23   11   12 1   
    24   11   57 1   
    25   12   13 ar  
    26   12   17 ar  
    27   13   14 ar  
    28   13   50 1   
    29   14   15 ar  
    30   14   51 1   
    31   15   16 ar  
    32   15   52 1   
    33   16   17 ar  
    34   16   53 1   
    35   17   18 1   
    36   18   19 1   
    37   18   55 1   
    38   18   56 1   
    39   19   20 1   
    40   19   73 1   
    41   20   21 2   
    42   20   22 1   
    43   22   23 1   
    44   22   54 1   
    45   22   74 1   
    46   23   24 2   
    47   23   27 1   
    48   24   25 1   
    49   24   58 1   
    50   25   26 2   
    51   25   34 1   
    52   26   27 1   
    53   27   28 1   
    54   28   29 ar  
    55   28   33 ar  
    56   29   30 ar  
    57   29   59 1   
    58   30   31 ar  
    59   30   61 1   
    60   31   32 ar  
    61   31   62 1   
    62   32   33 ar  
    63   32   63 1   
    64   33   60 1   
    65   34   35 1   
    66   34   36 1   
    67   34   37 1   
    68   35   64 1   
    69   35   65 1   
    70   35   66 1   
    71   36   67 1   
    72   36   68 1   
    73   36   69 1   
    74   37   70 1   
    75   37   71 1   
    76   37   72 1   
    77   38   39 1   
    78   38   49 1   
@<TRIPOS>SUBSTRUCTURE
     1 YIW         1 TEMP              0 ****  ****    0 ROOT
