@<TRIPOS>MOLECULE
YIW
   72    76     1     0     0
SMALL
bcc


@<TRIPOS>ATOM
      1 C1          4.3650   -2.3220   -4.5570 c3        1 YIW     -0.092100
      2 C2          4.4470   -2.3750   -3.0430 c3        1 YIW     -0.054000
      3 C3          4.9090   -3.7420   -2.5750 c3        1 YIW     -0.092100
      4 C4          5.3820   -1.3210   -2.5460 cc        1 YIW      0.302800
      5 N5          6.7240   -1.2070   -2.8080 nd        1 YIW     -0.338700
      6 N6          7.2370   -0.1600   -2.2120 nd        1 YIW     -0.078000
      7 C7          6.2460    0.4860   -1.5110 cc        1 YIW     -0.075300
      8 C8          6.2250    1.6630   -0.6940 cc        1 YIW     -0.085000
      9 C9          5.0450    2.0540   -0.1300 cd        1 YIW     -0.100000
     10 C10         3.8370    1.3110   -0.3380 cd        1 YIW     -0.104100
     11 S11         2.3210    1.8550    0.1920 ss        1 YIW     -0.055800
     12 C12         2.3870    1.9530    1.8860 ca        1 YIW     -0.008100
     13 C13         3.4790    1.5360    2.6570 ca        1 YIW     -0.138000
     14 C14         3.4570    1.6420    4.0440 ca        1 YIW     -0.105000
     15 C15         2.3380    2.1720    4.6860 ca        1 YIW     -0.136000
     16 C16         1.2460    2.5900    3.9300 ca        1 YIW     -0.115000
     17 C17         1.2570    2.4810    2.5360 ca        1 YIW     -0.117300
     18 C18         0.0570    2.9630    1.7660 c3        1 YIW      0.113300
     19 N19        -1.1610    2.2390    2.0540 n         1 YIW     -0.528900
     20 C20        -1.7330    1.4420    1.0380 c         1 YIW      0.745100
     21 O21        -1.4550    1.6320   -0.1660 o         1 YIW     -0.599100
     22 N22        -2.6430    0.4220    1.4320 n         1 YIW     -0.430100
     23 C23        -3.5440   -0.0980    0.4970 cc        1 YIW      0.021300
     24 C24        -3.4010   -0.2740   -0.8910 cd        1 YIW     -0.277300
     25 C25        -4.6540   -0.8620   -1.3290 cd        1 YIW      0.333600
     26 N26        -5.4920   -1.0340   -0.2730 nc        1 YIW     -0.493800
     27 N27        -4.8680   -0.5470    0.8200 na        1 YIW      0.118300
     28 C28        -5.3530   -0.7580    2.1410 ca        1 YIW      0.014800
     29 C29        -6.6550   -0.3330    2.4790 ca        1 YIW     -0.133000
     30 C30        -7.1230   -0.5110    3.7790 ca        1 YIW     -0.121500
     31 C31        -6.3180   -1.1080    4.7480 ca        1 YIW     -0.130000
     32 C32        -5.0380   -1.5460    4.4120 ca        1 YIW     -0.121500
     33 C33        -4.5520   -1.3870    3.1160 ca        1 YIW     -0.133000
     34 C34        -4.9600   -1.2150   -2.7520 c3        1 YIW     -0.076300
     35 C35        -3.9120   -2.2080   -3.2440 c3        1 YIW     -0.084767
     36 C36        -6.3420   -1.8370   -2.9010 c3        1 YIW     -0.084767
     37 C37        -4.8910    0.0550   -3.5950 c3        1 YIW     -0.084767
     38 C38         3.8580    0.1650   -1.1100 cc        1 YIW      0.000700
     39 N39         5.0240   -0.2440   -1.7060 na        1 YIW     -0.086200
     40 H11C        3.6410   -3.0920   -4.9180 hc        1 YIW      0.047033
     41 H12C        4.0190   -1.3170   -4.8960 hc        1 YIW      0.047033
     42 H13C        5.3630   -2.5280   -5.0130 hc        1 YIW      0.047033
     43 H2          3.4180   -2.1820   -2.6220 hc        1 YIW      0.048700
     44 H31C        5.9180   -3.9810   -2.9910 hc        1 YIW      0.047033
     45 H32C        4.9660   -3.7770   -1.4610 hc        1 YIW      0.047033
     46 H33C        4.1860   -4.5200   -2.9220 hc        1 YIW      0.047033
     47 H8          7.1670    2.2120   -0.5560 ha        1 YIW      0.170000
     48 H9          4.9930    2.9610    0.4940 ha        1 YIW      0.156000
     49 H38         2.9560   -0.4500   -1.2920 h4        1 YIW      0.184000
     50 H13         4.3690    1.1170    2.1600 ha        1 YIW      0.143000
     51 H14         4.3250    1.3070    4.6320 ha        1 YIW      0.138000
     52 H15         2.3190    2.2630    5.7820 ha        1 YIW      0.137000
     53 H16         0.3670    3.0220    4.4330 ha        1 YIW      0.133000
     54 H22        -2.9730    0.4410    2.3770 hn        1 YIW      0.310500
     55 H181       -0.1360    4.0390    2.0580 h1        1 YIW      0.085700
     56 H182        0.2540    2.9450    0.6520 h1        1 YIW      0.085700
     57 H19        -1.2140    1.8910    2.9880 hn        1 YIW      0.291500
     58 H24        -2.5480    0.0030   -1.5020 ha        1 YIW      0.192000
     59 H29        -7.3030    0.1300    1.7190 ha        1 YIW      0.153000
     60 H33        -3.5560   -1.7790    2.8590 ha        1 YIW      0.153000
     61 H30        -8.1390   -0.1780    4.0370 ha        1 YIW      0.138500
     62 H31        -6.6950   -1.2420    5.7730 ha        1 YIW      0.138000
     63 H32        -4.4070   -2.0340    5.1700 ha        1 YIW      0.138500
     64 H351       -3.9630   -3.1520   -2.6500 hc        1 YIW      0.039256
     65 H352       -4.0950   -2.4490   -4.3180 hc        1 YIW      0.039256
     66 H353       -2.8880   -1.7750   -3.1410 hc        1 YIW      0.039256
     67 H361       -7.1310   -1.1250   -2.5620 hc        1 YIW      0.039256
     68 H362       -6.5260   -2.0880   -3.9730 hc        1 YIW      0.039256
     69 H363       -6.4180   -2.7720   -2.2970 hc        1 YIW      0.039256
     70 H371       -3.8870    0.5330   -3.4950 hc        1 YIW      0.039256
     71 H372       -5.0680   -0.1940   -4.6680 hc        1 YIW      0.039256
     72 H373       -5.6690    0.7830   -3.2620 hc        1 YIW      0.039256
@<TRIPOS>BOND
     1    1    2 1   
     2    1   40 1   
     3    1   41 1   
     4    1   42 1   
     5    2    3 1   
     6    2    4 1   
     7    2   43 1   
     8    3   44 1   
     9    3   45 1   
    10    3   46 1   
    11    4    5 2   
    12    4   39 1   
    13    5    6 1   
    14    6    7 2   
    15    7    8 1   
    16    7   39 1   
    17    8    9 2   
    18    8   47 1   
    19    9   10 1   
    20    9   48 1   
    21   10   11 1   
    22   10   38 2   
    23   11   12 1   
    24   12   13 ar  
    25   12   17 ar  
    26   13   14 ar  
    27   13   50 1   
    28   14   15 ar  
    29   14   51 1   
    30   15   16 ar  
    31   15   52 1   
    32   16   17 ar  
    33   16   53 1   
    34   17   18 1   
    35   18   19 1   
    36   18   55 1   
    37   18   56 1   
    38   19   20 1   
    39   19   57 1   
    40   20   21 2   
    41   20   22 1   
    42   22   23 1   
    43   22   54 1   
    44   23   24 2   
    45   23   27 1   
    46   24   25 1   
    47   24   58 1   
    48   25   26 2   
    49   25   34 1   
    50   26   27 1   
    51   27   28 1   
    52   28   29 ar  
    53   28   33 ar  
    54   29   30 ar  
    55   29   59 1   
    56   30   31 ar  
    57   30   61 1   
    58   31   32 ar  
    59   31   62 1   
    60   32   33 ar  
    61   32   63 1   
    62   33   60 1   
    63   34   35 1   
    64   34   36 1   
    65   34   37 1   
    66   35   64 1   
    67   35   65 1   
    68   35   66 1   
    69   36   67 1   
    70   36   68 1   
    71   36   69 1   
    72   37   70 1   
    73   37   71 1   
    74   37   72 1   
    75   38   39 1   
    76   38   49 1   
@<TRIPOS>SUBSTRUCTURE
     1 YIW         1 TEMP              0 ****  ****    0 ROOT
