@<TRIPOS>MOLECULE
YIW
   73    77     1     0     0
SMALL
bcc


@<TRIPOS>ATOM
      1 C1         -0.0980   -0.3870   -0.0280 c3        1 YIW     -0.095600
      2 C2          1.3990   -0.6060    0.0930 c3        1 YIW     -0.055000
      3 C3          1.7790   -0.9650    1.5170 c3        1 YIW     -0.095600
      4 C4          1.8310   -1.6910   -0.8400 cc        1 YIW      0.321800
      5 N5          1.4510   -3.0060   -0.8180 nd        1 YIW     -0.319700
      6 N6          2.0180   -3.6840   -1.7890 nd        1 YIW     -0.049000
      7 C7          2.8170   -2.8430   -2.5180 cc        1 YIW     -0.071300
      8 C8          3.6530   -3.0240   -3.6670 cc        1 YIW     -0.065000
      9 C9          4.3340   -1.9520   -4.1650 cd        1 YIW     -0.106000
     10 C10         4.2250   -0.6580   -3.5590 cd        1 YIW     -0.112100
     11 S11         4.9510    0.6930   -4.2830 ss        1 YIW     -0.144800
     12 C12         6.6190    0.6120   -3.9620 ca        1 YIW      0.001900
     13 C13         7.2440   -0.4150   -3.2490 ca        1 YIW     -0.124000
     14 C14         8.6230   -0.4000   -3.0430 ca        1 YIW     -0.064000
     15 C15         9.3980    0.6440   -3.5520 ca        1 YIW     -0.126000
     16 C16         8.7890    1.6720   -4.2680 ca        1 YIW     -0.080000
     17 C17         7.4060    1.6610   -4.4770 ca        1 YIW     -0.188300
     18 C18         6.7770    2.7330   -5.3010 c3        1 YIW      0.174100
     19 N19         5.9640    3.6630   -4.4500 ny        1 YIW     -0.677800
     20 C20         5.2300    4.7320   -5.2660 c         1 YIW      0.641100
     21 O21         4.0010    4.6450   -5.1980 o         1 YIW     -0.468100
     22 N22         6.0000    5.5990   -6.0050 ns        1 YIW     -0.388100
     23 C23         5.3930    6.6250   -6.7480 cc        1 YIW     -0.082700
     24 C24         5.0370    6.6200   -8.1130 cd        1 YIW     -0.205300
     25 C25         4.5330    7.9520   -8.3670 cd        1 YIW      0.327600
     26 N26         4.5800    8.6970   -7.2210 nc        1 YIW     -0.434800
     27 N27         5.0730    7.9240   -6.2510 na        1 YIW      0.164300
     28 C28         5.2740    8.3700   -4.9080 ca        1 YIW     -0.017200
     29 C29         6.0910    9.4870   -4.6510 ca        1 YIW     -0.126000
     30 C30         6.2720    9.9160   -3.3370 ca        1 YIW     -0.121000
     31 C31         5.6470    9.2520   -2.2820 ca        1 YIW     -0.109000
     32 C32         4.8250    8.1550   -2.5400 ca        1 YIW     -0.121000
     33 C33         4.6270    7.7100   -3.8440 ca        1 YIW     -0.126000
     34 C34         4.0330    8.4300   -9.6960 c3        1 YIW     -0.079300
     35 C35         2.8600    7.5520  -10.1190 c3        1 YIW     -0.088100
     36 C36         3.5730    9.8810   -9.6400 c3        1 YIW     -0.088100
     37 C37         5.1600    8.3040  -10.7160 c3        1 YIW     -0.088100
     38 C38         3.4270   -0.4760   -2.4440 cc        1 YIW      0.033700
     39 N39         2.7230   -1.5280   -1.9270 na        1 YIW     -0.103200
     40 H11C       -0.6550   -1.3120    0.2610 hc        1 YIW      0.052367
     41 H12C       -0.3740   -0.1180   -1.0750 hc        1 YIW      0.052367
     42 H13C       -0.4090    0.4420    0.6520 hc        1 YIW      0.052367
     43 H2          1.9260    0.3510   -0.1890 hc        1 YIW      0.037700
     44 H31C        2.8800   -1.1250    1.6040 hc        1 YIW      0.052367
     45 H32C        1.2570   -1.8980    1.8410 hc        1 YIW      0.052367
     46 H33C        1.4800   -0.1350    2.2030 hc        1 YIW      0.052367
     47 H8          3.7080   -4.0300   -4.1110 ha        1 YIW      0.184000
     48 H9          4.9740   -2.0580   -5.0560 ha        1 YIW      0.160000
     49 H38         3.3100    0.5010   -1.9390 h4        1 YIW      0.172000
     50 H13         6.6400   -1.2490   -2.8530 ha        1 YIW      0.164000
     51 H14         9.1010   -1.2190   -2.4810 ha        1 YIW      0.163000
     52 H15        10.4880    0.6520   -3.3940 ha        1 YIW      0.162000
     53 H16         9.4040    2.4860   -4.6830 ha        1 YIW      0.141000
     54 H22         6.9780    5.6960   -5.8300 hn        1 YIW      0.349500
     55 H181        6.0760    2.2800   -6.0670 hx        1 YIW      0.113700
     56 H182        7.5640    3.3360   -5.8370 hx        1 YIW      0.113700
     57 H19         6.5610    4.0970   -3.7420 hn        1 YIW      0.466800
     58 H24         5.1240    5.8070   -8.8260 ha        1 YIW      0.183000
     59 H29         6.5700   10.0360   -5.4780 ha        1 YIW      0.154500
     60 H33         3.9370    6.8730   -4.0410 ha        1 YIW      0.154500
     61 H30         6.9050   10.7950   -3.1370 ha        1 YIW      0.150500
     62 H31         5.7880    9.6040   -1.2480 ha        1 YIW      0.153000
     63 H32         4.3060    7.6500   -1.7100 ha        1 YIW      0.150500
     64 H351        2.0190    7.6470   -9.3910 hc        1 YIW      0.044922
     65 H352        3.1720    6.4810  -10.1730 hc        1 YIW      0.044922
     66 H353        2.4970    7.8700  -11.1260 hc        1 YIW      0.044922
     67 H361        4.4150   10.5510   -9.3430 hc        1 YIW      0.044922
     68 H362        3.2080   10.1950  -10.6480 hc        1 YIW      0.044922
     69 H363        2.7400   10.0030   -8.9070 hc        1 YIW      0.044922
     70 H371        5.5140    7.2470  -10.7800 hc        1 YIW      0.044922
     71 H372        6.0190    8.9560  -10.4320 hc        1 YIW      0.044922
     72 H373        4.7910    8.6180  -11.7230 hc        1 YIW      0.044922
     73 H192        5.2350    3.1020   -3.9650 hn        1 YIW      0.466800
@<TRIPOS>BOND
     1    1    2 1   
     2    1   40 1   
     3    1   41 1   
     4    1   42 1   
     5    2    3 1   
     6    2    4 1   
     7    2   43 1   
     8    3   44 1   
     9    3   45 1   
    10    3   46 1   
    11    4    5 2   
    12    4   39 1   
    13    5    6 1   
    14    6    7 2   
    15    7    8 1   
    16    7   39 1   
    17    8    9 2   
    18    8   47 1   
    19    9   10 1   
    20    9   48 1   
    21   10   11 1   
    22   10   38 2   
    23   11   12 1   
    24   12   13 ar  
    25   12   17 ar  
    26   13   14 ar  
    27   13   50 1   
    28   14   15 ar  
    29   14   51 1   
    30   15   16 ar  
    31   15   52 1   
    32   16   17 ar  
    33   16   53 1   
    34   17   18 1   
    35   18   19 1   
    36   18   55 1   
    37   18   56 1   
    38   19   20 1   
    39   19   57 1   
    40   19   73 1   
    41   20   21 2   
    42   20   22 1   
    43   22   23 1   
    44   22   54 1   
    45   23   24 2   
    46   23   27 1   
    47   24   25 1   
    48   24   58 1   
    49   25   26 2   
    50   25   34 1   
    51   26   27 1   
    52   27   28 1   
    53   28   29 ar  
    54   28   33 ar  
    55   29   30 ar  
    56   29   59 1   
    57   30   31 ar  
    58   30   61 1   
    59   31   32 ar  
    60   31   62 1   
    61   32   33 ar  
    62   32   63 1   
    63   33   60 1   
    64   34   35 1   
    65   34   36 1   
    66   34   37 1   
    67   35   64 1   
    68   35   65 1   
    69   35   66 1   
    70   36   67 1   
    71   36   68 1   
    72   36   69 1   
    73   37   70 1   
    74   37   71 1   
    75   37   72 1   
    76   38   39 1   
    77   38   49 1   
@<TRIPOS>SUBSTRUCTURE
     1 YIW         1 TEMP              0 ****  ****    0 ROOT
