@<TRIPOS>MOLECULE
YIX
   49    51     1     0     0
SMALL
bcc


@<TRIPOS>ATOM
      1 C1          7.5050    3.1980    0.9040 c3        1 YIX     -0.106100
      2 C2          6.7600    2.3810   -0.1390 c3        1 YIX      0.081000
      3 N3          5.6560    1.6310    0.4170 n         1 YIX     -0.545900
      4 C4          4.8390    0.9230   -0.4860 c         1 YIX      0.732100
      5 O5          4.8890    1.1580   -1.7170 o         1 YIX     -0.632100
      6 N6          3.9610   -0.0610    0.0220 n         1 YIX     -0.540900
      7 C7          2.9110   -0.5140   -0.8640 c3        1 YIX      0.123300
      8 C8          2.1510   -1.6790   -0.2940 ca        1 YIX     -0.094300
      9 C9          2.7860   -2.9190   -0.1990 ca        1 YIX     -0.095000
     10 C10         2.1020   -4.0300    0.2930 ca        1 YIX     -0.137000
     11 C11         0.7720   -3.9010    0.6900 ca        1 YIX     -0.107000
     12 C12         0.1330   -2.6670    0.5970 ca        1 YIX     -0.139000
     13 C13         0.8110   -1.5440    0.1120 ca        1 YIX     -0.014100
     14 S14         0.1170    0.0010   -0.0480 ss        1 YIX     -0.084800
     15 C15        -1.4480   -0.0830    0.6000 cc        1 YIX     -0.097100
     16 C16        -1.6960   -0.3680    1.9820 cc        1 YIX     -0.099000
     17 C17        -2.9530   -0.2880    2.5090 cd        1 YIX     -0.085000
     18 C18        -4.0390    0.0920    1.6560 cd        1 YIX     -0.075300
     19 N19        -5.3870    0.2710    1.8630 nc        1 YIX     -0.078000
     20 N20        -5.9490    0.6280    0.7360 nc        1 YIX     -0.338700
     21 C21        -5.0250    0.7090   -0.2760 cd        1 YIX      0.302800
     22 C22        -5.2720    1.0830   -1.7010 c3        1 YIX     -0.054000
     23 C23        -6.2300    0.0960   -2.3390 c3        1 YIX     -0.092100
     24 C24        -5.8210    2.4950   -1.7790 c3        1 YIX     -0.092100
     25 N25        -3.7700    0.3690    0.2720 na        1 YIX     -0.086200
     26 C26        -2.4970    0.2620   -0.2310 cd        1 YIX     -0.001300
     27 H11C        8.3230    3.7620    0.3930 hc        1 YIX      0.042700
     28 H12C        6.8270    3.9300    1.4050 hc        1 YIX      0.042700
     29 H13C        7.9600    2.5430    1.6850 hc        1 YIX      0.042700
     30 H21C        6.3380    3.0670   -0.9300 h1        1 YIX      0.053700
     31 H22C        7.4890    1.6890   -0.6540 h1        1 YIX      0.053700
     32 H3          5.8300    1.2160    1.3050 hn        1 YIX      0.291500
     33 H6          3.6980    0.0110    0.9800 hn        1 YIX      0.294500
     34 H71C        2.2030    0.3350   -1.1130 h1        1 YIX      0.067700
     35 H72C        3.3950   -0.8270   -1.8370 h1        1 YIX      0.067700
     36 H9          3.8360   -3.0120   -0.5180 ha        1 YIX      0.146000
     37 H10         2.6100   -5.0030    0.3650 ha        1 YIX      0.137000
     38 H11         0.2220   -4.7730    1.0740 ha        1 YIX      0.137000
     39 H12        -0.9200   -2.5780    0.9100 ha        1 YIX      0.140000
     40 H16        -0.8390   -0.6480    2.6150 ha        1 YIX      0.155000
     41 H26        -2.3620    0.4760   -1.3080 h4        1 YIX      0.181000
     42 H17        -3.1760   -0.4970    3.5650 ha        1 YIX      0.170000
     43 H22        -4.2950    1.0480   -2.2650 hc        1 YIX      0.047700
     44 H231       -7.2190    0.1160   -1.8200 hc        1 YIX      0.047033
     45 H232       -6.3840    0.3640   -3.4120 hc        1 YIX      0.047033
     46 H233       -5.8200   -0.9410   -2.2830 hc        1 YIX      0.047033
     47 H241       -6.8010    2.5660   -1.2480 hc        1 YIX      0.047033
     48 H242       -5.1110    3.2190   -1.3130 hc        1 YIX      0.047033
     49 H243       -5.9730    2.7790   -2.8490 hc        1 YIX      0.047033
@<TRIPOS>BOND
     1    1    2 1   
     2    1   27 1   
     3    1   28 1   
     4    1   29 1   
     5    2    3 1   
     6    2   30 1   
     7    2   31 1   
     8    3    4 1   
     9    3   32 1   
    10    4    5 2   
    11    4    6 1   
    12    6    7 1   
    13    6   33 1   
    14    7    8 1   
    15    7   34 1   
    16    7   35 1   
    17    8    9 ar  
    18    8   13 ar  
    19    9   10 ar  
    20    9   36 1   
    21   10   11 ar  
    22   10   37 1   
    23   11   12 ar  
    24   11   38 1   
    25   12   13 ar  
    26   12   39 1   
    27   13   14 1   
    28   14   15 1   
    29   15   16 1   
    30   15   26 2   
    31   16   17 2   
    32   16   40 1   
    33   17   18 1   
    34   17   42 1   
    35   18   19 2   
    36   18   25 1   
    37   19   20 1   
    38   20   21 2   
    39   21   22 1   
    40   21   25 1   
    41   22   23 1   
    42   22   24 1   
    43   22   43 1   
    44   23   44 1   
    45   23   45 1   
    46   23   46 1   
    47   24   47 1   
    48   24   48 1   
    49   24   49 1   
    50   25   26 1   
    51   26   41 1   
@<TRIPOS>SUBSTRUCTURE
     1 YIX         1 TEMP              0 ****  ****    0 ROOT
