@<TRIPOS>MOLECULE
YIX
   51    53     1     0     0
SMALL
bcc


@<TRIPOS>ATOM
      1 C1          0.4560    1.5480   -0.3590 c3        1 YIX     -0.145100
      2 C2          1.5850    0.7380    0.2390 c3        1 YIX      0.115800
      3 N3          1.4930    0.6590    1.7360 ny        1 YIX     -0.660800
      4 C4          2.5450   -0.2620    2.3310 c         1 YIX      0.645100
      5 O5          2.1000   -1.3160    2.8110 o         1 YIX     -0.529100
      6 N6          3.8630    0.0940    2.2600 ns        1 YIX     -0.517900
      7 C7          4.8820   -0.7890    2.8000 c3        1 YIX      0.128300
      8 C8          5.1750   -0.5950    4.2630 ca        1 YIX     -0.072300
      9 C9          5.7150    0.6240    4.6710 ca        1 YIX     -0.120000
     10 C10         6.0360    0.8500    6.0140 ca        1 YIX     -0.040000
     11 C11         5.8120   -0.1510    6.9560 ca        1 YIX     -0.101000
     12 C12         5.2790   -1.3760    6.5490 ca        1 YIX     -0.039000
     13 C13         4.9660   -1.6230    5.2080 ca        1 YIX     -0.109500
     14 S14         4.4390   -3.1420    4.6680 s4        1 YIX      0.075000
     15 C15         4.4650   -4.1760    5.9620 cc        1 YIX     -0.227500
     16 C16         3.3140   -4.3620    6.8110 cc        1 YIX     -0.125000
     17 C17         3.2920   -5.3050    7.7900 cd        1 YIX     -0.030000
     18 C18         4.4490   -6.1320    7.9900 cd        1 YIX     -0.065300
     19 N19         4.7520   -7.1380    8.8480 nc        1 YIX      0.002000
     20 N20         5.9800   -7.5700    8.6020 nc        1 YIX     -0.292700
     21 C21         6.5570   -6.8880    7.5790 cd        1 YIX      0.372800
     22 C22         7.9250   -7.0830    7.0010 c3        1 YIX     -0.063000
     23 C23         8.9730   -6.8850    8.0810 c3        1 YIX     -0.100600
     24 C24         8.0310   -8.4690    6.3940 c3        1 YIX     -0.100600
     25 N25         5.6060   -5.9190    7.1250 na        1 YIX     -0.126200
     26 C26         5.5960   -4.9710    6.1660 cd        1 YIX      0.139700
     27 H11C        0.4650    2.6070   -0.0040 hc        1 YIX      0.093367
     28 H12C       -0.5440    1.0960   -0.1420 hc        1 YIX      0.093367
     29 H13C        0.5930    1.5560   -1.4740 hc        1 YIX      0.093367
     30 H21C        1.5580   -0.3200   -0.1550 hx        1 YIX      0.110700
     31 H22C        2.5790    1.2020   -0.0230 hx        1 YIX      0.110700
     32 H3          1.5600    1.6010    2.1380 hn        1 YIX      0.475300
     33 H6          4.1450    1.0070    1.9750 hn        1 YIX      0.357500
     34 H71C        5.8280   -0.5790    2.2120 h1        1 YIX      0.096700
     35 H72C        4.5700   -1.8540    2.5880 h1        1 YIX      0.096700
     36 H9          5.9110    1.4160    3.9300 ha        1 YIX      0.154000
     37 H10         6.4680    1.8190    6.3220 ha        1 YIX      0.182000
     38 H11         6.0560    0.0160    8.0200 ha        1 YIX      0.186000
     39 H12         5.1060   -2.1610    7.3090 ha        1 YIX      0.170000
     40 H16         2.4310   -3.7240    6.6480 ha        1 YIX      0.153000
     41 H26         6.5160   -4.8660    5.5520 h4        1 YIX      0.185000
     42 H17         2.4210   -5.4740    8.4480 ha        1 YIX      0.204000
     43 H22         8.0930   -6.3170    6.1900 hc        1 YIX      0.037700
     44 H231        8.8930   -5.8670    8.5310 hc        1 YIX      0.061700
     45 H232        9.9900   -7.0020    7.6340 hc        1 YIX      0.061700
     46 H233        8.8540   -7.6450    8.8920 hc        1 YIX      0.061700
     47 H241        9.0450   -8.5990    5.9430 hc        1 YIX      0.061700
     48 H242        7.2630   -8.6140    5.5980 hc        1 YIX      0.061700
     49 H243        7.8890   -9.2550    7.1760 hc        1 YIX      0.061700
     50 H32         0.5730    0.2640    1.9940 hn        1 YIX      0.475300
     51 H62         3.1440   -2.8930    4.6180 hs        1 YIX      0.343000
@<TRIPOS>BOND
     1    1    2 1   
     2    1   27 1   
     3    1   28 1   
     4    1   29 1   
     5    2    3 1   
     6    2   30 1   
     7    2   31 1   
     8    3    4 1   
     9    3   32 1   
    10    3   50 1   
    11    4    5 2   
    12    4    6 1   
    13    6    7 1   
    14    6   33 1   
    15    7    8 1   
    16    7   34 1   
    17    7   35 1   
    18    8    9 ar  
    19    8   13 ar  
    20    9   10 ar  
    21    9   36 1   
    22   10   11 ar  
    23   10   37 1   
    24   11   12 ar  
    25   11   38 1   
    26   12   13 ar  
    27   12   39 1   
    28   13   14 1   
    29   14   15 1   
    30   14   51 1   
    31   15   16 1   
    32   15   26 2   
    33   16   17 2   
    34   16   40 1   
    35   17   18 1   
    36   17   42 1   
    37   18   19 2   
    38   18   25 1   
    39   19   20 1   
    40   20   21 2   
    41   21   22 1   
    42   21   25 1   
    43   22   23 1   
    44   22   24 1   
    45   22   43 1   
    46   23   44 1   
    47   23   45 1   
    48   23   46 1   
    49   24   47 1   
    50   24   48 1   
    51   24   49 1   
    52   25   26 1   
    53   26   41 1   
@<TRIPOS>SUBSTRUCTURE
     1 YIX         1 TEMP              0 ****  ****    0 ROOT
