@<TRIPOS>MOLECULE
YIX
   51    53     1     0     0
SMALL
bcc


@<TRIPOS>ATOM
      1 C1          0.4570    1.5480   -0.3610 c3        1 YIX     -0.145100
      2 C2          1.5860    0.7370    0.2380 c3        1 YIX      0.115800
      3 N3          1.4940    0.6600    1.7350 n4        1 YIX     -0.660800
      4 C4          2.5450   -0.2620    2.3300 c         1 YIX      0.645100
      5 O5          2.0990   -1.3150    2.8120 o         1 YIX     -0.529100
      6 N6          3.8640    0.0920    2.2580 n         1 YIX     -0.517900
      7 C7          4.8810   -0.7920    2.7980 c3        1 YIX      0.128300
      8 C8          5.1760   -0.5970    4.2610 ca        1 YIX     -0.072300
      9 C9          5.7180    0.6220    4.6670 ca        1 YIX     -0.120000
     10 C10         6.0400    0.8490    6.0100 ca        1 YIX     -0.040000
     11 C11         5.8160   -0.1510    6.9520 ca        1 YIX     -0.101000
     12 C12         5.2820   -1.3750    6.5480 ca        1 YIX     -0.039000
     13 C13         4.9670   -1.6230    5.2070 ca        1 YIX     -0.109500
     14 S14         4.4360   -3.1420    4.6700 s4        1 YIX      0.075000
     15 C15         4.4630   -4.1740    5.9640 cc        1 YIX     -0.227500
     16 C16         3.3130   -4.3590    6.8150 cc        1 YIX     -0.125000
     17 C17         3.2920   -5.3010    7.7960 cd        1 YIX     -0.030000
     18 C18         4.4480   -6.1290    7.9940 cd        1 YIX     -0.065300
     19 N19         4.7520   -7.1340    8.8530 nc        1 YIX      0.002000
     20 N20         5.9780   -7.5690    8.6050 nc        1 YIX     -0.292700
     21 C21         6.5550   -6.8880    7.5810 cd        1 YIX      0.372800
     22 C22         7.9220   -7.0850    7.0010 c3        1 YIX     -0.063000
     23 C23         8.9720   -6.8800    8.0770 c3        1 YIX     -0.100600
     24 C24         8.0270   -8.4750    6.4010 c3        1 YIX     -0.100600
     25 N25         5.6040   -5.9180    7.1270 na        1 YIX     -0.126200
     26 C26         5.5930   -4.9710    6.1670 cd        1 YIX      0.139700
     27 H11C        0.4680    2.6080   -0.0060 hc        1 YIX      0.093367
     28 H12C       -0.5430    1.0990   -0.1420 hc        1 YIX      0.093367
     29 H13C        0.5940    1.5540   -1.4750 hc        1 YIX      0.093367
     30 H21C        1.5570   -0.3220   -0.1550 hx        1 YIX      0.110700
     31 H22C        2.5800    1.1990   -0.0250 hx        1 YIX      0.110700
     32 H3          1.5630    1.6020    2.1360 hn        1 YIX      0.475300
     33 H6          4.1470    1.0040    1.9710 hn        1 YIX      0.357500
     34 H71C        5.8270   -0.5840    2.2090 h1        1 YIX      0.096700
     35 H72C        4.5680   -1.8570    2.5880 h1        1 YIX      0.096700
     36 H9          5.9150    1.4130    3.9250 ha        1 YIX      0.154000
     37 H10         6.4750    1.8180    6.3160 ha        1 YIX      0.182000
     38 H11         6.0610    0.0180    8.0160 ha        1 YIX      0.186000
     39 H12         5.1070   -2.1590    7.3080 ha        1 YIX      0.170000
     40 H16         2.4310   -3.7190    6.6530 ha        1 YIX      0.153000
     41 H26         6.5130   -4.8690    5.5510 h4        1 YIX      0.185000
     42 H17         2.4230   -5.4670    8.4550 ha        1 YIX      0.204000
     43 H22         8.0870   -6.3250    6.1840 hc        1 YIX      0.037700
     44 H231        8.8920   -5.8590    8.5200 hc        1 YIX      0.061700
     45 H232        9.9880   -6.9990    7.6280 hc        1 YIX      0.061700
     46 H233        8.8550   -7.6350    8.8930 hc        1 YIX      0.061700
     47 H241        9.0400   -8.6060    5.9480 hc        1 YIX      0.061700
     48 H242        7.2570   -8.6260    5.6080 hc        1 YIX      0.061700
     49 H243        7.8880   -9.2570    7.1880 hc        1 YIX      0.061700
     50 H32         0.5740    0.2670    1.9940 hn        1 YIX      0.475300
     51 H62         3.1420   -2.8920    4.6220 hs        1 YIX      0.343000
@<TRIPOS>BOND
     1    1    2 1   
     2    1   27 1   
     3    1   28 1   
     4    1   29 1   
     5    2    3 1   
     6    2   30 1   
     7    2   31 1   
     8    3    4 1   
     9    3   32 1   
    10    3   50 1   
    11    4    5 2   
    12    4    6 1   
    13    6    7 1   
    14    6   33 1   
    15    7    8 1   
    16    7   34 1   
    17    7   35 1   
    18    8    9 ar  
    19    8   13 ar  
    20    9   10 ar  
    21    9   36 1   
    22   10   11 ar  
    23   10   37 1   
    24   11   12 ar  
    25   11   38 1   
    26   12   13 ar  
    27   12   39 1   
    28   13   14 1   
    29   14   15 1   
    30   14   51 1   
    31   15   16 1   
    32   15   26 2   
    33   16   17 2   
    34   16   40 1   
    35   17   18 1   
    36   17   42 1   
    37   18   19 2   
    38   18   25 1   
    39   19   20 1   
    40   20   21 2   
    41   21   22 1   
    42   21   25 1   
    43   22   23 1   
    44   22   24 1   
    45   22   43 1   
    46   23   44 1   
    47   23   45 1   
    48   23   46 1   
    49   24   47 1   
    50   24   48 1   
    51   24   49 1   
    52   25   26 1   
    53   26   41 1   
@<TRIPOS>SUBSTRUCTURE
     1 YIX         1 TEMP              0 ****  ****    0 ROOT
