@<TRIPOS>MOLECULE
YIX
   49    45     1     0     0
SMALL
bcc


@<TRIPOS>ATOM
      1 C1         -1.0540    7.4900   -3.5630 c3        1 YIX     -0.224000
      2 C2         -1.2270    6.0480   -4.0740 c3        1 YIX     -0.034000
      3 N3         -1.9280    5.2660   -3.0790 n         1 YIX     -0.356000
      4 C4         -1.6600    3.8500   -2.9490 c2        1 YIX      0.357000
      5 O5         -1.1880    3.2340   -3.8810 o         1 YIX     -0.400000
      6 N6         -1.9260    3.1730   -1.6930 n         1 YIX     -0.334000
      7 C7         -1.0980    2.0460   -1.2860 c3        1 YIX     -0.009000
      8 C8         -0.8860    2.0850    0.2330 c2        1 YIX     -0.115000
      9 C9         -0.5660    3.2780    0.8560 c2        1 YIX     -0.097000
     10 C10        -0.2550    3.2940    2.2140 c1        1 YIX     -0.134000
     11 C11        -0.2660    2.1040    2.9470 c1        1 YIX     -0.124500
     12 C12        -0.5880    0.9030    2.3200 c1        1 YIX     -0.124500
     13 C13        -0.8970    0.8880    0.9700 c1        1 YIX     -0.240000
     14 S14        -1.3550   -0.6410    0.1790 ss        1 YIX      0.353000
     15 C15        -0.8510   -2.0280    1.2130 c2        1 YIX     -0.318000
     16 C16        -1.6550   -2.4500    2.2400 c2        1 YIX     -0.100000
     17 C17        -1.3520   -3.6020    2.9170 c1        1 YIX     -0.084000
     18 C18        -0.2130   -4.3540    2.5560 c1        1 YIX     -0.051000
     19 N19         0.3260   -5.4940    3.0670 n1        1 YIX     -0.078000
     20 N20         1.4520   -5.7780    2.3650 n2        1 YIX     -0.051000
     21 C21         1.6110   -4.8200    1.4250 c1        1 YIX     -0.100000
     22 C22         2.6840   -5.1490    0.3810 c2        1 YIX     -0.018000
     23 C23         4.0360   -5.2800    1.0650 c3        1 YIX     -0.210000
     24 C24         2.3400   -6.4510   -0.3070 c3        1 YIX     -0.210000
     25 N25         0.5780   -3.9360    1.5430 n2        1 YIX     -0.095000
     26 C26         0.2710   -2.7680    0.8580 c1        1 YIX      0.020000
     27 H11C       -0.5710    8.0200   -4.2350 hc        1 YIX      0.082667
     28 H12C       -1.9370    7.8880   -3.4040 hc        1 YIX      0.082667
     29 H13C       -0.5430    7.4810   -2.7250 hc        1 YIX      0.082667
     30 H21C       -1.7480    6.0570   -4.9120 h1        1 YIX      0.092500
     31 H22C       -0.3460    5.6520   -4.2410 h1        1 YIX      0.092500
     32 H3         -2.5490    5.6640   -2.5420 hn        1 YIX      0.208000
     33 H6         -2.6190    3.4490   -1.1610 hn        1 YIX      0.205000
     34 H71C       -0.2250    2.1000   -1.7420 h1        1 YIX      0.120500
     35 H72C       -1.5430    1.2090   -1.5320 h1        1 YIX      0.120500
     36 H9         -0.5580    4.1180    0.3380 ha        1 YIX      0.165000
     37 H10        -0.0290    4.1390    2.6550 ha        1 YIX      0.138000
     38 H11        -0.0490    2.1150    3.8980 ha        1 YIX      0.137000
     39 H12        -0.5960    0.0590    2.8400 ha        1 YIX      0.137000
     40 H16        -2.4480   -1.9340    2.4820 ha        1 YIX      0.156000
     41 H26         0.8450   -2.4630    0.1350 ha        1 YIX      0.180000
     42 H17        -1.9250   -3.9040    3.6490 ha        1 YIX      0.171000
     43 H22         2.7240   -4.4360   -0.2770 ha        1 YIX      0.087000
     44 H231        4.2180   -4.4710    1.5870 hc        1 YIX      0.086333
     45 H232        4.0270   -6.0590    1.6600 hc        1 YIX      0.086333
     46 H233        4.7380   -5.3960    0.3830 hc        1 YIX      0.086333
     47 H241        1.3920   -6.4540   -0.5470 hc        1 YIX      0.086333
     48 H242        2.5260   -7.1990    0.2960 hc        1 YIX      0.086333
     49 H243        2.8840   -6.5440   -1.1200 hc        1 YIX      0.086333
@<TRIPOS>BOND
     1    1    2 1   
     2    1   27 1   
     3    1   28 1   
     4    1   29 1   
     5    2    3 1   
     6    2   30 1   
     7    2   31 1   
     8    3    4 1   
     9    3   32 1   
    10    4    5 1   
    11    4    6 1   
    12    6    7 1   
    13    6   33 1   
    14    7    8 1   
    15    7   34 1   
    16    7   35 1   
    17    8    9 1   
    18    8   13 1   
    19    9   10 1   
    20    9   36 1   
    21   10   37 1   
    22   11   12 1   
    23   11   38 1   
    24   12   39 1   
    25   13   14 1   
    26   14   15 1   
    27   15   16 1   
    28   15   26 1   
    29   16   17 1   
    30   16   40 1   
    31   17   42 1   
    32   18   25 1   
    33   19   20 1   
    34   20   21 1   
    35   21   25 1   
    36   22   23 1   
    37   22   24 1   
    38   22   43 1   
    39   23   44 1   
    40   23   45 1   
    41   23   46 1   
    42   24   47 1   
    43   24   48 1   
    44   24   49 1   
    45   26   41 1   
@<TRIPOS>SUBSTRUCTURE
     1 YIX         1 TEMP              0 ****  ****    0 ROOT
