@<TRIPOS>MOLECULE
YIY
   57    75     1     0     0
SMALL
bcc


@<TRIPOS>ATOM
      1 CAR         0.0000    0.0000    0.0000 c3        1 YIY      0.160000
      2 CAO         1.3830    0.0000    0.0000 c3        1 YIY      0.001000
      3 NBG        -0.6770   -0.0010    1.1310 n2        1 YIY      0.110000
      4 CAT        -0.0720   -0.0020    2.3020 c2        1 YIY     -0.182000
      5 CAQ         1.3130   -0.0010    2.3830 c2        1 YIY      0.231000
      6 OAY         1.9330    0.0000    3.5930 os        1 YIY     -0.073000
      7 CBC         3.2880   -0.1010    3.6170 c3        1 YIY      0.115000
      8 CAJ         4.0700    0.9960    3.2870 c2        1 YIY     -0.194000
      9 CAH         5.4470    0.8950    3.3100 c2        1 YIY     -0.159000
     10 CAK         3.8890   -1.2990    3.9740 c3        1 YIY     -0.221000
     11 CAI         5.2650   -1.4010    3.9980 c2        1 YIY      0.040000
     12 CBB         6.0490   -0.3050    3.6630 DU        1 YIY      0.491000
     13 NAV         7.4450   -0.4090    3.6860 ns        1 YIY     -0.117000
     14 CAZ         8.0410   -1.5630    3.3250 c2        1 YIY      0.329000
     15 OAE         7.3660   -2.5390    3.0560 o         1 YIY     -0.425000
     16 NAW         9.3770   -1.6350    3.2620 n2        1 YIY     -0.248000
     17 CBE         9.9640   -2.7720    2.9060 c3        1 YIY     -0.128000
     18 CAN         9.3160   -3.9800    2.5670 c3        1 YIY     -0.538000
     19 CBF        10.2610   -4.8970    2.2650 c3        1 YIY     -0.053000
     20 CBI         9.9970   -6.3210    1.8500 DU        1 YIY      0.343000
     21 CAD        10.5800   -6.5620    0.4570 c3        1 YIY     -0.632500
     22 CAB        10.6550   -7.2730    2.8500 c3        1 YIY     -0.632500
     23 CAC         8.4870   -6.5730    1.8220 c3        1 YIY     -0.110000
     24 NAU        11.4930   -4.3240    2.3970 n7        1 YIY     -0.281000
     25 NBH        11.3190   -2.9910    2.7930 n3        1 YIY      0.214000
     26 CBD        12.3320   -2.0580    3.0310 c3        1 YIY      0.112000
     27 CAL        12.0080   -0.7650    3.4240 c3        1 YIY     -0.304000
     28 CAF        13.0110    0.1550    3.6590 c3        1 YIY      0.109000
     29 C18         2.0590    0.0000    1.2090 c2        1 YIY     -0.465000
     30 CBA        14.3360   -0.2080    3.5040 c3        1 YIY     -0.294000
     31 CAG        14.6620   -1.4950    3.1120 c2        1 YIY     -0.028000
     32 CAM        13.6620   -2.4230    2.8810 c2        1 YIY      0.054000
     33 HAR         1.0640   -0.1160    0.1700 h1        1 YIY     -0.233000
     34 HAO         0.4110    0.0000   -0.4790 DU        1 YIY      0.117000
     35 H18         1.9960    0.0000    0.1280 DU        1 YIY      0.221000
     36 HAT         0.9570   -0.0010    1.9620 h4        1 YIY      0.076000
     37 HAK         2.8600   -1.0060    3.8030 DU        1 YIY      0.297000
     38 HAJ         3.8160   -0.0120    3.5910 ha        1 YIY      0.078000
     39 HAI         4.7980   -0.4640    3.7210 DU        1 YIY     -0.003000
     40 HAH         5.5390   -0.1390    3.6190 ha        1 YIY     -0.482000
     41 HAV         6.9220    0.4090    3.4450 DU        1 YIY      0.292000
     42 HAN         9.0170   -2.9920    2.8950 DU        1 YIY      0.386000
     43 HAU        10.5060   -4.2080    2.2740 DU        1 YIY      0.325000
     44 HAC1        9.4660   -6.1210    1.9260 hc        1 YIY      0.047333
     45 HAC2        8.0270   -5.9290    1.0830 hc        1 YIY      0.047333
     46 HAC3        8.0680   -6.3600    2.7980 hc        1 YIY      0.047333
     47 HAD1        9.6800   -6.9770    0.8940 DU        1 YIY      0.341500
     48 HAD2       11.6610   -6.5150    0.5050 hc        1 YIY      0.128500
     49 HAD3       10.2760   -7.5390    0.1020 hc        1 YIY      0.128500
     50 HAB1       10.5160   -6.8090    1.8810 DU        1 YIY      0.341500
     51 HAB2       10.4830   -6.9140    3.8570 hc        1 YIY      0.128500
     52 HAB3       11.7200   -7.3180    2.6590 hc        1 YIY      0.128500
     53 HAL        11.7580   -1.8150    3.3280 DU        1 YIY      0.281000
     54 HAM        12.8010   -1.8010    3.0930 ha        1 YIY     -0.301000
     55 HAF        13.2660   -0.8530    3.3540 DU        1 YIY      0.290000
     56 HBA        13.5380    0.4870    3.7380 DU        1 YIY      0.151000
     57 F32        15.9580   -1.8470    2.9630 f         1 YIY     -0.060000
@<TRIPOS>BOND
     1    1    2 1   
     2    1    3 1   
     3    1   33 1   
     4    1   34 1   
     5    2   29 1   
     6    2   34 1   
     7    2   35 1   
     8    3    4 1   
     9    4    5 1   
    10    4   36 1   
    11    5    6 1   
    12    5   29 1   
    13    6    7 1   
    14    7    8 1   
    15    7   10 1   
    16    7   37 1   
    17    8    9 1   
    18    8   38 1   
    19    9   12 1   
    20    9   40 1   
    21   10   11 1   
    22   10   37 1   
    23   10   39 1   
    24   11   12 1   
    25   11   39 1   
    26   12   13 1   
    27   12   39 1   
    28   12   41 1   
    29   13   14 1   
    30   13   41 1   
    31   14   15 1   
    32   14   16 1   
    33   16   17 1   
    34   17   18 1   
    35   17   25 1   
    36   17   42 1   
    37   18   19 1   
    38   18   42 1   
    39   18   43 1   
    40   19   20 1   
    41   19   24 1   
    42   19   43 1   
    43   20   21 1   
    44   20   22 1   
    45   20   23 1   
    46   20   47 1   
    47   20   50 1   
    48   21   47 1   
    49   21   48 1   
    50   21   49 1   
    51   22   50 1   
    52   22   51 1   
    53   22   52 1   
    54   23   44 1   
    55   23   45 1   
    56   23   46 1   
    57   24   25 1   
    58   24   43 1   
    59   25   26 1   
    60   26   27 1   
    61   26   32 1   
    62   26   53 1   
    63   27   28 1   
    64   27   53 1   
    65   27   55 1   
    66   28   30 1   
    67   28   55 1   
    68   28   56 1   
    69   29   35 1   
    70   30   31 1   
    71   30   55 1   
    72   30   56 1   
    73   31   32 1   
    74   31   57 1   
    75   32   54 1   
@<TRIPOS>SUBSTRUCTURE
     1 YIY         1 TEMP              0 ****  ****    0 ROOT
