@<TRIPOS>MOLECULE
YIY
   57    51     1     0     0
SMALL
bcc


@<TRIPOS>ATOM
      1 CAR         2.0980   -8.3100    2.2920 c1        1 YIY     -0.104000
      2 CAO         0.7870   -8.0630    2.6740 c1        1 YIY     -0.150000
      3 NBG         3.0780   -7.4140    2.5970 n1        1 YIY     -0.116000
      4 CAT         2.7720   -6.2740    3.2780 c1        1 YIY     -0.086000
      5 CAQ         1.4630   -6.0240    3.6610 c1        1 YIY      0.020000
      6 OAY         1.1790   -4.9450    4.5170 o         1 YIY     -0.148000
      7 CBC         0.7690   -3.8210    3.7470 c2        1 YIY      0.011000
      8 CAJ         1.7280   -3.0230    3.1360 c2        1 YIY     -0.130000
      9 CAH         1.3650   -1.8010    2.5810 c1        1 YIY     -0.140000
     10 CAK        -0.5500   -3.3970    3.8030 c1        1 YIY     -0.103000
     11 CAI        -0.9130   -2.1720    3.2470 c1        1 YIY     -0.173000
     12 CBB         0.0430   -1.3750    2.6370 c1        1 YIY      0.079000
     13 NAV        -0.2790   -0.0090    2.3040 n         1 YIY     -0.295000
     14 CAZ        -0.3150    0.4090    0.9250 c2        1 YIY      0.373000
     15 OAE        -0.0720   -0.3950    0.0370 o         1 YIY     -0.391000
     16 NAW        -0.7620    1.7350    0.5910 n2        1 YIY     -0.282000
     17 CBE        -0.9110    2.0870   -0.6820 c1        1 YIY      0.170000
     18 CAN        -0.6840    1.3120   -1.8120 c1        1 YIY     -0.246000
     19 CBF        -0.9230    1.9470   -2.9510 c1        1 YIY     -0.003000
     20 CBI        -0.1840    1.5440   -4.2170 c2        1 YIY     -0.005000
     21 CAD        -0.7940    2.2530   -5.4040 c3        1 YIY     -0.209667
     22 CAB         1.2760    1.9310   -4.0940 c3        1 YIY     -0.209667
     23 CAC        -0.2950    0.0470   -4.4120 c3        1 YIY     -0.209667
     24 NAU        -1.3500    3.2560   -2.7840 n3        1 YIY     -0.136000
     25 NBH        -1.3750    3.4460   -1.2350 n3        1 YIY     -0.086000
     26 CBD        -1.3380    4.6900   -0.5420 c2        1 YIY      0.020000
     27 CAL        -2.5100    5.2450   -0.0500 c2        1 YIY     -0.095000
     28 CAF        -2.4720    6.4500    0.6350 c1        1 YIY     -0.101000
     29 C18         0.4790   -6.9250    3.3540 c2        1 YIY     -0.152000
     30 CBA        -1.2640    7.0980    0.8280 c1        1 YIY     -0.160000
     31 F32         1.0800    7.1490    0.5610 f         1 YIY     -0.102000
     32 CAG        -0.0930    6.5430    0.3360 c1        1 YIY      0.103000
     33 CAM        -0.1310    5.3380   -0.3490 c1        1 YIY     -0.200000
     34 HAR         2.3180   -9.1270    1.8050 ha        1 YIY      0.161000
     35 HAO         0.0890   -8.7030    2.4560 ha        1 YIY      0.145000
     36 H18        -0.4460   -6.7510    3.6240 ha        1 YIY      0.154000
     37 HAT         3.4760   -5.6310    3.4960 ha        1 YIY      0.175000
     38 HAK        -1.2230   -3.9560    4.2310 ha        1 YIY      0.152000
     39 HAJ         2.6550   -3.3200    3.0950 ha        1 YIY      0.150000
     40 HAI        -1.8400   -1.8760    3.2870 ha        1 YIY      0.136000
     41 HAH         2.0390   -1.2430    2.1530 ha        1 YIY      0.179000
     42 HAV        -0.4670    0.5900    2.9670 hn        1 YIY      0.244000
     43 HAN        -0.0290    0.5900   -1.7840 ha        1 YIY      0.206000
     44 HAU        -1.2930    3.9250   -3.4070 hn        1 YIY      0.189000
     45 HAC1       -1.2030   -0.2410   -4.2050 hc        1 YIY      0.084667
     46 HAC2       -0.0870   -0.1770   -5.3410 hc        1 YIY      0.084667
     47 HAC3        0.3310   -0.4050   -3.8210 hc        1 YIY      0.084667
     48 HAD1       -0.4410    1.8690   -6.2310 hc        1 YIY      0.084667
     49 HAD2       -0.5710    3.2030   -5.3650 hc        1 YIY      0.084667
     50 HAD3       -1.7670    2.1460   -5.3830 hc        1 YIY      0.084667
     51 HAB1        1.7350    1.7460   -4.9410 hc        1 YIY      0.084667
     52 HAB2        1.6920    1.4110   -3.3770 hc        1 YIY      0.084667
     53 HAB3        1.3440    2.8900   -3.8860 hc        1 YIY      0.084667
     54 HAL        -3.3630    4.7860   -0.1870 ha        1 YIY      0.163000
     55 HAM         0.6880    4.9500   -0.6930 ha        1 YIY      0.145000
     56 HAF        -3.3010    6.8420    0.9830 ha        1 YIY      0.145000
     57 HBA        -1.2380    7.9520    1.3130 ha        1 YIY      0.154000
@<TRIPOS>BOND
     1    1    3 1   
     2    1   34 1   
     3    2   29 1   
     4    2   35 1   
     5    4    5 1   
     6    4   37 1   
     7    5   29 1   
     8    6    7 1   
     9    7    8 1   
    10    7   10 1   
    11    8    9 1   
    12    8   39 1   
    13    9   41 1   
    14   10   38 1   
    15   11   12 1   
    16   11   40 1   
    17   12   13 1   
    18   13   14 1   
    19   13   42 1   
    20   14   15 1   
    21   14   16 1   
    22   16   17 1   
    23   17   25 1   
    24   18   19 1   
    25   18   43 1   
    26   19   24 1   
    27   20   21 1   
    28   20   22 1   
    29   20   23 1   
    30   21   48 1   
    31   21   49 1   
    32   21   50 1   
    33   22   51 1   
    34   22   52 1   
    35   22   53 1   
    36   23   45 1   
    37   23   46 1   
    38   23   47 1   
    39   24   25 1   
    40   24   44 1   
    41   25   26 1   
    42   26   27 1   
    43   26   33 1   
    44   27   28 1   
    45   27   54 1   
    46   28   56 1   
    47   29   36 1   
    48   30   32 1   
    49   30   57 1   
    50   31   32 1   
    51   33   55 1   
@<TRIPOS>SUBSTRUCTURE
     1 YIY         1 TEMP              0 ****  ****    0 ROOT
