@<TRIPOS>MOLECULE
YIY
   57    60     1     0     0
SMALL
bcc


@<TRIPOS>ATOM
      1 CAR        -9.1310   -0.4630   -1.1170 ca        1 YIY      0.361200
      2 CAO        -7.8510   -0.4350   -1.6960 ca        1 YIY     -0.214300
      3 NBG        -9.4300    0.1270    0.0590 nb        1 YIY     -0.642000
      4 CAT        -8.4460    0.7690    0.7060 ca        1 YIY      0.378200
      5 CAQ        -7.1240    0.8460    0.1930 ca        1 YIY     -0.000200
      6 OAY        -6.2390    1.5930    0.9520 os        1 YIY     -0.239200
      7 CBC        -4.8820    1.4170    0.6770 ca        1 YIY      0.056100
      8 CAJ        -4.1270    2.5770    0.4640 ca        1 YIY     -0.117000
      9 CAH        -2.7510    2.4750    0.3130 ca        1 YIY     -0.156000
     10 CAK        -4.2680    0.1630    0.7330 ca        1 YIY     -0.117000
     11 CAI        -2.8900    0.0590    0.5780 ca        1 YIY     -0.156000
     12 CBB        -2.1050    1.2130    0.3640 ca        1 YIY      0.071600
     13 NAV        -0.7090    1.1820    0.2370 n         1 YIY     -0.443100
     14 CAZ         0.0570    0.0610   -0.1040 c         1 YIY      0.819500
     15 OAE        -0.4380   -1.0880   -0.1770 o         1 YIY     -0.635100
     16 NAW         1.4340    0.3590   -0.3700 ne        1 YIY     -0.725100
     17 CBE         2.3260   -0.5920   -0.3700 cd        1 YIY      0.712500
     18 CAN         2.2420   -2.0470   -0.0640 cd        1 YIY     -0.324600
     19 CBF         3.5050   -2.5640   -0.1700 cc        1 YIY      0.082800
     20 CBI         3.9560   -3.9810    0.0110 c3        1 YIY     -0.001800
     21 CAD         4.7150   -4.4460   -1.2280 c3        1 YIY     -0.091433
     22 CAB         4.8650   -4.0760    1.2310 c3        1 YIY     -0.091433
     23 CAC         2.7410   -4.8780    0.2180 c3        1 YIY     -0.091433
     24 NAU         4.4570   -1.5130   -0.4440 na        1 YIY     -0.442800
     25 NBH         3.7230   -0.3520   -0.7650 na        1 YIY     -0.358800
     26 CBD         4.2980    0.9040   -0.3480 ca        1 YIY      0.127600
     27 CAL         3.9310    2.0550   -1.0770 ca        1 YIY     -0.111000
     28 CAF         4.4950    3.2870   -0.7570 ca        1 YIY     -0.107000
     29 C18        -6.8230    0.2340   -1.0290 ca        1 YIY     -0.152000
     30 CBA         5.4250    3.4090    0.2700 ca        1 YIY     -0.164000
     31 CAG         5.7900    2.2630    0.9980 ca        1 YIY      0.126900
     32 CAM         5.2270    1.0100    0.7000 ca        1 YIY     -0.169000
     33 HAR        -9.9680   -0.9830   -1.6150 h4        1 YIY      0.024100
     34 HAO        -7.6640   -0.9300   -2.6580 ha        1 YIY      0.145000
     35 H18        -5.8070    0.2780   -1.4450 ha        1 YIY      0.155000
     36 HAT        -8.7010    1.2500    1.6660 h4        1 YIY      0.038100
     37 HAK        -4.8760   -0.7390    0.9000 ha        1 YIY      0.150500
     38 HAJ        -4.6250    3.5570    0.4310 ha        1 YIY      0.150500
     39 HAI        -2.4220   -0.9390    0.6240 ha        1 YIY      0.157000
     40 HAH        -2.1670    3.3950    0.1520 ha        1 YIY      0.157000
     41 HAV        -0.2600    2.0730    0.2120 hn        1 YIY      0.331500
     42 HAN         1.3040   -2.5390    0.1950 ha        1 YIY      0.205000
     43 HAU         5.0500   -1.7320   -1.2350 hn        1 YIY      0.410800
     44 HAC1        2.0550   -4.8160   -0.6610 hc        1 YIY      0.045700
     45 HAC2        3.0730   -5.9370    0.3410 hc        1 YIY      0.045700
     46 HAC3        2.1810   -4.5710    1.1340 hc        1 YIY      0.045700
     47 HAD1        5.6890   -3.9100   -1.3250 hc        1 YIY      0.045700
     48 HAD2        4.9270   -5.5400   -1.1480 hc        1 YIY      0.045700
     49 HAD3        4.1090   -4.2680   -2.1480 hc        1 YIY      0.045700
     50 HAB1        4.3280   -3.7200    2.1430 hc        1 YIY      0.045700
     51 HAB2        5.1700   -5.1390    1.3870 hc        1 YIY      0.045700
     52 HAB3        5.7830   -3.4580    1.0910 hc        1 YIY      0.045700
     53 HAL         3.1920    1.9880   -1.8920 ha        1 YIY      0.159000
     54 HAM         5.5310    0.1380    1.2990 ha        1 YIY      0.164000
     55 HAF         4.2000    4.1800   -1.3300 ha        1 YIY      0.142000
     56 HBA         5.8730    4.3810    0.5190 ha        1 YIY      0.151000
     57 F32         6.6920    2.3630    2.0050 f         1 YIY     -0.139900
@<TRIPOS>BOND
     1    1    2 ar  
     2    1    3 ar  
     3    1   33 1   
     4    2   29 ar  
     5    2   34 1   
     6    3    4 ar  
     7    4    5 ar  
     8    4   36 1   
     9    5    6 1   
    10    5   29 ar  
    11    6    7 1   
    12    7    8 ar  
    13    7   10 ar  
    14    8    9 ar  
    15    8   38 1   
    16    9   12 ar  
    17    9   40 1   
    18   10   11 ar  
    19   10   37 1   
    20   11   12 ar  
    21   11   39 1   
    22   12   13 1   
    23   13   14 1   
    24   13   41 1   
    25   14   15 2   
    26   14   16 1   
    27   16   17 2   
    28   17   18 1   
    29   17   25 1   
    30   18   19 2   
    31   18   42 1   
    32   19   20 1   
    33   19   24 1   
    34   20   21 1   
    35   20   22 1   
    36   20   23 1   
    37   21   47 1   
    38   21   48 1   
    39   21   49 1   
    40   22   50 1   
    41   22   51 1   
    42   22   52 1   
    43   23   44 1   
    44   23   45 1   
    45   23   46 1   
    46   24   25 1   
    47   24   43 1   
    48   25   26 1   
    49   26   27 ar  
    50   26   32 ar  
    51   27   28 ar  
    52   27   53 1   
    53   28   30 ar  
    54   28   55 1   
    55   29   35 1   
    56   30   31 ar  
    57   30   56 1   
    58   31   32 ar  
    59   31   57 1   
    60   32   54 1   
@<TRIPOS>SUBSTRUCTURE
     1 YIY         1 TEMP              0 ****  ****    0 ROOT
