@<TRIPOS>MOLECULE
YIY
   58    58     1     0     0
SMALL
bcc


@<TRIPOS>ATOM
      1 CAR         1.0060   -0.1200   -1.8570 c2        1 YIY      0.030000
      2 CAO         0.2910    0.4320   -0.6420 c3        1 YIY     -0.306000
      3 NBG         2.1280   -0.7740   -1.7240 n2        1 YIY     -0.168000
      4 CAT         2.7270   -0.9190   -0.5420 c1        1 YIY     -0.029000
      5 CAQ         2.5610    0.2490    0.4020 c3        1 YIY     -0.171000
      6 OAY         3.1740   -0.0110    1.6980 os        1 YIY     -0.063000
      7 CBC         3.4450   -1.2610    2.0190 c2        1 YIY      0.404000
      8 CAJ         4.0490   -1.4820    3.2370 c1        1 YIY     -0.370000
      9 CAH         4.6060   -1.7040    4.2900 c1        1 YIY      0.214000
     10 CAK         5.5370   -1.8690    7.5860 c2        1 YIY     -0.160000
     11 CAI         6.7270   -1.4510    7.2870 c1        1 YIY     -0.224000
     12 CBB         7.9550   -1.0220    7.1030 c2        1 YIY      0.036000
     13 NAV         8.7170   -1.0290    5.9380 n         1 YIY     -0.300000
     14 CAZ         8.3030   -1.5410    4.7080 c2        1 YIY      0.387000
     15 OAE         7.1610   -2.0550    4.5700 o         1 YIY     -0.460000
     16 NAW         9.2040   -1.3550    3.6190 n2        1 YIY     -0.306000
     17 CBE         9.4910   -2.3520    2.8250 c2        1 YIY      0.183000
     18 CAN         9.1400   -3.7940    2.8910 c2        1 YIY     -0.274000
     19 CBF         9.7780   -4.4200    1.8500 c2        1 YIY      0.036000
     20 CBI         9.7480   -5.8690    1.4650 c3        1 YIY     -0.011000
     21 CAD         9.3800   -6.0100   -0.0070 c3        1 YIY     -0.210000
     22 CAB        11.1220   -6.4850    1.7090 c3        1 YIY     -0.210000
     23 CAC         8.7130   -6.5990    2.3130 c3        1 YIY     -0.210000
     24 NAU        10.6050   -3.4820    1.1400 na        1 YIY     -0.167000
     25 NBH        10.2710   -2.1850    1.5890 na        1 YIY     -0.090000
     26 CBD        11.3370   -1.2350    1.6510 c2        1 YIY     -0.116000
     27 CAL        11.5080    0.7500    5.3870 c1        1 YIY     -0.225000
     28 CAF        11.8700    1.0430    6.4890 c1        1 YIY     -0.225000
     29 C18         1.1140    0.5780    0.5570 c1        1 YIY      0.068000
     30 CBA        13.9800   -1.0010    1.2560 cu        1 YIY     -0.126000
     31 CAG        13.7430   -2.3090    1.1020 cu        1 YIY      0.092000
     32 CAM        12.6210   -1.4690    1.4220 cu        1 YIY     -0.098000
     33 HAR        -0.1590    1.4420   -0.8940 hc        1 YIY      0.205500
     34 HAO         0.5610    0.0200   -2.8610 h4        1 YIY      0.204000
     35 H18        -0.5960   -0.2170   -0.3640 hc        1 YIY      0.205500
     36 HAT         3.0980    1.2010    0.0790 h1        1 YIY      0.223000
     37 HAK         5.3440   -2.8970    7.9310 ha        1 YIY      0.125500
     38 HAJ         3.2140   -2.1000    1.3150 h4        1 YIY      0.235000
     39 HAI         4.6540   -1.2130    7.5480 ha        1 YIY      0.125500
     40 HAH         8.5080   -0.5920    7.9680 h4        1 YIY      0.166000
     41 HAV         5.1270   -1.9110    5.2170 ha        1 YIY      0.305000
     42 HAN         8.5020   -4.2150    3.6650 ha        1 YIY      0.186000
     43 HAU        10.4810   -3.5200    0.1380 hn        1 YIY      0.215000
     44 HAC1        8.9790   -6.5350    3.3950 hc        1 YIY      0.086889
     45 HAC2        7.7000   -6.1550    2.1630 hc        1 YIY      0.086889
     46 HAC3        8.6800   -7.6760    2.0180 hc        1 YIY      0.086889
     47 HAD1        9.2190   -7.0890   -0.2500 hc        1 YIY      0.086889
     48 HAD2       10.1980   -5.6270   -0.6630 hc        1 YIY      0.086889
     49 HAD3        8.4400   -5.4520   -0.2330 hc        1 YIY      0.086889
     50 HAB1       11.0950   -7.5700    1.4460 hc        1 YIY      0.086889
     51 HAB2       11.4090   -6.3830    2.7830 hc        1 YIY      0.086889
     52 HAB3       11.8980   -5.9840    1.0820 hc        1 YIY      0.086889
     53 HAL        11.1940    0.4920    4.4040 ha        1 YIY      0.227000
     54 HAM        10.9580   -0.2210    1.8770 h4        1 YIY      0.182000
     55 HAF        14.6440   -0.1590    1.2680 ha        1 YIY      0.211000
     56 HBA        12.2010    1.3090    7.4620 ha        1 YIY      0.227000
     57 F32        14.1590   -3.5210    0.8500 f         1 YIY     -0.018000
     58 HAV2        9.6080   -0.5770    5.9930 hn        1 YIY      0.262000
@<TRIPOS>BOND
     1    1    2 1   
     2    1    3 1   
     3    1   34 1   
     4    2   29 1   
     5    2   33 1   
     6    2   35 1   
     7    3    4 1   
     8    4    5 1   
     9    5    6 1   
    10    5   29 1   
    11    5   36 1   
    12    6    7 1   
    13    7    8 1   
    14    7   38 1   
    15    8    9 1   
    16    9   41 1   
    17   10   11 1   
    18   10   37 1   
    19   10   39 1   
    20   11   12 1   
    21   12   13 1   
    22   12   40 1   
    23   13   14 1   
    24   13   58 1   
    25   14   15 1   
    26   14   16 1   
    27   16   17 1   
    28   17   18 1   
    29   17   25 1   
    30   18   19 1   
    31   18   42 1   
    32   19   20 1   
    33   19   24 1   
    34   20   21 1   
    35   20   22 1   
    36   20   23 1   
    37   21   47 1   
    38   21   48 1   
    39   21   49 1   
    40   22   50 1   
    41   22   51 1   
    42   22   52 1   
    43   23   44 1   
    44   23   45 1   
    45   23   46 1   
    46   24   25 1   
    47   24   43 1   
    48   25   26 1   
    49   26   32 1   
    50   26   54 1   
    51   27   28 1   
    52   27   53 1   
    53   28   56 1   
    54   30   31 1   
    55   30   32 1   
    56   30   55 1   
    57   31   32 1   
    58   31   57 1   
@<TRIPOS>SUBSTRUCTURE
     1 YIY         1 TEMP              0 ****  ****    0 ROOT
