@<TRIPOS>MOLECULE
YJ2
   61    65     1     0     0
SMALL
bcc


@<TRIPOS>ATOM
      1 C1         -0.6270    0.2120    0.1680 c3        1 YJ2      0.050700
      2 N2          0.7150    0.7550    0.1300 n         1 YJ2     -0.464800
      3 C3          1.1130    1.2350    1.4470 c3        1 YJ2      0.104000
      4 C4          0.0450    0.7970    2.4670 c3        1 YJ2     -0.277900
      5 C5         -1.0690    0.1480    1.6510 c3        1 YJ2     -0.060400
      6 C6         -1.6310    1.0650   -0.6320 c         1 YJ2      0.537100
      7 O7         -2.5180    1.7760   -0.1940 o         1 YJ2     -0.407100
      8 S8          0.6970   -0.2410    3.7420 sy        1 YJ2      1.372300
      9 C9          0.0630    0.5000    5.0960 ca        1 YJ2     -0.408500
     10 C10         0.4220    1.7640    5.5950 ca        1 YJ2      0.128400
     11 C11        -0.1160    2.2620    6.7850 ca        1 YJ2     -0.145000
     12 C12        -1.0370    1.4990    7.5010 ca        1 YJ2     -0.037000
     13 C13        -1.4190    0.2440    7.0240 ca        1 YJ2     -0.146000
     14 C14        -0.8740   -0.2420    5.8420 ca        1 YJ2     -0.019000
     15 Cl1         1.5340    2.7410    4.7600 cl        1 YJ2     -0.067400
     16 N16        -1.5360    0.9250   -2.1380 ny        1 YJ2     -0.647800
     17 C17        -1.6000    2.2100   -2.8670 cx        1 YJ2     -0.099100
     18 C18        -0.3540    3.0490   -2.7630 c2        1 YJ2      0.446200
     19 C19        -2.3640    2.2730   -4.1860 cx        1 YJ2     -0.086400
     20 C20        -2.9270    2.9490   -2.9800 cx        1 YJ2     -0.086400
     21 C21         1.6270    0.3280   -0.8390 c         1 YJ2      0.737100
     22 O22         1.1570   -0.0730   -1.9310 o         1 YJ2     -0.663100
     23 C23         3.1040    0.3820   -0.5810 cx        1 YJ2     -0.157700
     24 C24         3.6190   -0.9330   -0.1450 ca        1 YJ2     -0.088300
     25 C25         3.9660   -1.1710    1.1890 ca        1 YJ2     -0.110500
     26 C26         4.4720   -2.4140    1.5690 ca        1 YJ2     -0.101000
     27 C27         4.6350   -3.4280    0.6210 ca        1 YJ2     -0.011900
     28 C28         4.2870   -3.1930   -0.7130 ca        1 YJ2     -0.101000
     29 C29         3.7810   -1.9530   -1.0930 ca        1 YJ2     -0.110500
     30 Br3         5.3150   -5.0930    1.1320 br        1 YJ2     -0.058100
     31 C31         3.9460    1.2300   -1.5150 cx        1 YJ2     -0.093400
     32 C32         3.7520    1.6600   -0.0980 cx        1 YJ2     -0.093400
     33 O33         0.1280   -1.5120    3.5750 o         1 YJ2     -0.636800
     34 O34         2.0910   -0.1640    3.6800 o         1 YJ2     -0.636800
     35 N35         0.8530    2.7320   -2.9910 n2        1 YJ2     -0.712100
     36 H36         3.8430   -0.3880    1.9570 ha        1 YJ2      0.153000
     37 H37         4.7400   -2.5850    2.6250 ha        1 YJ2      0.159500
     38 H38         4.4130   -3.9830   -1.4710 ha        1 YJ2      0.159500
     39 H39         3.5060   -1.7680   -2.1430 ha        1 YJ2      0.153000
     40 H40         4.9270    0.8280   -1.8330 hc        1 YJ2      0.093450
     41 H41         3.4440    1.7890   -2.3260 hc        1 YJ2      0.093450
     42 H42         3.1180    2.5400    0.1150 hc        1 YJ2      0.093450
     43 H43         4.5930    1.5740    0.6170 hc        1 YJ2      0.093450
     44 H44        -0.5710    4.1010   -2.4720 h4        1 YJ2      0.054800
     45 H1         -0.6480   -0.8250   -0.2900 h1        1 YJ2      0.105700
     46 H51C       -1.2160   -0.9300    1.9330 hc        1 YJ2      0.102700
     47 H52C       -2.0390    0.6820    1.8120 hc        1 YJ2      0.102700
     48 H31C        2.1370    0.8430    1.7180 h1        1 YJ2      0.094200
     49 H32C        1.1670    2.3600    1.4070 h1        1 YJ2      0.094200
     50 H4         -0.3680    1.7320    2.9350 h1        1 YJ2      0.128700
     51 H16        -2.3190    0.3370   -2.4500 hn        1 YJ2      0.472800
     52 H14        -1.1730   -1.2460    5.4810 ha        1 YJ2      0.174000
     53 H11         0.1920    3.2520    7.1610 ha        1 YJ2      0.169000
     54 H12        -1.4580    1.8880    8.4430 ha        1 YJ2      0.160000
     55 H13        -2.1450   -0.3650    7.5870 ha        1 YJ2      0.161000
     56 H191       -1.9180    2.8790   -5.0000 hc        1 YJ2      0.111200
     57 H192       -2.8580    1.3650   -4.5810 hc        1 YJ2      0.111200
     58 H201       -3.8250    2.5310   -2.4860 hc        1 YJ2      0.111200
     59 H202       -2.9010    4.0540   -2.9050 hc        1 YJ2      0.111200
     60 H35         1.0780    1.7960   -3.2610 hn        1 YJ2      0.415400
     61 H162       -0.6500    0.4420   -2.3810 hn        1 YJ2      0.472800
@<TRIPOS>BOND
     1    1    2 1   
     2    1    5 1   
     3    1    6 1   
     4    1   45 1   
     5    2    3 1   
     6    2   21 1   
     7    3    4 1   
     8    3   48 1   
     9    3   49 1   
    10    4    5 1   
    11    4    8 1   
    12    4   50 1   
    13    5   46 1   
    14    5   47 1   
    15    6    7 2   
    16    6   16 1   
    17    8    9 1   
    18    8   33 2   
    19    8   34 2   
    20    9   10 ar  
    21    9   14 ar  
    22   10   11 ar  
    23   10   15 1   
    24   11   12 ar  
    25   11   53 1   
    26   12   13 ar  
    27   12   54 1   
    28   13   14 ar  
    29   13   55 1   
    30   14   52 1   
    31   16   17 1   
    32   16   51 1   
    33   16   61 1   
    34   17   18 1   
    35   17   19 1   
    36   17   20 1   
    37   18   35 2   
    38   18   44 1   
    39   19   20 1   
    40   19   56 1   
    41   19   57 1   
    42   20   58 1   
    43   20   59 1   
    44   21   22 2   
    45   21   23 1   
    46   23   24 1   
    47   23   31 1   
    48   23   32 1   
    49   24   25 ar  
    50   24   29 ar  
    51   25   26 ar  
    52   25   36 1   
    53   26   27 ar  
    54   26   37 1   
    55   27   28 ar  
    56   27   30 1   
    57   28   29 ar  
    58   28   38 1   
    59   29   39 1   
    60   31   32 1   
    61   31   40 1   
    62   31   41 1   
    63   32   42 1   
    64   32   43 1   
    65   35   60 1   
@<TRIPOS>SUBSTRUCTURE
     1 YJ2         1 TEMP              0 ****  ****    0 ROOT
