@<TRIPOS>MOLECULE
YJ2
   60    64     1     0     0
SMALL
bcc


@<TRIPOS>ATOM
      1 C1          1.6330   -1.1660   -1.1770 c3        1 YJ2      0.034700
      2 N2          0.7060   -1.2200   -0.0540 n         1 YJ2     -0.456800
      3 C3          0.7300    0.0150    0.7060 c3        1 YJ2      0.126000
      4 C4          1.6800    0.9990   -0.0090 c3        1 YJ2     -0.296900
      5 C5          2.0870    0.3030   -1.3090 c3        1 YJ2     -0.057400
      6 C6          2.8530   -2.1060   -0.9950 c         1 YJ2      0.658100
      7 O7          4.0140   -1.6590   -1.0980 o         1 YJ2     -0.630100
      8 S8          0.9730    2.5640   -0.2250 sy        1 YJ2      1.367300
      9 C9          2.3580    3.5310   -0.1680 ca        1 YJ2     -0.368500
     10 C10         3.1360    3.8000    0.9700 ca        1 YJ2      0.127400
     11 C11         4.2440    4.6530    0.9130 ca        1 YJ2     -0.152000
     12 C12         4.5960    5.2510   -0.2950 ca        1 YJ2     -0.055000
     13 C13         3.8410    4.9990   -1.4410 ca        1 YJ2     -0.151000
     14 C14         2.7410    4.1520   -1.3700 ca        1 YJ2     -0.023000
     15 CL1         2.7650    3.0930    2.4700 cl        1 YJ2     -0.066400
     16 N16         2.5720   -3.4330   -0.7820 n         1 YJ2     -0.513900
     17 C17         3.5510   -4.4490   -0.5690 cx        1 YJ2     -0.001900
     18 C18         2.9950   -5.8040   -0.2090 c2        1 YJ2      0.455200
     19 C19         4.8410   -4.4970   -1.3860 cx        1 YJ2     -0.127900
     20 C20         4.9070   -4.1690    0.0740 cx        1 YJ2     -0.127900
     21 C21        -0.3790   -2.0860   -0.0600 c         1 YJ2      0.703100
     22 O22        -0.4310   -3.0040   -0.9040 o         1 YJ2     -0.606100
     23 C23        -1.4410   -1.9290    0.9980 cx        1 YJ2     -0.155700
     24 C24        -2.5710   -1.0990    0.5370 ca        1 YJ2     -0.054300
     25 C25        -2.8900    0.1120    1.1600 ca        1 YJ2     -0.116000
     26 C26        -3.9710    0.8710    0.7140 ca        1 YJ2     -0.102000
     27 C27        -4.7450    0.4230   -0.3600 ca        1 YJ2     -0.019900
     28 C28        -4.4260   -0.7820   -0.9930 ca        1 YJ2     -0.102000
     29 C29        -3.3440   -1.5370   -0.5480 ca        1 YJ2     -0.116000
     30 BR3        -6.2040    1.4370   -0.9530 br        1 YJ2     -0.087100
     31 C31        -1.7170   -3.1490    1.8540 cx        1 YJ2     -0.101400
     32 C32        -1.0360   -1.9610    2.4530 cx        1 YJ2     -0.101400
     33 O33         0.4080    2.6580   -1.5080 o         1 YJ2     -0.642800
     34 O34         0.1130    2.8310    0.8470 o         1 YJ2     -0.642800
     35 N35         1.9610   -5.9700    0.5230 n2        1 YJ2     -0.764100
     36 H36        -2.2860    0.4780    2.0050 ha        1 YJ2      0.151000
     37 H37        -4.2020    1.8250    1.2130 ha        1 YJ2      0.150500
     38 H38        -5.0230   -1.1410   -1.8460 ha        1 YJ2      0.150500
     39 H39        -3.0810   -2.4810   -1.0520 ha        1 YJ2      0.151000
     40 H40        -2.7640   -3.3700    2.1280 hc        1 YJ2      0.086200
     41 H41        -1.1330   -4.0670    1.6540 hc        1 YJ2      0.086200
     42 H42         0.0390   -2.0250    2.7030 hc        1 YJ2      0.086200
     43 H43        -1.5890   -1.3250    3.1690 hc        1 YJ2      0.086200
     44 H44         3.6130   -6.6270   -0.6330 h4        1 YJ2     -0.030200
     45 H1          1.1090   -1.5010   -2.1230 h1        1 YJ2      0.095700
     46 H51C        3.1920    0.3650   -1.4720 hc        1 YJ2      0.090700
     47 H52C        1.5690    0.7680   -2.1890 hc        1 YJ2      0.090700
     48 H31C       -0.3080    0.4490    0.8010 h1        1 YJ2      0.068200
     49 H32C        1.1110   -0.2020    1.7430 h1        1 YJ2      0.068200
     50 H4          2.6050    1.0760    0.6280 h1        1 YJ2      0.127700
     51 H16         1.6160   -3.7190   -0.7220 hn        1 YJ2      0.354500
     52 H14         2.1430    3.9630   -2.2830 ha        1 YJ2      0.173000
     53 H11         4.8350    4.8510    1.8200 ha        1 YJ2      0.157000
     54 H12         5.4680    5.9220   -0.3410 ha        1 YJ2      0.146000
     55 H13         4.1130    5.4690   -2.3980 ha        1 YJ2      0.150000
     56 H191        5.2010   -5.4770   -1.7440 hc        1 YJ2      0.084200
     57 H192        5.0350   -3.6850   -2.1120 hc        1 YJ2      0.084200
     58 H201        5.1540   -3.1320    0.3700 hc        1 YJ2      0.084200
     59 H202        5.3050   -4.9160    0.7830 hc        1 YJ2      0.084200
     60 H35         1.7100   -6.9200    0.7020 hn        1 YJ2      0.391400
@<TRIPOS>BOND
     1    1    2 1   
     2    1    5 1   
     3    1    6 1   
     4    1   45 1   
     5    2    3 1   
     6    2   21 1   
     7    3    4 1   
     8    3   48 1   
     9    3   49 1   
    10    4    5 1   
    11    4    8 1   
    12    4   50 1   
    13    5   46 1   
    14    5   47 1   
    15    6    7 2   
    16    6   16 1   
    17    8    9 1   
    18    8   33 2   
    19    8   34 2   
    20    9   10 ar  
    21    9   14 ar  
    22   10   11 ar  
    23   10   15 1   
    24   11   12 ar  
    25   11   53 1   
    26   12   13 ar  
    27   12   54 1   
    28   13   14 ar  
    29   13   55 1   
    30   14   52 1   
    31   16   17 1   
    32   16   51 1   
    33   17   18 1   
    34   17   19 1   
    35   17   20 1   
    36   18   35 2   
    37   18   44 1   
    38   19   20 1   
    39   19   56 1   
    40   19   57 1   
    41   20   58 1   
    42   20   59 1   
    43   21   22 2   
    44   21   23 1   
    45   23   24 1   
    46   23   31 1   
    47   23   32 1   
    48   24   25 ar  
    49   24   29 ar  
    50   25   26 ar  
    51   25   36 1   
    52   26   27 ar  
    53   26   37 1   
    54   27   28 ar  
    55   27   30 1   
    56   28   29 ar  
    57   28   38 1   
    58   29   39 1   
    59   31   32 1   
    60   31   40 1   
    61   31   41 1   
    62   32   42 1   
    63   32   43 1   
    64   35   60 1   
@<TRIPOS>SUBSTRUCTURE
     1 YJ2         1 TEMP              0 ****  ****    0 ROOT
