@<TRIPOS>MOLECULE
YJ2
   61    65     1     0     0
SMALL
bcc


@<TRIPOS>ATOM
      1 C1         -0.6380    0.2250    0.1800 c3        1 YJ2      0.050700
      2 N2          0.7060    0.7640    0.1320 n         1 YJ2     -0.464800
      3 C3          1.1220    1.2250    1.4500 c3        1 YJ2      0.104000
      4 C4          0.0660    0.7780    2.4770 c3        1 YJ2     -0.277900
      5 C5         -1.0610    0.1440    1.6680 c3        1 YJ2     -0.060400
      6 C6         -1.6490    1.0940   -0.5960 c         1 YJ2      0.537100
      7 O7         -2.5280    1.8010   -0.1370 o         1 YJ2     -0.407100
      8 S8          0.7290   -0.2780    3.7320 sy        1 YJ2      1.372300
      9 C9          0.1150    0.4490    5.1020 ca        1 YJ2     -0.408500
     10 C10         0.4860    1.7060    5.6120 ca        1 YJ2      0.128400
     11 C11        -0.0350    2.1910    6.8150 ca        1 YJ2     -0.145000
     12 C12        -0.9500    1.4230    7.5330 ca        1 YJ2     -0.037000
     13 C13        -1.3440    0.1760    7.0460 ca        1 YJ2     -0.146000
     14 C14        -0.8160   -0.2980    5.8520 ca        1 YJ2     -0.019000
     15 CL1         1.5910    2.6880    4.7740 cl        1 YJ2     -0.067400
     16 N16        -1.5730    0.9750   -2.1040 n4        1 YJ2     -0.647800
     17 C17        -1.6390    2.2710   -2.8140 cx        1 YJ2     -0.099100
     18 C18        -0.3880    3.1020   -2.7130 c2        1 YJ2      0.446200
     19 C19        -2.4190    2.3570   -4.1220 cx        1 YJ2     -0.086400
     20 C20        -2.9640    3.0170   -2.8990 cx        1 YJ2     -0.086400
     21 C21         1.6030    0.3460   -0.8540 c         1 YJ2      0.737100
     22 O22         1.1190   -0.0380   -1.9450 o         1 YJ2     -0.663100
     23 C23         3.0840    0.3900   -0.6140 cx        1 YJ2     -0.157700
     24 C24         3.5980   -0.9330   -0.2010 ca        1 YJ2     -0.088300
     25 C25         3.9610   -1.1900    1.1260 ca        1 YJ2     -0.110500
     26 C26         4.4660   -2.4400    1.4840 ca        1 YJ2     -0.101000
     27 C27         4.6110   -3.4420    0.5210 ca        1 YJ2     -0.011900
     28 C28         4.2470   -3.1880   -0.8060 ca        1 YJ2     -0.101000
     29 C29         3.7430   -1.9410   -1.1630 ca        1 YJ2     -0.110500
     30 BR3         5.2900   -5.1170    1.0020 br        1 YJ2     -0.058100
     31 C31         3.9190    1.2460   -1.5470 cx        1 YJ2     -0.093400
     32 C32         3.7440    1.6590   -0.1220 cx        1 YJ2     -0.093400
     33 O33         0.1530   -1.5440    3.5570 o         1 YJ2     -0.636800
     34 O34         2.1220   -0.2060    3.6530 o         1 YJ2     -0.636800
     35 N35         0.8140    2.7840   -2.9610 n2        1 YJ2     -0.712100
     36 H36         3.8520   -0.4160    1.9050 ha        1 YJ2      0.153000
     37 H37         4.7460   -2.6250    2.5340 ha        1 YJ2      0.159500
     38 H38         4.3600   -3.9690   -1.5760 ha        1 YJ2      0.159500
     39 H39         3.4560   -1.7420   -2.2080 ha        1 YJ2      0.153000
     40 H40         4.8930    0.8440   -1.8820 hc        1 YJ2      0.093450
     41 H41         3.4090    1.8180   -2.3440 hc        1 YJ2      0.093450
     42 H42         4.5930    1.5600    0.5810 hc        1 YJ2      0.093450
     43 H43         3.1160    2.5390    0.1100 hc        1 YJ2      0.093450
     44 H44        -0.5960    4.1510   -2.4040 h4        1 YJ2      0.054800
     45 H1         -0.6690   -0.8050   -0.2920 h1        1 YJ2      0.105700
     46 H51C       -2.0280    0.6780    1.8480 hc        1 YJ2      0.102700
     47 H52C       -1.2080   -0.9380    1.9380 hc        1 YJ2      0.102700
     48 H31C        1.1810    2.3500    1.4240 h1        1 YJ2      0.094200
     49 H32C        2.1470    0.8250    1.7030 h1        1 YJ2      0.094200
     50 H4         -0.3380    1.7090    2.9620 h1        1 YJ2      0.128700
     51 H16        -0.6920    0.4910   -2.3650 hn        1 YJ2      0.472800
     52 H14        -1.1230   -1.2960    5.4830 ha        1 YJ2      0.174000
     53 H11         0.2820    3.1750    7.1980 ha        1 YJ2      0.169000
     54 H12        -1.3580    1.8030    8.4850 ha        1 YJ2      0.160000
     55 H13        -2.0650   -0.4370    7.6110 ha        1 YJ2      0.161000
     56 H191       -1.9800    2.9720   -4.9330 hc        1 YJ2      0.111200
     57 H192       -2.9230    1.4570   -4.5240 hc        1 YJ2      0.111200
     58 H201       -2.9320    4.1210   -2.8080 hc        1 YJ2      0.111200
     59 H202       -3.8580    2.5960   -2.4010 hc        1 YJ2      0.111200
     60 H35         1.0310    1.8500   -3.2470 hn        1 YJ2      0.415400
     61 H162       -2.3620    0.3950   -2.4150 hn        1 YJ2      0.472800
@<TRIPOS>BOND
     1    1    2 1   
     2    1    5 1   
     3    1    6 1   
     4    1   45 1   
     5    2    3 1   
     6    2   21 1   
     7    3    4 1   
     8    3   48 1   
     9    3   49 1   
    10    4    5 1   
    11    4    8 1   
    12    4   50 1   
    13    5   46 1   
    14    5   47 1   
    15    6    7 2   
    16    6   16 1   
    17    8    9 1   
    18    8   33 2   
    19    8   34 2   
    20    9   10 ar  
    21    9   14 ar  
    22   10   11 ar  
    23   10   15 1   
    24   11   12 ar  
    25   11   53 1   
    26   12   13 ar  
    27   12   54 1   
    28   13   14 ar  
    29   13   55 1   
    30   14   52 1   
    31   16   17 1   
    32   16   51 1   
    33   16   61 1   
    34   17   18 1   
    35   17   19 1   
    36   17   20 1   
    37   18   35 2   
    38   18   44 1   
    39   19   20 1   
    40   19   56 1   
    41   19   57 1   
    42   20   58 1   
    43   20   59 1   
    44   21   22 2   
    45   21   23 1   
    46   23   24 1   
    47   23   31 1   
    48   23   32 1   
    49   24   25 ar  
    50   24   29 ar  
    51   25   26 ar  
    52   25   36 1   
    53   26   27 ar  
    54   26   37 1   
    55   27   28 ar  
    56   27   30 1   
    57   28   29 ar  
    58   28   38 1   
    59   29   39 1   
    60   31   32 1   
    61   31   40 1   
    62   31   41 1   
    63   32   42 1   
    64   32   43 1   
    65   35   60 1   
@<TRIPOS>SUBSTRUCTURE
     1 YJ2         1 TEMP              0 ****  ****    0 ROOT
