@<TRIPOS>MOLECULE
YJ8
   60    64     1     0     0
SMALL
bcc


@<TRIPOS>ATOM
      1 C1          2.2170   -1.1600   -1.0620 c3        1 YJ8      0.035700
      2 N2          1.3290   -1.2330    0.0920 n         1 YJ8     -0.454800
      3 C3          1.2740    0.0360    0.7920 c3        1 YJ8      0.127000
      4 C4          2.1450    1.0490    0.0180 c3        1 YJ8     -0.295900
      5 C5          2.5690    0.3280   -1.2630 c3        1 YJ8     -0.056400
      6 C6          3.5010   -2.0070   -0.8560 c         1 YJ8      0.657100
      7 O7          4.6150   -1.4560   -0.7430 o         1 YJ8     -0.627100
      8 S8          1.3370    2.5570   -0.2400 sy        1 YJ8      1.368300
      9 C9          2.6580    3.6100   -0.2470 ca        1 YJ8     -0.368500
     10 C10         3.4380    3.9700    0.8630 ca        1 YJ8      0.127400
     11 C11         4.4880    4.8880    0.7520 ca        1 YJ8     -0.152000
     12 C12         4.7780    5.4620   -0.4820 ca        1 YJ8     -0.055000
     13 C13         4.0190    5.1210   -1.6030 ca        1 YJ8     -0.152000
     14 C14         2.9780    4.2090   -1.4790 ca        1 YJ8     -0.023000
     15 CL          3.1410    3.2980    2.3960 cl        1 YJ8     -0.066400
     16 N16         3.3180   -3.3670   -0.8130 n         1 YJ8     -0.513900
     17 C17         4.3670   -4.3250   -0.6850 cx        1 YJ8     -0.000900
     18 C18         3.9300   -5.7650   -0.7850 c2        1 YJ8      0.451200
     19 C19         5.7750   -4.0870   -1.2270 cx        1 YJ8     -0.128400
     20 C20         5.5480   -4.0900    0.2540 cx        1 YJ8     -0.128400
     21 C21         0.3270   -2.1880    0.1720 c         1 YJ8      0.702100
     22 O22         0.3320   -3.1620   -0.6080 o         1 YJ8     -0.605100
     23 C23        -0.7230   -2.0500    1.2470 cx        1 YJ8     -0.154700
     24 C24        -1.9180   -1.3260    0.7720 ca        1 YJ8     -0.050300
     25 C25        -2.3140   -0.1130    1.3460 ca        1 YJ8     -0.120000
     26 C26        -3.4560    0.5420    0.8850 ca        1 YJ8     -0.094500
     27 C27        -4.2110   -0.0080   -0.1500 ca        1 YJ8      0.028900
     28 C28        -3.8150   -1.2130   -0.7330 ca        1 YJ8     -0.094500
     29 C29        -2.6740   -1.8680   -0.2770 ca        1 YJ8     -0.120000
     30 I30        -5.8710    0.9380   -0.8080 i         1 YJ8     -0.140900
     31 C31        -0.8960   -3.2380    2.1710 cx        1 YJ8     -0.101900
     32 C32        -0.2840   -1.9770    2.6920 cx        1 YJ8     -0.101900
     33 O33         0.7430    2.5650   -1.5130 o         1 YJ8     -0.642800
     34 O34         0.4810    2.8090    0.8380 o         1 YJ8     -0.642800
     35 N35         3.0220   -6.1690   -1.5870 n2        1 YJ8     -0.757100
     36 H1          1.6880   -1.5620   -1.9780 h1        1 YJ8      0.092700
     37 H3          0.2090    0.4010    0.8790 h1        1 YJ8      0.067700
     38 H3A         1.6790   -0.1020    1.8330 h1        1 YJ8      0.067700
     39 H4          3.0780    1.2060    0.6300 h1        1 YJ8      0.129700
     40 H5          3.6650    0.4540   -1.4500 hc        1 YJ8      0.089200
     41 H5A         2.0050    0.7230   -2.1480 hc        1 YJ8      0.089200
     42 H11         5.0830    5.1560    1.6400 ha        1 YJ8      0.158000
     43 H12         5.6050    6.1850   -0.5710 ha        1 YJ8      0.146000
     44 H13         4.2430    5.5720   -2.5820 ha        1 YJ8      0.150000
     45 H14         2.3750    3.9500   -2.3710 ha        1 YJ8      0.173000
     46 HN16        2.3980   -3.7280   -0.9760 hn        1 YJ8      0.358500
     47 H19         6.2950   -4.9380   -1.7000 hc        1 YJ8      0.084200
     48 H19A        6.0010   -3.1250   -1.7220 hc        1 YJ8      0.084200
     49 H20         5.6110   -3.1270    0.7930 hc        1 YJ8      0.084200
     50 H20A        5.9130   -4.9370    0.8620 hc        1 YJ8      0.084200
     51 H25        -1.7250    0.3350    2.1610 ha        1 YJ8      0.150500
     52 H26        -3.7470    1.5000    1.3450 ha        1 YJ8      0.148500
     53 H28        -4.3980   -1.6550   -1.5570 ha        1 YJ8      0.148500
     54 H29        -2.3510   -2.8140   -0.7430 ha        1 YJ8      0.150500
     55 H31        -1.9190   -3.5130    2.4830 hc        1 YJ8      0.084700
     56 H31A       -0.2570   -4.1250    2.0030 hc        1 YJ8      0.084700
     57 H32         0.7980   -1.9540    2.9170 hc        1 YJ8      0.084700
     58 H32A       -0.8640   -1.3440    3.3880 hc        1 YJ8      0.084700
     59 H35         2.8400   -7.1520   -1.5720 hn        1 YJ8      0.392400
     60 H18         4.5170   -6.4210   -0.1020 h4        1 YJ8     -0.031200
@<TRIPOS>BOND
     1    1    2 1   
     2    1    5 1   
     3    1    6 1   
     4    1   36 1   
     5    2    3 1   
     6    2   21 1   
     7    3    4 1   
     8    3   37 1   
     9    3   38 1   
    10    4    5 1   
    11    4    8 1   
    12    4   39 1   
    13    5   40 1   
    14    5   41 1   
    15    6    7 2   
    16    6   16 1   
    17    8    9 1   
    18    8   33 2   
    19    8   34 2   
    20    9   10 ar  
    21    9   14 ar  
    22   10   11 ar  
    23   10   15 1   
    24   11   12 ar  
    25   11   42 1   
    26   12   13 ar  
    27   12   43 1   
    28   13   14 ar  
    29   13   44 1   
    30   14   45 1   
    31   16   17 1   
    32   16   46 1   
    33   17   18 1   
    34   17   19 1   
    35   17   20 1   
    36   18   35 2   
    37   18   60 1   
    38   19   20 1   
    39   19   47 1   
    40   19   48 1   
    41   20   49 1   
    42   20   50 1   
    43   21   22 2   
    44   21   23 1   
    45   23   24 1   
    46   23   31 1   
    47   23   32 1   
    48   24   25 ar  
    49   24   29 ar  
    50   25   26 ar  
    51   25   51 1   
    52   26   27 ar  
    53   26   52 1   
    54   27   28 ar  
    55   27   30 1   
    56   28   29 ar  
    57   28   53 1   
    58   29   54 1   
    59   31   32 1   
    60   31   55 1   
    61   31   56 1   
    62   32   57 1   
    63   32   58 1   
    64   35   59 1   
@<TRIPOS>SUBSTRUCTURE
     1 YJ8         1 TEMP              0 ****  ****    0 ROOT
