@<TRIPOS>MOLECULE
YJ8
   61    65     1     0     0
SMALL
bcc


@<TRIPOS>ATOM
      1 C1         -0.6310    0.2130    0.1800 c3        1 YJ8      0.050700
      2 N2          0.7100    0.7580    0.1310 n         1 YJ8     -0.464800
      3 C3          1.1200    1.2300    1.4470 c3        1 YJ8      0.104000
      4 C4          0.0640    0.7850    2.4750 c3        1 YJ8     -0.277900
      5 C5         -1.0580    0.1400    1.6670 c3        1 YJ8     -0.060400
      6 C6         -1.6440    1.0720   -0.6050 c         1 YJ8      0.537100
      7 O7         -2.5270    1.7790   -0.1530 o         1 YJ8     -0.407100
      8 S8          0.7300   -0.2600    3.7370 sy        1 YJ8      1.372300
      9 C9          0.1030    0.4680    5.1010 ca        1 YJ8     -0.408500
     10 C10         0.4620    1.7300    5.6080 ca        1 YJ8      0.128400
     11 C11        -0.0690    2.2170    6.8060 ca        1 YJ8     -0.146000
     12 C12        -0.9820    1.4450    7.5230 ca        1 YJ8     -0.037000
     13 C13        -1.3630    0.1930    7.0390 ca        1 YJ8     -0.146000
     14 C14        -0.8250   -0.2820    5.8500 ca        1 YJ8     -0.019000
     15 Cl          1.5640    2.7170    4.7710 cl        1 YJ8     -0.067400
     16 N16        -1.5650    0.9410   -2.1120 ny        1 YJ8     -0.647800
     17 C17        -1.6370    2.2300   -2.8320 cx        1 YJ8     -0.099100
     18 C18        -0.3920    3.0700   -2.7360 c2        1 YJ8      0.446200
     19 C19        -2.4150    2.3010   -4.1430 cx        1 YJ8     -0.086400
     20 C20        -2.9660    2.9690   -2.9270 cx        1 YJ8     -0.086400
     21 C21         1.6120    0.3390   -0.8500 c         1 YJ8      0.737100
     22 O22         1.1320   -0.0550   -1.9390 o         1 YJ8     -0.663100
     23 C23         3.0910    0.3940   -0.6070 cx        1 YJ8     -0.158700
     24 C24         3.6120   -0.9240   -0.1820 ca        1 YJ8     -0.082300
     25 C25         3.9760   -1.1670    1.1460 ca        1 YJ8     -0.114500
     26 C26         4.4870   -2.4130    1.5130 ca        1 YJ8     -0.093500
     27 C27         4.6380   -3.4210    0.5600 ca        1 YJ8      0.035900
     28 C28         4.2740   -3.1800   -0.7660 ca        1 YJ8     -0.093500
     29 C29         3.7630   -1.9390   -1.1370 ca        1 YJ8     -0.114500
     30 I30         5.3810   -5.2210    1.0950 i         1 YJ8     -0.111900
     31 C31         3.9240    1.2470   -1.5450 cx        1 YJ8     -0.093400
     32 C32         3.7430    1.6700   -0.1230 cx        1 YJ8     -0.093400
     33 O33         0.1640   -1.5320    3.5650 o         1 YJ8     -0.636800
     34 O34         2.1230   -0.1770    3.6650 o         1 YJ8     -0.636800
     35 N35         0.8130    2.7560   -2.9780 n2        1 YJ8     -0.712100
     36 H1         -0.6560   -0.8200   -0.2850 h1        1 YJ8      0.105700
     37 H3          2.1470    0.8360    1.7050 h1        1 YJ8      0.094200
     38 H3A         1.1740    2.3550    1.4140 h1        1 YJ8      0.094200
     39 H4         -0.3450    1.7170    2.9530 h1        1 YJ8      0.128700
     40 H5         -1.2000   -0.9400    1.9440 hc        1 YJ8      0.102700
     41 H5A        -2.0270    0.6720    1.8410 hc        1 YJ8      0.102700
     42 H11         0.2390    3.2050    7.1860 ha        1 YJ8      0.169000
     43 H12        -1.3970    1.8250    8.4710 ha        1 YJ8      0.160000
     44 H13        -2.0820   -0.4230    7.6030 ha        1 YJ8      0.161000
     45 H14        -1.1240   -1.2840    5.4830 ha        1 YJ8      0.174000
     46 HN16       -0.6810    0.4600   -2.3680 hn        1 YJ8      0.472800
     47 H19        -1.9780    2.9130   -4.9570 hc        1 YJ8      0.111200
     48 H19A       -2.9130    1.3950   -4.5380 hc        1 YJ8      0.111200
     49 H20        -3.8590    2.5460   -2.4270 hc        1 YJ8      0.111200
     50 H20A       -2.9410    4.0730   -2.8450 hc        1 YJ8      0.111200
     51 H25         3.8620   -0.3880    1.9190 ha        1 YJ8      0.152500
     52 H26         4.7670   -2.5870    2.5650 ha        1 YJ8      0.157000
     53 H28         4.3910   -3.9660   -1.5300 ha        1 YJ8      0.157000
     54 H29         3.4760   -1.7500   -2.1830 ha        1 YJ8      0.152500
     55 H31         4.9010    0.8480   -1.8740 hc        1 YJ8      0.093450
     56 H31A        3.4120    1.8100   -2.3470 hc        1 YJ8      0.093450
     57 H32         4.5910    1.5810    0.5830 hc        1 YJ8      0.093450
     58 H32A        3.1100    2.5480    0.1000 hc        1 YJ8      0.093450
     59 H35         1.0360    1.8220   -3.2560 hn        1 YJ8      0.415400
     60 H18        -0.6060    4.1200   -2.4350 h4        1 YJ8      0.054800
     61 H162       -2.3510    0.3540   -2.4200 hn        1 YJ8      0.472800
@<TRIPOS>BOND
     1    1    2 1   
     2    1    5 1   
     3    1    6 1   
     4    1   36 1   
     5    2    3 1   
     6    2   21 1   
     7    3    4 1   
     8    3   37 1   
     9    3   38 1   
    10    4    5 1   
    11    4    8 1   
    12    4   39 1   
    13    5   40 1   
    14    5   41 1   
    15    6    7 2   
    16    6   16 1   
    17    8    9 1   
    18    8   33 2   
    19    8   34 2   
    20    9   10 ar  
    21    9   14 ar  
    22   10   11 ar  
    23   10   15 1   
    24   11   12 ar  
    25   11   42 1   
    26   12   13 ar  
    27   12   43 1   
    28   13   14 ar  
    29   13   44 1   
    30   14   45 1   
    31   16   17 1   
    32   16   46 1   
    33   16   61 1   
    34   17   18 1   
    35   17   19 1   
    36   17   20 1   
    37   18   35 2   
    38   18   60 1   
    39   19   20 1   
    40   19   47 1   
    41   19   48 1   
    42   20   49 1   
    43   20   50 1   
    44   21   22 2   
    45   21   23 1   
    46   23   24 1   
    47   23   31 1   
    48   23   32 1   
    49   24   25 ar  
    50   24   29 ar  
    51   25   26 ar  
    52   25   51 1   
    53   26   27 ar  
    54   26   52 1   
    55   27   28 ar  
    56   27   30 1   
    57   28   29 ar  
    58   28   53 1   
    59   29   54 1   
    60   31   32 1   
    61   31   55 1   
    62   31   56 1   
    63   32   57 1   
    64   32   58 1   
    65   35   59 1   
@<TRIPOS>SUBSTRUCTURE
     1 YJ8         1 TEMP              0 ****  ****    0 ROOT
