@<TRIPOS>MOLECULE
YJ8
   61    65     1     0     0
SMALL
bcc


@<TRIPOS>ATOM
      1 C1         -0.6450    0.2560    0.1790 c3        1 YJ8      0.050700
      2 N2          0.7140    0.7550    0.1290 n         1 YJ8     -0.464800
      3 C3          1.1400    1.2190    1.4430 c3        1 YJ8      0.104000
      4 C4          0.0680    0.8150    2.4720 c3        1 YJ8     -0.277900
      5 C5         -1.0740    0.2030    1.6670 c3        1 YJ8     -0.060400
      6 C6         -1.6280    1.1450   -0.6090 c         1 YJ8      0.537100
      7 O7         -2.4890    1.8800   -0.1600 o         1 YJ8     -0.407100
      8 S8          0.6980   -0.2430    3.7410 sy        1 YJ8      1.372300
      9 C9          0.0970    0.5150    5.1000 ca        1 YJ8     -0.408500
     10 C10         0.4990    1.7680    5.5980 ca        1 YJ8      0.128400
     11 C11        -0.0150    2.2800    6.7920 ca        1 YJ8     -0.146000
     12 C12        -0.9540    1.5450    7.5140 ca        1 YJ8     -0.037000
     13 C13        -1.3780    0.3030    7.0400 ca        1 YJ8     -0.146000
     14 C14        -0.8570   -0.1980    5.8540 ca        1 YJ8     -0.019000
     15 CL          1.6330    2.7110    4.7550 cl        1 YJ8     -0.067400
     16 N16        -1.5520    1.0080   -2.1150 n4        1 YJ8     -0.647800
     17 C17        -1.5780    2.2990   -2.8380 cx        1 YJ8     -0.099100
     18 C18        -0.3040    3.0940   -2.7410 c2        1 YJ8      0.446200
     19 C19        -2.3520    2.3940   -4.1500 cx        1 YJ8     -0.086400
     20 C20        -2.8800    3.0830   -2.9350 cx        1 YJ8     -0.086400
     21 C21         1.6020    0.3010   -0.8500 c         1 YJ8      0.737100
     22 O22         1.1090   -0.0810   -1.9380 o         1 YJ8     -0.663100
     23 C23         3.0820    0.3050   -0.6060 cx        1 YJ8     -0.158700
     24 C24         3.5570   -1.0270   -0.1740 ca        1 YJ8     -0.082300
     25 C25         3.9110   -1.2760    1.1560 ca        1 YJ8     -0.114500
     26 C26         4.3780   -2.5380    1.5290 ca        1 YJ8     -0.093500
     27 C27         4.4940   -3.5550    0.5820 ca        1 YJ8      0.035900
     28 C28         4.1390   -3.3080   -0.7460 ca        1 YJ8     -0.093500
     29 C29         3.6720   -2.0520   -1.1230 ca        1 YJ8     -0.114500
     30 I30         5.1740   -5.3770    1.1250 i         1 YJ8     -0.111900
     31 C31         3.9440    1.1250   -1.5470 cx        1 YJ8     -0.093400
     32 C32         3.7770    1.5600   -0.1270 cx        1 YJ8     -0.093400
     33 O33         0.0890   -1.4960    3.5780 o         1 YJ8     -0.636800
     34 O34         2.0930   -0.2090    3.6690 o         1 YJ8     -0.636800
     35 N35         0.8890    2.7390   -2.9830 n2        1 YJ8     -0.712100
     36 H1         -0.7050   -0.7780   -0.2820 h1        1 YJ8      0.105700
     37 H3          1.2320    2.3410    1.4040 h1        1 YJ8      0.094200
     38 H3A         2.1530    0.7910    1.7030 h1        1 YJ8      0.094200
     39 H4         -0.3100    1.7630    2.9440 h1        1 YJ8      0.128700
     40 H5         -1.2500   -0.8720    1.9480 hc        1 YJ8      0.102700
     41 H5A        -2.0260    0.7650    1.8380 hc        1 YJ8      0.102700
     42 H11         0.3260    3.2600    7.1660 ha        1 YJ8      0.169000
     43 H12        -1.3560    1.9460    8.4600 ha        1 YJ8      0.160000
     44 H13        -2.1180   -0.2830    7.6080 ha        1 YJ8      0.161000
     45 H14        -1.1890   -1.1920    5.4940 ha        1 YJ8      0.174000
     46 HN16       -0.6840    0.4970   -2.3690 hn        1 YJ8      0.472800
     47 H19        -1.8930    2.9890   -4.9650 hc        1 YJ8      0.111200
     48 H19A       -2.8800    1.5060   -4.5440 hc        1 YJ8      0.111200
     49 H20        -2.8160    4.1860   -2.8540 hc        1 YJ8      0.111200
     50 H20A       -3.7880    2.6930   -2.4350 hc        1 YJ8      0.111200
     51 H25         3.8240   -0.4890    1.9240 ha        1 YJ8      0.152500
     52 H26         4.6510   -2.7160    2.5820 ha        1 YJ8      0.157000
     53 H28         4.2290   -4.1020   -1.5060 ha        1 YJ8      0.157000
     54 H29         3.3920   -1.8580   -2.1710 ha        1 YJ8      0.152500
     55 H31         4.9080    0.6910   -1.8730 hc        1 YJ8      0.093450
     56 H31A        3.4540    1.7010   -2.3530 hc        1 YJ8      0.093450
     57 H32         4.6210    1.4450    0.5800 hc        1 YJ8      0.093450
     58 H32A        3.1750    2.4610    0.0910 hc        1 YJ8      0.093450
     59 H35         1.0800    1.7970   -3.2590 hn        1 YJ8      0.415400
     60 H18        -0.4820    4.1520   -2.4430 h4        1 YJ8      0.054800
     61 H162       -2.3570    0.4490   -2.4240 hn        1 YJ8      0.472800
@<TRIPOS>BOND
     1    1    2 1   
     2    1    5 1   
     3    1    6 1   
     4    1   36 1   
     5    2    3 1   
     6    2   21 1   
     7    3    4 1   
     8    3   37 1   
     9    3   38 1   
    10    4    5 1   
    11    4    8 1   
    12    4   39 1   
    13    5   40 1   
    14    5   41 1   
    15    6    7 2   
    16    6   16 1   
    17    8    9 1   
    18    8   33 2   
    19    8   34 2   
    20    9   10 ar  
    21    9   14 ar  
    22   10   11 ar  
    23   10   15 1   
    24   11   12 ar  
    25   11   42 1   
    26   12   13 ar  
    27   12   43 1   
    28   13   14 ar  
    29   13   44 1   
    30   14   45 1   
    31   16   17 1   
    32   16   46 1   
    33   16   61 1   
    34   17   18 1   
    35   17   19 1   
    36   17   20 1   
    37   18   35 2   
    38   18   60 1   
    39   19   20 1   
    40   19   47 1   
    41   19   48 1   
    42   20   49 1   
    43   20   50 1   
    44   21   22 2   
    45   21   23 1   
    46   23   24 1   
    47   23   31 1   
    48   23   32 1   
    49   24   25 ar  
    50   24   29 ar  
    51   25   26 ar  
    52   25   51 1   
    53   26   27 ar  
    54   26   52 1   
    55   27   28 ar  
    56   27   30 1   
    57   28   29 ar  
    58   28   53 1   
    59   29   54 1   
    60   31   32 1   
    61   31   55 1   
    62   31   56 1   
    63   32   57 1   
    64   32   58 1   
    65   35   59 1   
@<TRIPOS>SUBSTRUCTURE
     1 YJ8         1 TEMP              0 ****  ****    0 ROOT
