@<TRIPOS>MOLECULE
YJ9
   64    67     1     0     0
SMALL
bcc


@<TRIPOS>ATOM
      1 C1          0.7510    1.0660    0.3480 c2        1 YJ9     -0.479000
      2 C2          0.2230    0.1370   -0.5450 c2        1 YJ9      0.309000
      3 N3         -1.2840    0.0260   -0.6220 ny        1 YJ9     -0.068000
      4 C4         -1.9080    0.7950   -1.7330 cx        1 YJ9     -0.164000
      5 C5         -1.7440    0.3590   -3.1320 c1        1 YJ9     -0.089000
      6 O6          0.8350   -0.6820   -1.2680 o         1 YJ9     -0.408000
      7 C7         -3.2720    1.4420   -1.4600 cx        1 YJ9     -0.150000
      8 C8         -2.0670    2.3110   -1.5930 cx        1 YJ9     -0.150000
      9 N9         -0.9570   -0.5760   -3.5690 n8        1 YJ9     -0.221000
     10 N10         2.1340    0.9090    0.8120 nx        1 YJ9      0.039000
     11 C11         2.0630    1.2010    2.3050 c3        1 YJ9     -0.071000
     12 C12         0.6240    1.6320    2.6280 c3        1 YJ9     -0.794000
     13 C13         0.0590    2.0290    1.2530 c3        1 YJ9     -0.040000
     14 S14        -0.3460    0.3680    3.3330 s6        1 YJ9      2.841000
     15 C15        -1.0410    1.0260    4.7120 c2        1 YJ9     -0.885000
     16 C16        -1.8950    0.3970    5.5790 c2        1 YJ9      0.158000
     17 C17        -2.4240    1.0790    6.7890 c3        1 YJ9     -0.188000
     18 C18        -1.9690    2.4740    6.9680 c2        1 YJ9     -0.043000
     19 C19        -1.1250    3.0670    6.0890 c2        1 YJ9     -0.187000
     20 C20        -0.6350    2.3700    4.9550 c1        1 YJ9     -0.091000
     21 Cl         -2.4090   -1.1880    5.3540 cl        1 YJ9      0.081000
     22 O22        -1.3640    0.0430    2.3970 o         1 YJ9     -0.953500
     23 O23         0.5050   -0.6940    3.6760 o         1 YJ9     -0.953500
     24 C24         3.0500    1.8580    0.0770 c2        1 YJ9      0.308000
     25 O25         3.0230    3.0400    0.4070 o         1 YJ9     -0.222000
     26 C26         3.9070    2.0260   -2.3180 cx        1 YJ9     -0.155500
     27 C27         3.9140    1.2770   -0.9900 cx        1 YJ9     -0.132000
     28 C28         5.0910    2.1410   -1.4210 cx        1 YJ9     -0.155500
     29 C29         5.8030   -3.1600   -2.5160 c1        1 YJ9     -0.243000
     30 C30         5.7340   -3.3140   -1.0930 c3        1 YJ9     -0.024000
     31 C31         5.1740   -2.2270   -0.3300 c1        1 YJ9     -0.003000
     32 C32         5.0860   -0.8520   -0.5320 c2        1 YJ9     -0.117000
     33 C33         4.0220   -0.1830   -1.0160 c2        1 YJ9     -0.255000
     34 C34         5.8780   -3.0320   -3.7030 c1        1 YJ9     -0.103000
     35 F36         5.5300   -5.7580   -1.3350 f         1 YJ9     -0.149667
     36 F37         5.1020   -4.9550    0.6320 f         1 YJ9     -0.149667
     37 F38         3.6680   -4.6860   -0.9870 f         1 YJ9     -0.149667
     38 H1          2.4500   -0.0560    0.6480 hn        1 YJ9      0.262000
     39 HN3        -1.6860    0.3040    0.2870 hn        1 YJ9      0.253500
     40 H7         -3.7390    1.3090   -0.4660 hc        1 YJ9      0.143250
     41 H7A        -4.0120    1.4090   -2.2830 hc        1 YJ9      0.143250
     42 H8         -1.6500    2.8100   -0.6980 hc        1 YJ9      0.143250
     43 H8A        -1.9310    2.9140   -2.5120 hc        1 YJ9      0.143250
     44 H11         0.6520    2.5430    3.3050 h1        1 YJ9      0.244000
     45 H11A        2.3630    0.2670    2.8610 hx        1 YJ9      0.155000
     46 H12         2.7780    2.0340    2.5470 hx        1 YJ9      0.155000
     47 H13         0.3510    3.0850    1.0080 hc        1 YJ9      0.114500
     48 H13A       -1.0560    1.9730    1.2260 hc        1 YJ9      0.114500
     49 H17        -2.1280    0.4790    7.7050 hc        1 YJ9      0.178500
     50 H18        -3.5560    1.0630    6.7580 hc        1 YJ9      0.178500
     51 H19        -2.3580    2.9930    7.8600 ha        1 YJ9      0.159000
     52 H20        -0.7880    4.1090    6.2300 ha        1 YJ9      0.172000
     53 H26         5.2680    3.0940   -0.8850 hc        1 YJ9      0.137000
     54 H26A        3.2310    2.8940   -2.4290 hc        1 YJ9      0.137000
     55 H28         3.9730    1.4190   -3.2410 hc        1 YJ9      0.137000
     56 H28A        6.0320    1.6250   -1.6880 hc        1 YJ9      0.137000
     57 H29         5.9470   -2.9260   -4.7590 ha        1 YJ9      0.240000
     58 H31         6.7970   -3.4260   -0.6740 hc        1 YJ9      0.204000
     59 H32         5.9490   -0.3030   -0.0860 ha        1 YJ9      0.181000
     60 H34         3.1690   -0.7100   -1.4830 ha        1 YJ9      0.171000
     61 H5         -0.3130   -1.1290   -3.0330 hn        1 YJ9      0.227500
     62 H9         -0.9560   -0.7470   -4.5530 hn        1 YJ9      0.227500
     63 H321       -1.5020   -0.9660   -0.7680 hn        1 YJ9      0.253500
     64 C35         5.0060   -4.6640   -0.7010 c3        1 YJ9      0.449000
@<TRIPOS>BOND
     1    1    2 1   
     2    1   10 1   
     3    1   13 1   
     4    2    3 1   
     5    2    6 1   
     6    3    4 1   
     7    3   39 1   
     8    3   63 1   
     9    4    5 1   
    10    4    7 1   
    11    4    8 1   
    12    5    9 1   
    13    7    8 1   
    14    7   40 1   
    15    7   41 1   
    16    8   42 1   
    17    8   43 1   
    18    9   61 1   
    19    9   62 1   
    20   10   11 1   
    21   10   24 1   
    22   10   38 1   
    23   11   12 1   
    24   11   45 1   
    25   11   46 1   
    26   12   13 1   
    27   12   14 1   
    28   12   44 1   
    29   13   47 1   
    30   13   48 1   
    31   14   15 1   
    32   14   22 1   
    33   14   23 1   
    34   15   16 1   
    35   15   20 1   
    36   16   17 1   
    37   16   21 1   
    38   17   18 1   
    39   17   49 1   
    40   17   50 1   
    41   18   19 1   
    42   18   51 1   
    43   19   20 1   
    44   19   52 1   
    45   24   25 1   
    46   24   27 1   
    47   26   27 1   
    48   26   28 1   
    49   26   54 1   
    50   26   55 1   
    51   27   28 1   
    52   27   33 1   
    53   28   53 1   
    54   28   56 1   
    55   29   30 1   
    56   29   34 1   
    57   30   31 1   
    58   30   58 1   
    59   30   64 1   
    60   31   32 1   
    61   32   33 1   
    62   32   59 1   
    63   33   60 1   
    64   34   57 1   
    65   35   64 1   
    66   36   64 1   
    67   37   64 1   
@<TRIPOS>SUBSTRUCTURE
     1 YJ9         1 TEMP              0 ****  ****    0 ROOT
