@<TRIPOS>MOLECULE
YJ9
   64    68     1     0     0
SMALL
bcc


@<TRIPOS>ATOM
      1 C1         -0.7050    0.5450   -0.3590 c2        1 YJ9     -0.484000
      2 C2         -1.2010    0.8770   -1.6160 c2        1 YJ9      0.293000
      3 N3         -1.9350    2.1990   -1.7390 n4        1 YJ9     -0.069000
      4 C4         -1.1590    3.2810   -2.4200 cx        1 YJ9     -0.162000
      5 C5         -0.8790    3.2260   -3.8620 c1        1 YJ9     -0.090000
      6 O6         -1.1560    0.2150   -2.6750 o         1 YJ9     -0.386000
      7 C7         -1.3750    4.7150   -1.9130 cx        1 YJ9     -0.148500
      8 C8         -0.0850    4.0290   -1.6240 cx        1 YJ9     -0.148500
      9 N9         -1.1170    2.2560   -4.6860 n3        1 YJ9     -0.211000
     10 N10        -0.0480   -0.7410   -0.1480 n4        1 YJ9      0.052000
     11 C11         0.3670   -0.7690    1.3000 c3        1 YJ9     -0.072000
     12 C12        -0.3050    0.4020    2.0220 c3        1 YJ9     -0.772000
     13 C13        -0.8760    1.2950    0.9140 c3        1 YJ9     -0.040000
     14 S14         0.7580    1.3060    3.1070 s6        1 YJ9      2.848000
     15 C15         0.3560    0.6280    4.5710 ca        1 YJ9     -0.863000
     16 C16        -0.8620    0.7970    5.2550 ca        1 YJ9      0.052000
     17 C17        -1.0730    0.2470    6.5220 ca        1 YJ9     -0.144000
     18 C18        -0.0630   -0.4950    7.1330 ca        1 YJ9     -0.032000
     19 C19         1.1530   -0.6860    6.4750 ca        1 YJ9     -0.144000
     20 C20         1.3530   -0.1300    5.2180 ca        1 YJ9     -0.019000
     21 CL         -2.1310    1.6850    4.5560 cl        1 YJ9      0.015000
     22 O22         2.0750    0.9620    2.7520 o         1 YJ9     -0.921500
     23 O23         0.4210    2.6540    3.0020 o         1 YJ9     -0.921500
     24 C24         1.0950   -1.0350   -1.1060 c2        1 YJ9      0.307000
     25 O25         0.8470   -1.9170   -1.9170 o         1 YJ9     -0.182000
     26 C26         2.8000    0.5960   -2.1040 cx        1 YJ9     -0.163000
     27 C27         2.3900   -0.3140   -0.9550 cx        1 YJ9     -0.124000
     28 C28         2.4350    1.1880   -0.7830 cx        1 YJ9     -0.163000
     29 C29         4.8230   -3.1480   -0.4290 ca        1 YJ9     -0.080500
     30 C30         5.3940   -2.7920    0.7950 ca        1 YJ9     -0.140000
     31 C31         4.9860   -1.6330    1.4570 ca        1 YJ9     -0.080500
     32 C32         3.9960   -0.8250    0.8980 ca        1 YJ9     -0.120000
     33 C33         3.4190   -1.1750   -0.3280 ca        1 YJ9     -0.072000
     34 C34         3.8360   -2.3390   -0.9890 ca        1 YJ9     -0.120000
     35 F36         7.1880   -4.4230    0.5280 f         1 YJ9     -0.156667
     36 F37         5.9450   -4.6190    2.2970 f         1 YJ9     -0.156667
     37 F38         7.3970   -3.0110    2.1660 f         1 YJ9     -0.156667
     38 H1         -0.7550   -1.4760   -0.3120 hn        1 YJ9      0.236000
     39 HN3        -2.7760    2.0290   -2.2990 hn        1 YJ9      0.232500
     40 H7         -2.0910    4.8960   -1.0900 hc        1 YJ9      0.145750
     41 H7A        -1.4070    5.5140   -2.6810 hc        1 YJ9      0.145750
     42 H8          0.1410    3.7080   -0.5890 hc        1 YJ9      0.145750
     43 H8A         0.8270    4.3300   -2.1770 hc        1 YJ9      0.145750
     44 H11         1.4940   -0.6850    1.3560 hx        1 YJ9      0.154000
     45 H11A        0.0480   -1.7550    1.7360 hx        1 YJ9      0.154000
     46 H12        -1.1710   -0.0090    2.6100 h1        1 YJ9      0.166000
     47 H13        -0.3380    2.2810    0.8780 hc        1 YJ9      0.100500
     48 H13A       -1.9590    1.5040    1.1200 hc        1 YJ9      0.100500
     49 H17        -2.0340    0.4040    7.0410 ha        1 YJ9      0.172000
     50 H18        -0.2270   -0.9260    8.1350 ha        1 YJ9      0.163000
     51 H19         1.9560   -1.2690    6.9540 ha        1 YJ9      0.164000
     52 H20         2.3280   -0.2740    4.7130 ha        1 YJ9      0.170000
     53 H26         3.8600    0.5750   -2.4210 hc        1 YJ9      0.138250
     54 H26A        2.1110    0.7050   -2.9620 hc        1 YJ9      0.138250
     55 H28         3.2270    1.6110   -0.1350 hc        1 YJ9      0.138250
     56 H28A        1.4820    1.7420   -0.6850 hc        1 YJ9      0.138250
     57 H29         5.1580   -4.0600   -0.9510 ha        1 YJ9      0.166000
     58 H31         5.4540   -1.3520    2.4150 ha        1 YJ9      0.166000
     59 H32         3.6780    0.0890    1.4320 ha        1 YJ9      0.168500
     60 H34         3.3820   -2.6160   -1.9540 ha        1 YJ9      0.168500
     61 H5         -0.8540    2.3930   -5.6410 hn        1 YJ9      0.231000
     62 H9         -1.4950    1.3520   -4.4660 hn        1 YJ9      0.231000
     63 H321       -2.2210    2.5190   -0.8090 hn        1 YJ9      0.232500
     64 C35         6.4580   -3.6870    1.4270 c3        1 YJ9      0.465000
@<TRIPOS>BOND
     1    1    2 1   
     2    1   10 1   
     3    1   13 1   
     4    2    3 1   
     5    2    6 1   
     6    3    4 1   
     7    3   39 1   
     8    3   63 1   
     9    4    5 1   
    10    4    7 1   
    11    4    8 1   
    12    5    9 1   
    13    7    8 1   
    14    7   40 1   
    15    7   41 1   
    16    8   42 1   
    17    8   43 1   
    18    9   61 1   
    19    9   62 1   
    20   10   11 1   
    21   10   24 1   
    22   10   38 1   
    23   11   12 1   
    24   11   44 1   
    25   11   45 1   
    26   12   13 1   
    27   12   14 1   
    28   12   46 1   
    29   13   47 1   
    30   13   48 1   
    31   14   15 1   
    32   14   22 1   
    33   14   23 1   
    34   15   16 1   
    35   15   20 1   
    36   16   17 1   
    37   16   21 1   
    38   17   18 1   
    39   17   49 1   
    40   18   19 1   
    41   18   50 1   
    42   19   20 1   
    43   19   51 1   
    44   20   52 1   
    45   24   25 1   
    46   24   27 1   
    47   26   27 1   
    48   26   28 1   
    49   26   53 1   
    50   26   54 1   
    51   27   28 1   
    52   27   33 1   
    53   28   55 1   
    54   28   56 1   
    55   29   30 1   
    56   29   34 1   
    57   29   57 1   
    58   30   31 1   
    59   30   64 1   
    60   31   32 1   
    61   31   58 1   
    62   32   33 1   
    63   32   59 1   
    64   33   34 1   
    65   34   60 1   
    66   35   64 1   
    67   36   64 1   
    68   37   64 1   
@<TRIPOS>SUBSTRUCTURE
     1 YJ9         1 TEMP              0 ****  ****    0 ROOT
