@<TRIPOS>MOLECULE
YJ9
   63    67     1     0     0
SMALL
bcc


@<TRIPOS>ATOM
      1 C1         -1.3450    1.4190   -1.0580 c3        1 YJ9      0.034700
      2 C2         -2.4180    2.5110   -0.8040 c         1 YJ9      0.658100
      3 N3         -1.9480    3.7590   -0.4760 n         1 YJ9     -0.513900
      4 C4         -2.7690    4.8880   -0.1830 cx        1 YJ9     -0.001900
      5 C5         -2.0270    6.1080    0.3020 c2        1 YJ9      0.455200
      6 O6         -3.6300    2.2510   -0.9520 o         1 YJ9     -0.628100
      7 C7         -4.0180    5.1990   -1.0050 cx        1 YJ9     -0.126900
      8 C8         -4.1660    4.7600    0.4190 cx        1 YJ9     -0.126900
      9 N9         -0.9850    6.0540    1.0410 n2        1 YJ9     -0.765100
     10 N10        -0.4430    1.2410    0.0720 n         1 YJ9     -0.455800
     11 C11        -0.6710   -0.0320    0.7290 c3        1 YJ9      0.125000
     12 C12        -1.7170   -0.8150   -0.0920 c3        1 YJ9     -0.294900
     13 C13        -2.0060    0.0490   -1.3200 c3        1 YJ9     -0.058400
     14 S14        -1.1990   -2.4280   -0.4570 sy        1 YJ9      1.367300
     15 C15        -2.6880   -3.2250   -0.4820 ca        1 YJ9     -0.370500
     16 C16        -3.4990   -3.5030    0.6290 ca        1 YJ9      0.127400
     17 C17        -4.6990   -4.2120    0.4990 ca        1 YJ9     -0.151000
     18 C18        -5.1100   -4.6530   -0.7560 ca        1 YJ9     -0.054000
     19 C19        -4.3240   -4.3870   -1.8780 ca        1 YJ9     -0.151000
     20 C20        -3.1330   -3.6840   -1.7350 ca        1 YJ9     -0.022000
     21 CL         -3.0570   -2.9840    2.1860 cl        1 YJ9     -0.066400
     22 O22        -0.6400   -2.4660   -1.7450 o         1 YJ9     -0.642800
     23 O23        -0.3810   -2.8900    0.5810 o         1 YJ9     -0.642800
     24 C24         0.7590    1.9300    0.1440 c         1 YJ9      0.703100
     25 O25         0.9660    2.8960   -0.6180 o         1 YJ9     -0.605100
     26 C26         2.1930    2.6100    2.1620 cx        1 YJ9     -0.099900
     27 C27         1.7680    1.5270    1.1900 cx        1 YJ9     -0.162700
     28 C28         1.3450    1.4750    2.6400 cx        1 YJ9     -0.099900
     29 C29         4.6100    0.1790   -0.8800 ca        1 YJ9     -0.079500
     30 C30         4.7380   -1.1130   -0.3660 ca        1 YJ9     -0.163300
     31 C31         3.8890   -1.5590    0.6480 ca        1 YJ9     -0.079500
     32 C32         2.9130   -0.7040    1.1590 ca        1 YJ9     -0.121000
     33 C33         2.7830    0.5960    0.6570 ca        1 YJ9     -0.035300
     34 C34         3.6330    1.0300   -0.3710 ca        1 YJ9     -0.121000
     35 F36         6.2550   -2.9980   -0.0490 f         1 YJ9     -0.236967
     36 F37         5.3940   -2.7720   -2.0240 f         1 YJ9     -0.236967
     37 F38         6.9450   -1.4150   -1.3580 f         1 YJ9     -0.236967
     38 H1         -0.7600    1.7510   -1.9680 h1        1 YJ9      0.096700
     39 HN3        -0.9610    3.8940   -0.3910 hn        1 YJ9      0.354500
     40 H7         -4.2210    6.2480   -1.2790 hc        1 YJ9      0.084700
     41 H7A        -4.3150    4.4910   -1.8020 hc        1 YJ9      0.084700
     42 H8         -4.5710    3.7500    0.6200 hc        1 YJ9      0.084700
     43 H8A        -4.4650    5.4940    1.1880 hc        1 YJ9      0.084700
     44 H11         0.2920   -0.6130    0.8240 h1        1 YJ9      0.068200
     45 H11A       -1.0640    0.1590    1.7670 h1        1 YJ9      0.068200
     46 H12        -2.6580   -0.8410    0.5250 h1        1 YJ9      0.127700
     47 H13        -3.1080    0.1640   -1.4810 hc        1 YJ9      0.091200
     48 H13A       -1.5560   -0.4040   -2.2420 hc        1 YJ9      0.091200
     49 H17        -5.3150   -4.4210    1.3880 ha        1 YJ9      0.158000
     50 H18        -6.0540   -5.2100   -0.8590 ha        1 YJ9      0.147000
     51 H19        -4.6430   -4.7330   -2.8730 ha        1 YJ9      0.150000
     52 H20        -2.5110   -3.4860   -2.6300 ha        1 YJ9      0.173000
     53 H26         3.2560    2.6560    2.4620 hc        1 YJ9      0.086950
     54 H26A        1.7460    3.6150    2.0490 hc        1 YJ9      0.086950
     55 H28         1.7920    0.7040    3.2930 hc        1 YJ9      0.086950
     56 H28A        0.2840    1.6640    2.8900 hc        1 YJ9      0.086950
     57 H29         5.2830    0.5210   -1.6830 ha        1 YJ9      0.155000
     58 H31         3.9900   -2.5830    1.0430 ha        1 YJ9      0.155000
     59 H32         2.2440   -1.0630    1.9560 ha        1 YJ9      0.155500
     60 H34         3.5120    2.0480   -0.7790 ha        1 YJ9      0.155500
     61 H5         -2.5180    7.0480   -0.0370 h4        1 YJ9     -0.030200
     62 H9         -0.6030    6.9370    1.3080 hn        1 YJ9      0.392400
     63 C35         5.8010   -2.0460   -0.9300 c3        1 YJ9      0.687200
@<TRIPOS>BOND
     1    1    2 1   
     2    1   10 1   
     3    1   13 1   
     4    1   38 1   
     5    2    3 1   
     6    2    6 2   
     7    3    4 1   
     8    3   39 1   
     9    4    5 1   
    10    4    7 1   
    11    4    8 1   
    12    5    9 2   
    13    5   61 1   
    14    7    8 1   
    15    7   40 1   
    16    7   41 1   
    17    8   42 1   
    18    8   43 1   
    19    9   62 1   
    20   10   11 1   
    21   10   24 1   
    22   11   12 1   
    23   11   44 1   
    24   11   45 1   
    25   12   13 1   
    26   12   14 1   
    27   12   46 1   
    28   13   47 1   
    29   13   48 1   
    30   14   15 1   
    31   14   22 2   
    32   14   23 2   
    33   15   16 ar  
    34   15   20 ar  
    35   16   17 ar  
    36   16   21 1   
    37   17   18 ar  
    38   17   49 1   
    39   18   19 ar  
    40   18   50 1   
    41   19   20 ar  
    42   19   51 1   
    43   20   52 1   
    44   24   25 2   
    45   24   27 1   
    46   26   27 1   
    47   26   28 1   
    48   26   53 1   
    49   26   54 1   
    50   27   28 1   
    51   27   33 1   
    52   28   55 1   
    53   28   56 1   
    54   29   30 ar  
    55   29   34 ar  
    56   29   57 1   
    57   30   31 ar  
    58   30   63 1   
    59   31   32 ar  
    60   31   58 1   
    61   32   33 ar  
    62   32   59 1   
    63   33   34 ar  
    64   34   60 1   
    65   35   63 1   
    66   36   63 1   
    67   37   63 1   
@<TRIPOS>SUBSTRUCTURE
     1 YJ9         1 TEMP              0 ****  ****    0 ROOT
