@<TRIPOS>MOLECULE
YJA
   68    71     1     0     0
SMALL
bcc


@<TRIPOS>ATOM
      1 CAK         0.2340   -0.8930    0.4940 ca        1 YJA     -0.199000
      2 CBC         1.4130   -0.4970   -0.1620 ca        1 YJA      0.151900
      3 FAD         2.5620   -1.1710    0.0860 f         1 YJA     -0.137900
      4 CAG         1.4180    0.5780   -1.0650 ca        1 YJA     -0.195000
      5 CAE         0.2270    1.2550   -1.3060 ca        1 YJA     -0.079000
      6 CAH        -0.9520    0.8830   -0.6730 ca        1 YJA     -0.200000
      7 CBD        -0.9650   -0.2010    0.2410 ca        1 YJA      0.095600
      8 NAX        -2.1830   -0.5320    0.8570 ns        1 YJA     -0.464100
      9 CBB        -2.4230   -1.5600    1.7540 c         1 YJA      0.671100
     10 OAB        -1.5470   -2.3380    2.1700 o         1 YJA     -0.584100
     11 CAT        -3.8600   -1.6930    2.2520 c3        1 YJA     -0.182700
     12 CBE        -4.7820   -2.0650    1.1590 cc        1 YJA      0.314600
     13 CAL        -5.2400   -3.4040    0.8850 cc        1 YJA     -0.303300
     14 NAZ        -5.3300   -1.1900    0.2600 nd        1 YJA     -0.514800
     15 NAW        -6.0670   -1.8960   -0.5880 na        1 YJA      0.017400
     16 CBG        -6.0880   -3.2670   -0.2440 cd        1 YJA      0.098300
     17 NAY        -6.7140   -4.2960   -0.9520 nu        1 YJA     -0.709300
     18 C6         -7.9370   -4.1960   -1.5990 ca        1 YJA      0.725200
     19 N1         -8.5270   -2.9870   -1.7550 nb        1 YJA     -0.794000
     20 C2         -9.7190   -2.9610   -2.4360 ca        1 YJA      0.699900
     21 N3        -10.3850   -3.9830   -2.9730 nb        1 YJA     -0.722000
     22 C4         -9.8000   -5.2290   -2.8340 ca        1 YJA      0.470600
     23 CAM       -10.4580   -6.3690   -3.3860 ca        1 YJA     -0.205300
     24 C5         -8.5540   -5.4090   -2.1500 ca        1 YJA     -0.313600
     25 CAJ        -7.9990   -6.7030   -2.0530 ca        1 YJA     -0.048000
     26 CAI        -8.6360   -7.7960   -2.5970 ca        1 YJA     -0.201000
     27 CBF        -9.8710   -7.6150   -3.2650 ca        1 YJA      0.130100
     28 OBA       -10.5490   -8.6530   -3.8910 os        1 YJA     -0.360900
     29 CAQ       -10.2680   -9.9660   -3.3970 c3        1 YJA      0.132400
     30 CAP       -11.4260  -10.8440   -3.8560 c3        1 YJA     -0.108400
     31 CAS       -11.4890  -10.8440   -5.3790 c3        1 YJA      0.101800
     32 NBK       -12.7790  -11.3760   -5.9250 nx        1 YJA     -0.678400
     33 CAO       -12.9250  -12.8540   -5.7220 c3        1 YJA      0.108800
     34 CAA       -12.0140  -13.7260   -6.5570 c3        1 YJA     -0.127100
     35 CAR       -12.9440  -10.9720   -7.3570 c3        1 YJA      0.098800
     36 CAN       -14.3130  -11.3440   -7.9430 c3        1 YJA      0.112400
     37 OAC       -15.3000  -10.9730   -6.9980 oh        1 YJA     -0.630800
     38 HAK         0.2760   -1.7400    1.1980 ha        1 YJA      0.187000
     39 HAG         2.3510    0.8730   -1.5650 ha        1 YJA      0.151000
     40 HAE         0.2180    2.1020   -2.0100 ha        1 YJA      0.138000
     41 HAH        -1.8750    1.4420   -0.8890 ha        1 YJA      0.135000
     42 HAX        -2.9640    0.0250    0.5830 hn        1 YJA      0.331500
     43 HAT1       -3.8690   -2.5020    3.0330 hc        1 YJA      0.091200
     44 HAT2       -4.1790   -0.7340    2.7430 hc        1 YJA      0.091200
     45 HAL        -4.9780   -4.3070    1.4230 ha        1 YJA      0.174000
     46 HAW        -6.6680   -1.4310   -1.2350 hn        1 YJA      0.346700
     47 HAY        -6.3880   -5.2060   -0.7130 hn        1 YJA      0.460800
     48 H2        -10.1730   -1.9500   -2.5380 h5        1 YJA      0.065100
     49 HAM       -11.4180   -6.2460   -3.9100 ha        1 YJA      0.168000
     50 HAJ        -7.0350   -6.8730   -1.5480 ha        1 YJA      0.138000
     51 HAI        -8.1840   -8.7950   -2.5220 ha        1 YJA      0.142000
     52 HAQ1      -10.2080   -9.9680   -2.2770 h1        1 YJA      0.065700
     53 HAQ2       -9.2960  -10.3180   -3.8340 h1        1 YJA      0.065700
     54 HAP1      -12.3780  -10.4410   -3.4160 hc        1 YJA      0.076200
     55 HAP2      -11.2620  -11.8800   -3.4600 hc        1 YJA      0.076200
     56 HAS1      -11.3730   -9.7790   -5.7450 hx        1 YJA      0.111700
     57 HAS2      -10.6490  -11.4610   -5.8040 hx        1 YJA      0.111700
     58 HAO1      -12.7400  -13.0510   -4.6260 hx        1 YJA      0.103700
     59 HAO2      -14.0040  -13.1040   -5.9540 hx        1 YJA      0.103700
     60 HAR1      -12.8190   -9.8510   -7.4050 hx        1 YJA      0.107700
     61 HAR2      -12.1330  -11.4600   -7.9660 hx        1 YJA      0.107700
     62 HAA1      -10.9340  -13.4880   -6.3960 hc        1 YJA      0.073700
     63 HAA2      -12.1830  -14.7900   -6.2480 hc        1 YJA      0.073700
     64 HAA3      -12.2460  -13.6420   -7.6460 hc        1 YJA      0.073700
     65 HAN1      -14.4330  -10.7940   -8.9150 h1        1 YJA      0.071700
     66 HAN2      -14.3830  -12.4500   -8.1300 h1        1 YJA      0.071700
     67 HAC       -16.1100  -10.7610   -7.4800 ho        1 YJA      0.452000
     68 HBK1      -13.5550  -10.9320   -5.4030 hn        1 YJA      0.466800
@<TRIPOS>BOND
     1    1    2 ar  
     2    1    7 ar  
     3    1   38 1   
     4    2    3 1   
     5    2    4 ar  
     6    4    5 ar  
     7    4   39 1   
     8    5    6 ar  
     9    5   40 1   
    10    6    7 ar  
    11    6   41 1   
    12    7    8 1   
    13    8    9 1   
    14    8   42 1   
    15    9   10 2   
    16    9   11 1   
    17   11   12 1   
    18   11   43 1   
    19   11   44 1   
    20   12   13 1   
    21   12   14 2   
    22   13   16 2   
    23   13   45 1   
    24   14   15 1   
    25   15   16 1   
    26   15   46 1   
    27   16   17 1   
    28   17   18 1   
    29   17   47 1   
    30   18   19 ar  
    31   18   24 ar  
    32   19   20 ar  
    33   20   21 ar  
    34   20   48 1   
    35   21   22 ar  
    36   22   23 ar  
    37   22   24 ar  
    38   23   27 ar  
    39   23   49 1   
    40   24   25 ar  
    41   25   26 ar  
    42   25   50 1   
    43   26   27 ar  
    44   26   51 1   
    45   27   28 1   
    46   28   29 1   
    47   29   30 1   
    48   29   52 1   
    49   29   53 1   
    50   30   31 1   
    51   30   54 1   
    52   30   55 1   
    53   31   32 1   
    54   31   56 1   
    55   31   57 1   
    56   32   33 1   
    57   32   35 1   
    58   32   68 1   
    59   33   34 1   
    60   33   58 1   
    61   33   59 1   
    62   34   62 1   
    63   34   63 1   
    64   34   64 1   
    65   35   36 1   
    66   35   60 1   
    67   35   61 1   
    68   36   37 1   
    69   36   65 1   
    70   36   66 1   
    71   37   67 1   
@<TRIPOS>SUBSTRUCTURE
     1 YJA         1 TEMP              0 ****  ****    0 ROOT
