@<TRIPOS>MOLECULE
YJA
   70    73     1     0     0
SMALL
bcc


@<TRIPOS>ATOM
      1 CAK        -0.8250    1.5250   -0.1610 ca        1 YJA     -0.179000
      2 CBC         0.5770    1.4180   -0.1400 ca        1 YJA      0.176900
      3 FAD         1.2760    1.7030   -1.2560 f         1 YJA     -0.089900
      4 CAG         1.2480    1.0180    1.0380 ca        1 YJA     -0.099000
      5 CAE         0.5120    0.7240    2.1790 ca        1 YJA     -0.071000
      6 CAH        -0.8820    0.8170    2.1830 ca        1 YJA     -0.107000
      7 CBD        -1.5400    1.2190    1.0100 ca        1 YJA     -0.042400
      8 NAX        -3.0010    1.3660    1.0130 n4        1 YJA     -0.545200
      9 CBB        -3.7120    0.0560    0.7210 c         1 YJA      0.550100
     10 OAB        -4.2930   -0.4420    1.6700 o         1 YJA     -0.384100
     11 CAT        -3.6350   -0.4380   -0.7000 c3        1 YJA     -0.161700
     12 CBE        -3.9970   -1.8710   -0.7960 cc        1 YJA      0.277600
     13 CAL        -4.9470   -2.4500   -1.7070 cc        1 YJA     -0.177300
     14 NAZ        -3.4230   -2.8610   -0.0270 nd        1 YJA     -0.404800
     15 NAW        -3.9300   -4.0100   -0.4020 na        1 YJA      0.077400
     16 CBG        -4.8860   -3.8410   -1.4310 cd        1 YJA     -0.099700
     17 NAY        -5.6140   -4.8990   -2.1000 n4        1 YJA     -0.598100
     18 C6         -6.4270   -5.8050   -1.2320 ca        1 YJA      0.533200
     19 N1         -6.1390   -5.8540    0.0660 nb        1 YJA     -0.693000
     20 C2         -6.9220   -6.7030    0.8360 ca        1 YJA      0.675900
     21 N3         -7.9180   -7.4680    0.4040 nb        1 YJA     -0.599000
     22 C4         -8.2070   -7.4340   -0.9480 ca        1 YJA      0.463600
     23 CAM        -9.2490   -8.2520   -1.4610 ca        1 YJA     -0.178300
     24 C5         -7.4650   -6.5900   -1.8560 ca        1 YJA     -0.283600
     25 CAJ        -7.7900   -6.6070   -3.2320 ca        1 YJA     -0.102000
     26 CAI        -8.7990   -7.4090   -3.7130 ca        1 YJA     -0.134000
     27 CBF        -9.5340   -8.2360   -2.8220 ca        1 YJA      0.168100
     28 OBA       -10.5650   -9.0640   -3.1930 os        1 YJA     -0.307900
     29 CAQ       -10.8690   -9.1740   -4.5920 c3        1 YJA      0.132400
     30 CAP       -12.0090  -10.1860   -4.6400 c3        1 YJA     -0.116400
     31 CAS       -12.3770  -10.4790   -6.0890 c3        1 YJA      0.110800
     32 NBK       -13.6250  -11.2930   -6.2310 n4        1 YJA     -0.684400
     33 CAO       -13.5260  -12.6370   -5.5690 c3        1 YJA      0.108800
     34 CAA       -12.3390  -13.4830   -5.9700 c3        1 YJA     -0.130100
     35 CAR       -14.0170  -11.4090   -7.6770 c3        1 YJA      0.101800
     36 CAN       -15.5210  -11.6590   -7.8670 c3        1 YJA      0.111400
     37 OAC       -16.1970  -10.6660   -7.1180 oh        1 YJA     -0.637800
     38 HAK        -1.3170    1.8690   -1.0840 ha        1 YJA      0.165000
     39 HAG         2.3510    0.9530    1.0390 ha        1 YJA      0.199000
     40 HAE         1.0340    0.4190    3.1050 ha        1 YJA      0.190000
     41 HAH        -1.4360    0.5830    3.1080 ha        1 YJA      0.171000
     42 HAX        -3.2930    1.7020    1.9450 hn        1 YJA      0.473800
     43 HAT1       -2.5900   -0.2850   -1.1040 hc        1 YJA      0.124200
     44 HAT2       -4.3470    0.1710   -1.3260 hc        1 YJA      0.124200
     45 HAL        -5.5590   -1.9330   -2.4420 ha        1 YJA      0.200000
     46 HAW        -3.7190   -4.8510    0.1070 hn        1 YJA      0.378700
     47 HAY        -4.9460   -5.4900   -2.6250 hn        1 YJA      0.482300
     48 H2         -6.6700   -6.7230    1.9230 h5        1 YJA      0.109100
     49 HAM        -9.8300   -8.9010   -0.7780 ha        1 YJA      0.207000
     50 HAJ        -7.2370   -5.9830   -3.9510 ha        1 YJA      0.129000
     51 HAI        -9.0350   -7.4110   -4.7900 ha        1 YJA      0.165000
     52 HAQ1       -9.9670   -9.5430   -5.1470 h1        1 YJA      0.059700
     53 HAQ2      -11.1900   -8.1750   -4.9870 h1        1 YJA      0.059700
     54 HAP1      -12.8840   -9.7710   -4.0720 hc        1 YJA      0.090700
     55 HAP2      -11.6820  -11.1260   -4.1170 hc        1 YJA      0.090700
     56 HAS1      -11.5410  -11.0360   -6.5990 hx        1 YJA      0.102700
     57 HAS2      -12.5450   -9.5040   -6.6350 hx        1 YJA      0.102700
     58 HAO1      -13.4960  -12.4500   -4.4550 hx        1 YJA      0.106200
     59 HAO2      -14.4840  -13.1860   -5.8100 hx        1 YJA      0.106200
     60 HAR1      -13.7510  -10.4400   -8.1890 hx        1 YJA      0.110200
     61 HAR2      -13.4360  -12.2490   -8.1490 hx        1 YJA      0.110200
     62 HAA1      -12.4490  -14.4820   -5.4700 hc        1 YJA      0.077700
     63 HAA2      -12.2910  -13.6580   -7.0720 hc        1 YJA      0.077700
     64 HAA3      -11.3750  -13.0320   -5.6310 hc        1 YJA      0.077700
     65 HAN1      -15.7480  -11.5760   -8.9650 h1        1 YJA      0.078200
     66 HAN2      -15.8190  -12.6780   -7.5010 h1        1 YJA      0.078200
     67 HAC       -17.1120  -10.6290   -7.4300 ho        1 YJA      0.461000
     68 HAX2       -3.2690    2.0670    0.3110 hn        1 YJA      0.473800
     69 HAY2       -6.2610   -4.4460   -2.7650 hn        1 YJA      0.482300
     70 HBK1      -14.3920  -10.7820   -5.7570 hn        1 YJA      0.471800
@<TRIPOS>BOND
     1    1    2 ar  
     2    1    7 ar  
     3    1   38 1   
     4    2    3 1   
     5    2    4 ar  
     6    4    5 ar  
     7    4   39 1   
     8    5    6 ar  
     9    5   40 1   
    10    6    7 ar  
    11    6   41 1   
    12    7    8 1   
    13    8    9 1   
    14    8   42 1   
    15    8   68 1   
    16    9   10 2   
    17    9   11 1   
    18   11   12 1   
    19   11   43 1   
    20   11   44 1   
    21   12   13 1   
    22   12   14 2   
    23   13   16 2   
    24   13   45 1   
    25   14   15 1   
    26   15   16 1   
    27   15   46 1   
    28   16   17 1   
    29   17   18 1   
    30   17   47 1   
    31   17   69 1   
    32   18   19 ar  
    33   18   24 ar  
    34   19   20 ar  
    35   20   21 ar  
    36   20   48 1   
    37   21   22 ar  
    38   22   23 ar  
    39   22   24 ar  
    40   23   27 ar  
    41   23   49 1   
    42   24   25 ar  
    43   25   26 ar  
    44   25   50 1   
    45   26   27 ar  
    46   26   51 1   
    47   27   28 1   
    48   28   29 1   
    49   29   30 1   
    50   29   52 1   
    51   29   53 1   
    52   30   31 1   
    53   30   54 1   
    54   30   55 1   
    55   31   32 1   
    56   31   56 1   
    57   31   57 1   
    58   32   33 1   
    59   32   35 1   
    60   32   70 1   
    61   33   34 1   
    62   33   58 1   
    63   33   59 1   
    64   34   62 1   
    65   34   63 1   
    66   34   64 1   
    67   35   36 1   
    68   35   60 1   
    69   35   61 1   
    70   36   37 1   
    71   36   65 1   
    72   36   66 1   
    73   37   67 1   
@<TRIPOS>SUBSTRUCTURE
     1 YJA         1 TEMP              0 ****  ****    0 ROOT
