@<TRIPOS>MOLECULE
YJD
   36    38     1     0     0
SMALL
bcc


@<TRIPOS>ATOM
      1 CA         -3.9400    0.2500    0.0270 ca        1 YJD      0.119100
      2 CB         -3.2320   -0.7040    0.7750 ca        1 YJD     -0.172500
      3 CC         -1.8450   -0.6830    0.7750 ca        1 YJD     -0.100500
      4 CD         -1.1410    0.2870    0.0250 ca        1 YJD     -0.010200
      5 CE         -1.8670    1.2290   -0.7340 ca        1 YJD     -0.100500
      6 CF         -3.2580    1.2140   -0.7270 ca        1 YJD     -0.172500
      7 N1          2.4630   -0.4700   -0.0190 nc        1 YJD     -0.625100
      8 C6          1.1510   -0.8070    0.0110 cd        1 YJD      0.632100
      9 O2          0.5840   -2.0560    0.0320 os        1 YJD     -0.405400
     10 O4         -5.3120    0.1780    0.0790 oh        1 YJD     -0.494100
     11 C2          2.4680    0.9410   -0.0140 ca        1 YJD      0.092400
     12 C3          3.5360    1.8450   -0.0280 ca        1 YJD     -0.085000
     13 C7          3.2500    3.2040    0.0030 ca        1 YJD     -0.143000
     14 C8          1.9320    3.6800    0.0550 ca        1 YJD     -0.126000
     15 C20         1.4900   -3.1710   -0.1980 c3        1 YJD      0.158100
     16 C9          0.8430    2.8160    0.0690 ca        1 YJD     -0.124000
     17 C10         1.1050    1.4450    0.0240 ca        1 YJD     -0.070200
     18 C11         2.1670   -3.5540    1.1010 c3        1 YJD     -0.114100
     19 N13         0.2650    0.3110    0.0340 na        1 YJD     -0.101400
     20 C13         0.5910   -4.2790   -0.7140 c3        1 YJD     -0.114100
     21 HB         -3.7840   -1.4570    1.3560 ha        1 YJD      0.147000
     22 HF         -3.8160    1.9540   -1.3170 ha        1 YJD      0.147000
     23 H4         -5.6700    0.8800   -0.4830 ho        1 YJD      0.420000
     24 HC         -1.2900   -1.4410    1.3530 ha        1 YJD      0.153000
     25 HE         -1.3400    1.9810   -1.3420 ha        1 YJD      0.153000
     26 H20         2.2480   -2.8890   -0.9780 h1        1 YJD      0.075700
     27 H3          4.5730    1.4810   -0.0600 ha        1 YJD      0.147000
     28 H7          4.0780    3.9290   -0.0090 ha        1 YJD      0.132000
     29 H8          1.7540    4.7660    0.0870 ha        1 YJD      0.132000
     30 H9         -0.1850    3.1990    0.1240 ha        1 YJD      0.139000
     31 H111        1.4050   -3.7600    1.8910 hc        1 YJD      0.052200
     32 H112        2.7790   -4.4730    0.9410 hc        1 YJD      0.052200
     33 H113        2.8350   -2.7330    1.4560 hc        1 YJD      0.052200
     34 H131        0.0770   -3.9570   -1.6510 hc        1 YJD      0.052200
     35 H132        1.2130   -5.1810   -0.9260 hc        1 YJD      0.052200
     36 H133       -0.1850   -4.5390    0.0450 hc        1 YJD      0.052200
@<TRIPOS>BOND
     1    1    2 ar  
     2    1    6 ar  
     3    1   10 1   
     4    2    3 ar  
     5    2   21 1   
     6    3    4 ar  
     7    3   24 1   
     8    4    5 ar  
     9    4   19 1   
    10    5    6 ar  
    11    5   25 1   
    12    6   22 1   
    13    7    8 2   
    14    7   11 1   
    15    8    9 1   
    16    8   19 1   
    17    9   15 1   
    18   10   23 1   
    19   11   12 ar  
    20   11   17 ar  
    21   12   13 ar  
    22   12   27 1   
    23   13   14 ar  
    24   13   28 1   
    25   14   16 ar  
    26   14   29 1   
    27   15   18 1   
    28   15   20 1   
    29   15   26 1   
    30   16   17 ar  
    31   16   30 1   
    32   17   19 1   
    33   18   31 1   
    34   18   32 1   
    35   18   33 1   
    36   20   34 1   
    37   20   35 1   
    38   20   36 1   
@<TRIPOS>SUBSTRUCTURE
     1 YJD         1 TEMP              0 ****  ****    0 ROOT
