@<TRIPOS>MOLECULE
YJD
   36    38     1     0     0
SMALL
bcc


@<TRIPOS>ATOM
      1 CA          0.0060    0.0990    0.0120 ca        1 YJD      0.119100
      2 CB          1.3330    0.5580    0.0570 ca        1 YJD     -0.172500
      3 CC          2.0350    0.5080    1.2520 ca        1 YJD     -0.100500
      4 CD          1.4240    0.0050    2.4240 ca        1 YJD     -0.010200
      5 CE          0.0850   -0.4360    2.3650 ca        1 YJD     -0.100500
      6 CF         -0.6160   -0.3960    1.1650 ca        1 YJD     -0.172500
      7 N1          3.5600    0.6090    5.3620 nc        1 YJD     -0.625100
      8 C6          3.0530    0.9190    4.1450 cd        1 YJD      0.632100
      9 O2          3.3080    2.0150    3.3600 os        1 YJD     -0.405400
     10 O4         -0.6280    0.1690   -1.2070 oh        1 YJD     -0.494100
     11 C2          2.9680   -0.6300    5.6900 ca        1 YJD      0.092400
     12 C3          3.1210   -1.4380    6.8220 ca        1 YJD     -0.085000
     13 C7          2.4210   -2.6370    6.8750 ca        1 YJD     -0.143000
     14 C8          1.5810   -3.0480    5.8300 ca        1 YJD     -0.126000
     15 C20         4.0740    3.0810    3.9870 c3        1 YJD      0.158100
     16 C9          1.4000   -2.2740    4.6900 ca        1 YJD     -0.124000
     17 C10         2.0830   -1.0580    4.6190 ca        1 YJD     -0.070200
     18 C11         5.5530    2.7760    3.8840 c3        1 YJD     -0.114100
     19 N13         2.1410   -0.0510    3.6320 na        1 YJD     -0.101400
     20 C13         3.6970    4.3210    3.1950 c3        1 YJD     -0.114100
     21 HB          1.8020    0.9490   -0.8570 ha        1 YJD      0.147000
     22 HF         -1.6580   -0.7460    1.1270 ha        1 YJD      0.147000
     23 H4         -1.5290   -0.1670   -1.0940 ho        1 YJD      0.420000
     24 HC          3.0720    0.8800    1.2880 ha        1 YJD      0.153000
     25 HE         -0.4180   -0.8130    3.2700 ha        1 YJD      0.153000
     26 H20         3.7600    3.1940    5.0600 h1        1 YJD      0.075700
     27 H3          3.7840   -1.1270    7.6410 ha        1 YJD      0.147000
     28 H7          2.5290   -3.2840    7.7590 ha        1 YJD      0.132000
     29 H8          1.0530   -4.0100    5.9140 ha        1 YJD      0.132000
     30 H9          0.7510   -2.6130    3.8710 ha        1 YJD      0.139000
     31 H111        6.1370    3.6450    4.2710 hc        1 YJD      0.052033
     32 H112        5.8120    1.8710    4.4840 hc        1 YJD      0.052033
     33 H113        5.8390    2.5920    2.8210 hc        1 YJD      0.052033
     34 H131        4.2400    5.1990    3.6180 hc        1 YJD      0.052033
     35 H132        2.5980    4.5030    3.2580 hc        1 YJD      0.052033
     36 H133        3.9760    4.2010    2.1210 hc        1 YJD      0.052033
@<TRIPOS>BOND
     1    1    2 ar  
     2    1    6 ar  
     3    1   10 1   
     4    2    3 ar  
     5    2   21 1   
     6    3    4 ar  
     7    3   24 1   
     8    4    5 ar  
     9    4   19 1   
    10    5    6 ar  
    11    5   25 1   
    12    6   22 1   
    13    7    8 2   
    14    7   11 1   
    15    8    9 1   
    16    8   19 1   
    17    9   15 1   
    18   10   23 1   
    19   11   12 ar  
    20   11   17 ar  
    21   12   13 ar  
    22   12   27 1   
    23   13   14 ar  
    24   13   28 1   
    25   14   16 ar  
    26   14   29 1   
    27   15   18 1   
    28   15   20 1   
    29   15   26 1   
    30   16   17 ar  
    31   16   30 1   
    32   17   19 1   
    33   18   31 1   
    34   18   32 1   
    35   18   33 1   
    36   20   34 1   
    37   20   35 1   
    38   20   36 1   
@<TRIPOS>SUBSTRUCTURE
     1 YJD         1 TEMP              0 ****  ****    0 ROOT
