@<TRIPOS>MOLECULE
YJW
   33    35     1     0     0
SMALL
bcc


@<TRIPOS>ATOM
      1 N2         -0.0710    2.5950   -0.6700 nc        1 YJW     -0.357300
      2 C3         -0.0560    1.2720   -0.3930 cd        1 YJW      0.379800
      3 C4          1.3440    0.8380   -0.2460 cd        1 YJW     -0.253600
      4 C5          2.0790    1.9970   -0.4630 cc        1 YJW      0.272000
      5 C6         -1.2390    0.4270   -0.3130 ca        1 YJW     -0.255500
      6 C7          1.8360   -0.4790    0.0720 ca        1 YJW     -0.014000
      7 C8          3.4960    2.3500   -0.4840 c3        1 YJW     -0.142400
      8 C12         3.0470   -0.9310   -0.4770 ca        1 YJW     -0.115000
      9 C13         3.5360   -2.1950   -0.1590 ca        1 YJW     -0.130000
     10 C14         2.8280   -3.0220    0.7120 ca        1 YJW     -0.124000
     11 C15         1.6250   -2.5810    1.2630 ca        1 YJW     -0.130000
     12 C16         1.1290   -1.3180    0.9470 ca        1 YJW     -0.115000
     13 C21        -2.2030    0.5860    0.7040 ca        1 YJW      0.191100
     14 C22        -3.3410   -0.2350    0.7570 ca        1 YJW     -0.199000
     15 C23        -3.5070   -1.2110   -0.2310 ca        1 YJW      0.168100
     16 C24        -2.5620   -1.3770   -1.2590 ca        1 YJW     -0.253000
     17 C25        -1.4420   -0.5580   -1.2890 ca        1 YJW     -0.024000
     18 O29        -4.6360   -1.9880   -0.1370 oh        1 YJW     -0.491100
     19 O11         1.1630    3.0470   -0.7100 os        1 YJW     -0.115100
     20 O30        -2.1080    1.5090    1.7140 oh        1 YJW     -0.490100
     21 H81C        3.9040    2.2260   -1.5200 hc        1 YJW      0.069033
     22 H82C        3.6430    3.4140   -0.1710 hc        1 YJW      0.069033
     23 H83C        4.0640    1.6790    0.2090 hc        1 YJW      0.069033
     24 H25        -0.6970   -0.6810   -2.0910 ha        1 YJW      0.145000
     25 H12         3.6070   -0.2810   -1.1670 ha        1 YJW      0.137500
     26 H16         0.1760   -0.9740    1.3780 ha        1 YJW      0.137500
     27 H13         4.4840   -2.5410   -0.5980 ha        1 YJW      0.134500
     28 H14         3.2160   -4.0200    0.9640 ha        1 YJW      0.134000
     29 H15         1.0630   -3.2300    1.9510 ha        1 YJW      0.134500
     30 H22        -4.0840   -0.1060    1.5550 ha        1 YJW      0.171000
     31 H30        -1.3340    2.0690    1.5580 ho        1 YJW      0.434000
     32 H24        -2.7100   -2.1460   -2.0290 ha        1 YJW      0.139000
     33 H29        -4.6380   -2.6040   -0.8850 ho        1 YJW      0.423000
@<TRIPOS>BOND
     1    1    2 2   
     2    1   19 1   
     3    2    3 1   
     4    2    5 1   
     5    3    4 2   
     6    3    6 1   
     7    4    7 1   
     8    4   19 1   
     9    5   13 ar  
    10    5   17 ar  
    11    6    8 ar  
    12    6   12 ar  
    13    7   21 1   
    14    7   22 1   
    15    7   23 1   
    16    8    9 ar  
    17    8   25 1   
    18    9   10 ar  
    19    9   27 1   
    20   10   11 ar  
    21   10   28 1   
    22   11   12 ar  
    23   11   29 1   
    24   12   26 1   
    25   13   14 ar  
    26   13   20 1   
    27   14   15 ar  
    28   14   30 1   
    29   15   16 ar  
    30   15   18 1   
    31   16   17 ar  
    32   16   32 1   
    33   17   24 1   
    34   18   33 1   
    35   20   31 1   
@<TRIPOS>SUBSTRUCTURE
     1 YJW         1 TEMP              0 ****  ****    0 ROOT
