@<TRIPOS>MOLECULE
YJW
   33    35     1     0     0
SMALL
bcc


@<TRIPOS>ATOM
      1 N2          0.0800    0.8360   -0.0150 nc        1 YJW     -0.339300
      2 C3          1.3860    0.4940    0.0360 cd        1 YJW      0.399800
      3 C4          1.7730    0.3220    1.4480 cd        1 YJW     -0.257600
      4 C5          0.6070    0.5920    2.1500 cc        1 YJW      0.271000
      5 C6          2.2460    0.3510   -1.1280 ca        1 YJW     -0.199500
      6 C7          3.0580   -0.0640    1.9760 ca        1 YJW     -0.009000
      7 C8          0.2170    0.6210    3.5580 c3        1 YJW     -0.140400
      8 C12         3.5140    0.4770    3.1880 ca        1 YJW     -0.117000
      9 C13         4.7470    0.0950    3.7110 ca        1 YJW     -0.130500
     10 C14         5.5380   -0.8320    3.0340 ca        1 YJW     -0.126000
     11 C15         5.0920   -1.3760    1.8300 ca        1 YJW     -0.130500
     12 C16         3.8600   -0.9970    1.3020 ca        1 YJW     -0.117000
     13 C21         1.9810   -0.6230   -2.1130 ca        1 YJW      0.192100
     14 C22         2.7930   -0.7380   -3.2510 ca        1 YJW     -0.311000
     15 C23         3.8760    0.1370   -3.3960 ca        1 YJW      0.175100
     16 C24         4.1580    1.1130   -2.4240 ca        1 YJW     -0.196000
     17 C25         3.3390    1.2090   -1.3060 ca        1 YJW     -0.035000
     18 O29         4.7180    0.0910   -4.4800 oh        1 YJW     -0.491100
     19 O11        -0.4030    0.8980    1.2080 os        1 YJW     -0.119100
     20 O30         0.9160   -1.4620   -1.9010 oh        1 YJW     -0.478100
     21 H81C        0.8580   -0.0850    4.1430 hc        1 YJW      0.066033
     22 H82C        0.3510    1.6540    3.9700 hc        1 YJW      0.066033
     23 H83C       -0.8570    0.3300    3.6760 hc        1 YJW      0.066033
     24 H25         3.5500    1.9740   -0.5420 ha        1 YJW      0.150000
     25 H12         2.8910    1.2100    3.7240 ha        1 YJW      0.137500
     26 H16         3.5090   -1.4250    0.3500 ha        1 YJW      0.137500
     27 H13         5.0960    0.5280    4.6600 ha        1 YJW      0.132500
     28 H14         6.5110   -1.1330    3.4480 ha        1 YJW      0.132000
     29 H15         5.7130   -2.1090    1.2940 ha        1 YJW      0.132500
     30 H22         2.5780   -1.4970   -4.0140 ha        1 YJW      0.139000
     31 H30         0.8100   -2.0190   -2.6860 ho        1 YJW      0.422000
     32 H24         5.0140    1.7860   -2.5640 ha        1 YJW      0.157000
     33 H29         4.4070   -0.6070   -5.0750 ho        1 YJW      0.422000
@<TRIPOS>BOND
     1    1    2 2   
     2    1   19 1   
     3    2    3 1   
     4    2    5 1   
     5    3    4 2   
     6    3    6 1   
     7    4    7 1   
     8    4   19 1   
     9    5   13 ar  
    10    5   17 ar  
    11    6    8 ar  
    12    6   12 ar  
    13    7   21 1   
    14    7   22 1   
    15    7   23 1   
    16    8    9 ar  
    17    8   25 1   
    18    9   10 ar  
    19    9   27 1   
    20   10   11 ar  
    21   10   28 1   
    22   11   12 ar  
    23   11   29 1   
    24   12   26 1   
    25   13   14 ar  
    26   13   20 1   
    27   14   15 ar  
    28   14   30 1   
    29   15   16 ar  
    30   15   18 1   
    31   16   17 ar  
    32   16   32 1   
    33   17   24 1   
    34   18   33 1   
    35   20   31 1   
@<TRIPOS>SUBSTRUCTURE
     1 YJW         1 TEMP              0 ****  ****    0 ROOT
