@<TRIPOS>MOLECULE
YJX
   37    41     1     0     0
SMALL
bcc


@<TRIPOS>ATOM
      1 C15         0.2180   -0.1580   -0.0220 ca        1 YJX     -0.107000
      2 C19         1.6010   -0.2710    0.0400 ca        1 YJX     -0.132000
      3 C8         -0.5630   -0.0680    1.1440 ca        1 YJX     -0.094000
      4 C14         2.2690   -0.2920    1.2780 ca        1 YJX     -0.057000
      5 C20        -5.6990    1.4520    1.6260 ca        1 YJX     -0.181300
      6 C22        -6.6300    0.6410    0.9690 ca        1 YJX      0.362200
      7 C21        -5.5950   -1.3610    1.5320 ca        1 YJX      0.405200
      8 C3          0.0820   -0.0990    2.3650 ca        1 YJX     -0.055800
      9 C7          1.5070   -0.2050    2.4230 ca        1 YJX     -0.151600
     10 C17        -4.6430    0.8020    2.2810 ca        1 YJX      0.088400
     11 C18        -4.5930   -0.6520    2.2290 ca        1 YJX     -0.205500
     12 C5         -2.8650    0.1790    3.4080 cc        1 YJX      0.492100
     13 C1         -0.4170   -0.0120    3.7580 cd        1 YJX      0.124400
     14 C9          1.9170   -0.1780    3.8610 c         1 YJX      0.725100
     15 C2         -1.6690    0.1510    4.2500 ce        1 YJX     -0.209800
     16 C6         -1.8960    0.3180    5.7140 c3        1 YJX     -0.026200
     17 C13        -0.6630    0.8450    6.4240 c3        1 YJX     -0.095400
     18 C10         0.6020    0.0800    6.0290 c3        1 YJX      0.105000
     19 N23        -6.5900   -0.7160    0.9170 nb        1 YJX     -0.653000
     20 N11        -3.5500    1.2820    3.0250 nd        1 YJX     -0.554100
     21 N12        -3.4580   -1.0230    2.9460 na        1 YJX     -0.268300
     22 N4          0.7170   -0.1120    4.6110 n         1 YJX     -0.405000
     23 O16         3.0490   -0.2180    4.3520 o         1 YJX     -0.584500
     24 H15        -0.2860   -0.1340   -1.0010 ha        1 YJX      0.142000
     25 H19         2.1900   -0.3410   -0.8870 ha        1 YJX      0.142000
     26 H8         -1.6550    0.0380    1.0710 ha        1 YJX      0.154000
     27 H14         3.3650   -0.3730    1.3290 ha        1 YJX      0.157000
     28 H22        -7.4850    1.0940    0.4360 h4        1 YJX      0.024100
     29 H21        -5.5960   -2.4620    1.4700 h4        1 YJX      0.024100
     30 H12        -3.1440   -1.9390    3.1260 hn        1 YJX      0.312700
     31 H61C       -2.1900   -0.6750    6.1510 hc        1 YJX      0.062200
     32 H62C       -2.7510    1.0270    5.8840 hc        1 YJX      0.062200
     33 H131       -0.5330    1.9330    6.1860 hc        1 YJX      0.060200
     34 H132       -0.7970    0.7510    7.5320 hc        1 YJX      0.060200
     35 H101        1.5160    0.6310    6.3940 h1        1 YJX      0.058700
     36 H102        0.5900   -0.9350    6.5220 h1        1 YJX      0.058700
     37 H20        -5.7900    2.5460    1.6300 ha        1 YJX      0.158000
@<TRIPOS>BOND
     1    1    2 ar  
     2    1    3 ar  
     3    1   24 1   
     4    2    4 ar  
     5    2   25 1   
     6    3    8 ar  
     7    3   26 1   
     8    4    9 ar  
     9    4   27 1   
    10    5    6 ar  
    11    5   10 ar  
    12    5   37 1   
    13    6   19 ar  
    14    6   28 1   
    15    7   11 ar  
    16    7   19 ar  
    17    7   29 1   
    18    8    9 ar  
    19    8   13 1   
    20    9   14 1   
    21   10   11 ar  
    22   10   20 1   
    23   11   21 1   
    24   12   15 1   
    25   12   20 2   
    26   12   21 1   
    27   13   15 2   
    28   13   22 1   
    29   14   22 1   
    30   14   23 2   
    31   15   16 1   
    32   16   17 1   
    33   16   31 1   
    34   16   32 1   
    35   17   18 1   
    36   17   33 1   
    37   17   34 1   
    38   18   22 1   
    39   18   35 1   
    40   18   36 1   
    41   21   30 1   
@<TRIPOS>SUBSTRUCTURE
     1 YJX         1 TEMP              0 ****  ****    0 ROOT
