@<TRIPOS>MOLECULE
YJX
   37    41     1     0     0
SMALL
bcc


@<TRIPOS>ATOM
      1 C15         0.2160   -0.1540   -0.0270 ca        1 YJX     -0.107000
      2 C19         1.6000   -0.2670    0.0330 ca        1 YJX     -0.132000
      3 C8         -0.5620   -0.0650    1.1410 ca        1 YJX     -0.094000
      4 C14         2.2690   -0.2900    1.2700 ca        1 YJX     -0.057000
      5 C20        -5.6970    1.4560    1.6310 ca        1 YJX     -0.181300
      6 C22        -6.6290    0.6460    0.9750 ca        1 YJX      0.362200
      7 C21        -5.5950   -1.3570    1.5350 ca        1 YJX      0.405200
      8 C3          0.0840   -0.0980    2.3610 ca        1 YJX     -0.055800
      9 C7          1.5090   -0.2040    2.4160 ca        1 YJX     -0.151600
     10 C17        -4.6400    0.8050    2.2840 ca        1 YJX      0.088400
     11 C18        -4.5910   -0.6500    2.2310 ca        1 YJX     -0.205500
     12 C5         -2.8610    0.1790    3.4080 cc        1 YJX      0.492100
     13 C1         -0.4130   -0.0130    3.7540 cd        1 YJX      0.124400
     14 C9          1.9220   -0.1800    3.8530 c         1 YJX      0.725100
     15 C2         -1.6640    0.1490    4.2480 ce        1 YJX     -0.209800
     16 C6         -1.8890    0.3140    5.7130 c3        1 YJX     -0.026200
     17 C13        -0.6550    0.8400    6.4220 c3        1 YJX     -0.095400
     18 C10         0.6090    0.0750    6.0240 c3        1 YJX      0.105000
     19 N23        -6.5910   -0.7110    0.9220 nb        1 YJX     -0.653000
     20 N11        -3.5460    1.2830    3.0270 nd        1 YJX     -0.554100
     21 N12        -3.4560   -1.0220    2.9460 na        1 YJX     -0.268300
     22 N4          0.7220   -0.1150    4.6050 n         1 YJX     -0.405000
     23 O16         3.0540   -0.2200    4.3430 o         1 YJX     -0.584500
     24 H15        -0.2890   -0.1280   -1.0060 ha        1 YJX      0.142000
     25 H19         2.1870   -0.3350   -0.8960 ha        1 YJX      0.142000
     26 H8         -1.6550    0.0410    1.0700 ha        1 YJX      0.154000
     27 H14         3.3650   -0.3700    1.3190 ha        1 YJX      0.157000
     28 H22        -7.4850    1.1010    0.4440 h4        1 YJX      0.024100
     29 H21        -5.5970   -2.4580    1.4710 h4        1 YJX      0.024100
     30 H12        -3.1420   -1.9380    3.1240 hn        1 YJX      0.312700
     31 H61C       -2.1830   -0.6800    6.1490 hc        1 YJX      0.062200
     32 H62C       -2.7430    1.0230    5.8850 hc        1 YJX      0.062200
     33 H131       -0.7870    0.7430    7.5300 hc        1 YJX      0.060200
     34 H132       -0.5250    1.9280    6.1860 hc        1 YJX      0.060200
     35 H101        0.5980   -0.9410    6.5150 h1        1 YJX      0.058700
     36 H102        1.5240    0.6250    6.3880 h1        1 YJX      0.058700
     37 H20        -5.7870    2.5490    1.6370 ha        1 YJX      0.158000
@<TRIPOS>BOND
     1    1    2 ar  
     2    1    3 ar  
     3    1   24 1   
     4    2    4 ar  
     5    2   25 1   
     6    3    8 ar  
     7    3   26 1   
     8    4    9 ar  
     9    4   27 1   
    10    5    6 ar  
    11    5   10 ar  
    12    5   37 1   
    13    6   19 ar  
    14    6   28 1   
    15    7   11 ar  
    16    7   19 ar  
    17    7   29 1   
    18    8    9 ar  
    19    8   13 1   
    20    9   14 1   
    21   10   11 ar  
    22   10   20 1   
    23   11   21 1   
    24   12   15 1   
    25   12   20 2   
    26   12   21 1   
    27   13   15 2   
    28   13   22 1   
    29   14   22 1   
    30   14   23 2   
    31   15   16 1   
    32   16   17 1   
    33   16   31 1   
    34   16   32 1   
    35   17   18 1   
    36   17   33 1   
    37   17   34 1   
    38   18   22 1   
    39   18   35 1   
    40   18   36 1   
    41   21   30 1   
@<TRIPOS>SUBSTRUCTURE
     1 YJX         1 TEMP              0 ****  ****    0 ROOT
