@<TRIPOS>MOLECULE
YJX
   37    41     1     0     0
SMALL
bcc


@<TRIPOS>ATOM
      1 C15        -0.8890   -3.2810   -0.2520 ca        1 YJX     -0.107000
      2 C19        -2.2310   -3.6180   -0.3840 ca        1 YJX     -0.132000
      3 C8         -0.4800   -1.9400   -0.1350 ca        1 YJX     -0.094000
      4 C14        -3.2270   -2.6260   -0.3980 ca        1 YJX     -0.057000
      5 C20         4.2830   -0.0220    1.4640 ca        1 YJX     -0.181300
      6 C22         5.3710   -0.3680    0.6580 ca        1 YJX      0.362200
      7 C21         4.2380   -0.0940   -1.3510 ca        1 YJX      0.405200
      8 C3         -1.4500   -0.9570   -0.1590 ca        1 YJX     -0.055800
      9 C7         -2.8290   -1.3110   -0.2850 ca        1 YJX     -0.151600
     10 C17         3.0880    0.3110    0.8080 ca        1 YJX      0.088400
     11 C18         3.0700    0.2720   -0.6470 ca        1 YJX     -0.205500
     12 C5          1.0670    0.8870    0.1750 cc        1 YJX      0.492100
     13 C1         -1.3760    0.5180   -0.0460 cd        1 YJX      0.124400
     14 C9         -3.6390   -0.0540   -0.2450 c         1 YJX      0.725100
     15 C2         -0.3200    1.3480    0.1410 ce        1 YJX     -0.209800
     16 C6         -0.5280    2.8130    0.3310 c3        1 YJX     -0.026200
     17 C13        -1.9190    3.1270    0.8490 c3        1 YJX     -0.095400
     18 C10        -3.0080    2.3970    0.0610 c3        1 YJX      0.105000
     19 N23         5.3610   -0.4060   -0.7010 nb        1 YJX     -0.653000
     20 N11         1.8230    0.6990    1.2820 nd        1 YJX     -0.554100
     21 N12         1.7800    0.6370   -1.0250 na        1 YJX     -0.268300
     22 N4         -2.7060    1.0090   -0.1510 n         1 YJX     -0.405000
     23 O16        -4.8630    0.0900   -0.2940 o         1 YJX     -0.584500
     24 H15        -0.1250   -4.0730   -0.2340 ha        1 YJX      0.142000
     25 H19        -2.5260   -4.6750   -0.4740 ha        1 YJX      0.142000
     26 H8          0.5850   -1.6960   -0.0140 ha        1 YJX      0.154000
     27 H14        -4.2910   -2.8920   -0.4940 ha        1 YJX      0.157000
     28 H22         6.3400   -0.6390    1.1160 h4        1 YJX      0.024100
     29 H21         4.2670   -0.1350   -2.4530 h4        1 YJX      0.024100
     30 H12         1.4370    0.7330   -1.9420 hn        1 YJX      0.312700
     31 H61C        0.2340    3.2100    1.0540 hc        1 YJX      0.062200
     32 H62C       -0.3630    3.3330   -0.6520 hc        1 YJX      0.062200
     33 H131       -1.9850    2.8440    1.9320 hc        1 YJX      0.060200
     34 H132       -2.1100    4.2290    0.7720 hc        1 YJX      0.060200
     35 H101       -3.9930    2.4730    0.6040 h1        1 YJX      0.058700
     36 H102       -3.1290    2.8900   -0.9470 h1        1 YJX      0.058700
     37 H20         4.3570   -0.0100    2.5590 ha        1 YJX      0.158000
@<TRIPOS>BOND
     1    1    2 ar  
     2    1    3 ar  
     3    1   24 1   
     4    2    4 ar  
     5    2   25 1   
     6    3    8 ar  
     7    3   26 1   
     8    4    9 ar  
     9    4   27 1   
    10    5    6 ar  
    11    5   10 ar  
    12    5   37 1   
    13    6   19 ar  
    14    6   28 1   
    15    7   11 ar  
    16    7   19 ar  
    17    7   29 1   
    18    8    9 ar  
    19    8   13 1   
    20    9   14 1   
    21   10   11 ar  
    22   10   20 1   
    23   11   21 1   
    24   12   15 1   
    25   12   20 2   
    26   12   21 1   
    27   13   15 2   
    28   13   22 1   
    29   14   22 1   
    30   14   23 2   
    31   15   16 1   
    32   16   17 1   
    33   16   31 1   
    34   16   32 1   
    35   17   18 1   
    36   17   33 1   
    37   17   34 1   
    38   18   22 1   
    39   18   35 1   
    40   18   36 1   
    41   21   30 1   
@<TRIPOS>SUBSTRUCTURE
     1 YJX         1 TEMP              0 ****  ****    0 ROOT
