@<TRIPOS>MOLECULE
YK9
   34    25     1     0     0
SMALL
bcc


@<TRIPOS>ATOM
      1 C15         1.8830   -0.1750   -3.2830 c1        1 YK9     -0.099333
      2 C19         3.2810   -0.1450   -3.3080 c1        1 YK9     -0.099333
      3 C8          1.2080   -0.2110   -2.0640 c1        1 YK9     -0.099333
      4 C14         4.0000   -0.1520   -2.1160 c1        1 YK9     -0.099333
      5 C20        -4.5190   -0.5980   -0.1370 c1        1 YK9     -0.091500
      6 C22        -5.4660    0.3960   -0.3380 c1        1 YK9     -0.060000
      7 C21        -3.8270    2.0480    0.0770 c1        1 YK9     -0.091500
      8 C3          1.9270   -0.2180   -0.8680 c1        1 YK9     -0.004500
      9 C7          3.3250   -0.1880   -0.8930 c1        1 YK9     -0.157500
     10 C17        -3.2130   -0.2560    0.1750 c1        1 YK9     -0.071500
     11 C18        -2.8640    1.0430    0.2820 c1        1 YK9     -0.071500
     12 C5         -1.0800   -0.1690    0.6780 c2        1 YK9      0.047000
     13 C1          1.4860   -0.2260    0.5650 c1        1 YK9     -0.004500
     14 C9          3.8010   -0.1810    0.4930 c2        1 YK9      0.318000
     15 C2          0.2200   -0.2430    1.1510 c1        1 YK9     -0.026000
     16 C6          0.0930   -0.2360    2.5390 c1        1 YK9     -0.073000
     17 C13         1.2350   -0.2110    3.3450 c1        1 YK9     -0.099333
     18 C10         2.5000   -0.1940    2.7630 c1        1 YK9     -0.099333
     19 N23        -5.1120    1.7090   -0.2290 n1        1 YK9     -0.156000
     20 N11        -2.1070   -1.0080    0.4200 n1        1 YK9     -0.165500
     21 C30         2.6280   -0.2010    1.3720 c1        1 YK9     -0.157500
     22 N12        -1.5430    1.0990    0.5930 n1        1 YK9     -0.165500
     23 O16         4.9590   -0.0880    0.8500 o         1 YK9     -0.259000
     24 H15         1.3790   -0.1700   -4.1200 ha        1 YK9      0.147333
     25 H19         3.7530   -0.1200   -4.1630 ha        1 YK9      0.147333
     26 H8          0.2320   -0.2320   -2.0470 ha        1 YK9      0.147333
     27 H14         4.9760   -0.1310   -2.1340 ha        1 YK9      0.147333
     28 H20        -4.7720   -1.5370   -0.2140 ha        1 YK9      0.161500
     29 H22        -6.3860    0.1550   -0.5570 ha        1 YK9      0.161000
     30 H21        -3.5750    2.9880    0.1550 ha        1 YK9      0.161500
     31 H11        -2.0690   -1.9190    0.4220 DU        1 YK9      0.264000
     32 H6         -0.7940   -0.2480    2.9480 ha        1 YK9      0.151000
     33 H13         1.1460   -0.2060    4.3180 ha        1 YK9      0.147333
     34 H10         3.2970   -0.1770    3.3270 ha        1 YK9      0.147333
@<TRIPOS>BOND
     1    1    3 1   
     2    1   24 1   
     3    2    4 1   
     4    2   25 1   
     5    3   26 1   
     6    4   27 1   
     7    5   10 1   
     8    5   28 1   
     9    6   19 1   
    10    6   29 1   
    11    7   11 1   
    12    7   30 1   
    13    8    9 1   
    14    9   14 1   
    15   12   15 1   
    16   12   20 1   
    17   12   22 1   
    18   13   21 1   
    19   14   21 1   
    20   14   23 1   
    21   15   16 1   
    22   16   32 1   
    23   17   18 1   
    24   17   33 1   
    25   18   34 1   
@<TRIPOS>SUBSTRUCTURE
     1 YK9         1 TEMP              0 ****  ****    0 ROOT
