@<TRIPOS>MOLECULE
YK9
   34    38     1     0     0
SMALL
bcc


@<TRIPOS>ATOM
      1 C15        -1.0020   -3.0820   -0.6350 ca        1 YK9     -0.107000
      2 C19        -2.3430   -3.3410   -0.8870 ca        1 YK9     -0.135000
      3 C8         -0.5640   -1.7930   -0.2820 ca        1 YK9     -0.104000
      4 C14        -3.3030   -2.3180   -0.7860 ca        1 YK9     -0.060000
      5 C20         4.2120   -0.0550   -1.2080 ca        1 YK9     -0.249300
      6 C22         5.3270   -0.4640   -0.4700 ca        1 YK9      0.405200
      7 C21         4.3140   -0.2080    1.6050 ca        1 YK9      0.466200
      8 C3         -1.4960   -0.7770   -0.1940 cp        1 YK9     -0.029000
      9 C7         -2.8800   -1.0520   -0.4400 ca        1 YK9     -0.172600
     10 C17         3.0790    0.2980   -0.4610 ca        1 YK9     -0.050200
     11 C18         3.1140    0.2240    0.9930 ca        1 YK9     -0.063900
     12 C5          1.1140    0.9240    0.4420 cc        1 YK9      0.457400
     13 C1         -1.3600    0.6430    0.1550 cp        1 YK9      0.020000
     14 C9         -3.6710    0.1940   -0.2350 c         1 YK9      0.598300
     15 C2         -0.2630    1.4310    0.4650 ca        1 YK9     -0.109900
     16 C6         -0.4700    2.7830    0.8160 ca        1 YK9     -0.073000
     17 C13        -1.7440    3.3320    0.8270 ca        1 YK9     -0.146000
     18 C10        -2.8640    2.5530    0.4850 ca        1 YK9     -0.044000
     19 N23         5.3880   -0.5420    0.8850 nb        1 YK9     -0.682000
     20 N11         1.8040    0.7450   -0.7880 na        1 YK9     -0.274300
     21 C30        -2.6680    1.2300    0.1550 ca        1 YK9     -0.183600
     22 N12         1.8740    0.6250    1.5170 nd        1 YK9     -0.527100
     23 O16        -4.8830    0.3430   -0.3590 o         1 YK9     -0.498100
     24 H15        -0.2630   -3.8950   -0.7060 ha        1 YK9      0.140000
     25 H19        -2.6660   -4.3560   -1.1630 ha        1 YK9      0.140000
     26 H8          0.5000   -1.6140   -0.0670 ha        1 YK9      0.150000
     27 H14        -4.3670   -2.5250   -0.9750 ha        1 YK9      0.153000
     28 H22         6.2580   -0.7570   -0.9910 h4        1 YK9      0.024100
     29 H21         4.3990   -0.2830    2.7040 h4        1 YK9      0.039100
     30 H11         1.4410    0.9020   -1.6900 hn        1 YK9      0.313700
     31 H6          0.4010    3.4000    1.0910 ha        1 YK9      0.151000
     32 H13        -1.8850    4.3870    1.1070 ha        1 YK9      0.145000
     33 H10        -3.8750    2.9900    0.4860 ha        1 YK9      0.156000
     34 H20         4.2300   -0.0130   -2.3020 ha        1 YK9      0.147000
@<TRIPOS>BOND
     1    1    2 ar  
     2    1    3 ar  
     3    1   24 1   
     4    2    4 ar  
     5    2   25 1   
     6    3    8 ar  
     7    3   26 1   
     8    4    9 ar  
     9    4   27 1   
    10    5    6 ar  
    11    5   10 ar  
    12    5   34 1   
    13    6   19 ar  
    14    6   28 1   
    15    7   11 ar  
    16    7   19 ar  
    17    7   29 1   
    18    8    9 ar  
    19    8   13 1   
    20    9   14 1   
    21   10   11 ar  
    22   10   20 1   
    23   11   22 1   
    24   12   15 1   
    25   12   20 1   
    26   12   22 2   
    27   13   15 ar  
    28   13   21 ar  
    29   14   21 1   
    30   14   23 2   
    31   15   16 ar  
    32   16   17 ar  
    33   16   31 1   
    34   17   18 ar  
    35   17   32 1   
    36   18   21 ar  
    37   18   33 1   
    38   20   30 1   
@<TRIPOS>SUBSTRUCTURE
     1 YK9         1 TEMP              0 ****  ****    0 ROOT
