@<TRIPOS>MOLECULE
YK9
   34    38     1     0     0
SMALL
bcc


@<TRIPOS>ATOM
      1 C15         0.0600   -0.5050    0.0640 ca        1 YK9     -0.107000
      2 C19         1.4270   -0.7360    0.1350 ca        1 YK9     -0.135000
      3 C8         -0.6890   -0.2070    1.2170 ca        1 YK9     -0.104000
      4 C14         2.1030   -0.6680    1.3670 ca        1 YK9     -0.060000
      5 C20        -5.7300   -1.2390    1.6870 ca        1 YK9     -0.249300
      6 C22        -6.7220   -0.4950    1.0420 ca        1 YK9      0.405200
      7 C21        -5.8390    1.5770    1.6150 ca        1 YK9      0.466200
      8 C3         -0.0380   -0.1530    2.4340 cp        1 YK9     -0.029000
      9 C7          1.3750   -0.3760    2.5010 ca        1 YK9     -0.172600
     10 C17        -4.7320   -0.4980    2.3350 ca        1 YK9     -0.050200
     11 C18        -4.7730    0.9570    2.3080 ca        1 YK9     -0.063900
     12 C5         -2.9980    0.3940    3.4600 cc        1 YK9      0.457400
     13 C1         -0.5260    0.1390    3.7890 cp        1 YK9      0.020000
     14 C9          1.8310   -0.2150    3.9110 c         1 YK9      0.598300
     15 C2         -1.7890    0.4070    4.2920 ca        1 YK9     -0.109900
     16 C6         -1.9280    0.7060    5.6660 ca        1 YK9     -0.073000
     17 C13        -0.8300    0.7050    6.5120 ca        1 YK9     -0.146000
     18 C10         0.4540    0.4040    6.0220 ca        1 YK9     -0.044000
     19 N23        -6.7850    0.8620    1.0000 nb        1 YK9     -0.682000
     20 N11        -3.6010   -0.8330    3.0720 na        1 YK9     -0.274300
     21 C30         0.5970    0.1250    4.6800 ca        1 YK9     -0.183600
     22 N12        -3.6780    1.4740    3.0210 nd        1 YK9     -0.527100
     23 O16         2.9710   -0.3350    4.3510 o         1 YK9     -0.498100
     24 H15        -0.4550   -0.5490   -0.9080 ha        1 YK9      0.140000
     25 H19         1.9960   -0.9680   -0.7780 ha        1 YK9      0.140000
     26 H8         -1.7680   -0.0080    1.1350 ha        1 YK9      0.150000
     27 H14         3.1890   -0.8390    1.4230 ha        1 YK9      0.153000
     28 H22        -7.5430   -1.0100    0.5090 h4        1 YK9      0.024100
     29 H21        -5.9210    2.6770    1.5610 h4        1 YK9      0.039100
     30 H11        -3.2730   -1.7380    3.2800 hn        1 YK9      0.313700
     31 H6         -2.9290    0.9490    6.0580 ha        1 YK9      0.151000
     32 H13        -0.9580    0.9430    7.5790 ha        1 YK9      0.145000
     33 H10         1.3250    0.3940    6.6950 ha        1 YK9      0.156000
     34 H20        -5.7390   -2.3350    1.6830 ha        1 YK9      0.147000
@<TRIPOS>BOND
     1    1    2 ar  
     2    1    3 ar  
     3    1   24 1   
     4    2    4 ar  
     5    2   25 1   
     6    3    8 ar  
     7    3   26 1   
     8    4    9 ar  
     9    4   27 1   
    10    5    6 ar  
    11    5   10 ar  
    12    5   34 1   
    13    6   19 ar  
    14    6   28 1   
    15    7   11 ar  
    16    7   19 ar  
    17    7   29 1   
    18    8    9 ar  
    19    8   13 1   
    20    9   14 1   
    21   10   11 ar  
    22   10   20 1   
    23   11   22 1   
    24   12   15 1   
    25   12   20 1   
    26   12   22 2   
    27   13   15 ar  
    28   13   21 ar  
    29   14   21 1   
    30   14   23 2   
    31   15   16 ar  
    32   16   17 ar  
    33   16   31 1   
    34   17   18 ar  
    35   17   32 1   
    36   18   21 ar  
    37   18   33 1   
    38   20   30 1   
@<TRIPOS>SUBSTRUCTURE
     1 YK9         1 TEMP              0 ****  ****    0 ROOT
