@<TRIPOS>MOLECULE
YKB
   49    53     1     0     0
SMALL
bcc


@<TRIPOS>ATOM
      1 C1          1.1870   -3.1910   -0.9090 ca        1 YKB     -0.127000
      2 C2         -0.1230   -3.4490   -1.2980 ca        1 YKB     -0.122000
      3 C3         -1.0890   -2.4310   -1.2800 ca        1 YKB     -0.105000
      4 C4          1.5790   -1.9090   -0.4990 ca        1 YKB     -0.098000
      5 C5          0.6350   -0.8930   -0.4890 cp        1 YKB     -0.048000
      6 C6         -0.7100   -1.1670   -0.8750 ca        1 YKB     -0.106300
      7 C7         -1.5580    0.0970   -0.7790 c3        1 YKB      0.194300
      8 C8          0.7370    0.5170   -0.1110 cp        1 YKB      0.002000
      9 C9         -0.5550    1.1110   -0.2320 ca        1 YKB     -0.117300
     10 C10        -0.7720    2.4340    0.0950 ca        1 YKB     -0.085000
     11 C11         0.3110    3.1990    0.5560 ca        1 YKB     -0.135000
     12 C12         1.5780    2.6400    0.6640 ca        1 YKB     -0.091000
     13 C13         1.8060    1.2950    0.3160 ca        1 YKB     -0.108900
     14 C14         3.1760    0.7760    0.4170 cc        1 YKB      0.477400
     15 N15         3.8250    0.4530    1.5590 nd        1 YKB     -0.550100
     16 N16         3.9810    0.6170   -0.7380 na        1 YKB     -0.264300
     17 C17         5.2150    0.1500   -0.2940 ca        1 YKB     -0.204500
     18 C18         5.1110    0.0510    1.1550 ca        1 YKB      0.088400
     19 C19         6.2310   -0.3970    1.8710 ca        1 YKB     -0.180300
     20 C20         7.3700   -0.7160    1.1260 ca        1 YKB      0.362200
     21 N21         7.4750   -0.6260   -0.2260 nb        1 YKB     -0.653000
     22 C22         6.4250   -0.2020   -0.9330 ca        1 YKB      0.405200
     23 N23        -2.7410   -0.0510    0.0200 n         1 YKB     -0.561900
     24 C24        -4.0080    0.2200   -0.4600 c         1 YKB      0.659100
     25 C25        -5.1590    0.0040    0.5040 c3        1 YKB     -0.144400
     26 O26        -4.1850    0.6220   -1.6280 o         1 YKB     -0.618100
     27 C27        -6.4760    0.3340   -0.1630 c3        1 YKB     -0.144400
     28 C28        -7.6260    0.1200    0.8010 c         1 YKB      0.655100
     29 O29        -7.4530   -0.2730    1.9730 o         1 YKB     -0.621100
     30 N30        -8.8950    0.3760    0.3440 n         1 YKB     -0.676000
     31 H1          1.9310   -4.0020   -0.9180 ha        1 YKB      0.138000
     32 H2         -0.4120   -4.4610   -1.6190 ha        1 YKB      0.136000
     33 H4          2.6140   -1.7260   -0.1770 ha        1 YKB      0.147000
     34 H3         -2.1250   -2.6420   -1.5840 ha        1 YKB      0.142000
     35 H7         -1.8650    0.4170   -1.8230 h1        1 YKB      0.116700
     36 H23        -2.6260   -0.3690    0.9520 hn        1 YKB      0.322500
     37 H10        -1.7700    2.8850   -0.0020 ha        1 YKB      0.146000
     38 H11         0.1510    4.2510    0.8340 ha        1 YKB      0.141000
     39 H12         2.4200    3.2490    1.0300 ha        1 YKB      0.149000
     40 H16         3.7070    0.7760   -1.6700 hn        1 YKB      0.314700
     41 H22         6.5470   -0.1400   -2.0270 h4        1 YKB      0.024100
     42 H19         6.2110   -0.4910    2.9640 ha        1 YKB      0.158000
     43 H20         8.2840   -1.0740    1.6330 h4        1 YKB      0.024100
     44 H251       -5.1690   -1.0620    0.8560 hc        1 YKB      0.084700
     45 H252       -5.0220    0.6500    1.4130 hc        1 YKB      0.084700
     46 H271       -6.4660    1.4000   -0.5140 hc        1 YKB      0.080700
     47 H272       -6.6130   -0.3130   -1.0700 hc        1 YKB      0.080700
     48 H301       -9.0530    0.6870   -0.5780 hn        1 YKB      0.313500
     49 H302       -9.6680    0.2460    0.9470 hn        1 YKB      0.313500
@<TRIPOS>BOND
     1    1    2 ar  
     2    1    4 ar  
     3    1   31 1   
     4    2    3 ar  
     5    2   32 1   
     6    3    6 ar  
     7    3   34 1   
     8    4    5 ar  
     9    4   33 1   
    10    5    6 ar  
    11    5    8 1   
    12    6    7 1   
    13    7    9 1   
    14    7   23 1   
    15    7   35 1   
    16    8    9 ar  
    17    8   13 ar  
    18    9   10 ar  
    19   10   11 ar  
    20   10   37 1   
    21   11   12 ar  
    22   11   38 1   
    23   12   13 ar  
    24   12   39 1   
    25   13   14 1   
    26   14   15 2   
    27   14   16 1   
    28   15   18 1   
    29   16   17 1   
    30   16   40 1   
    31   17   18 ar  
    32   17   22 ar  
    33   18   19 ar  
    34   19   20 ar  
    35   19   42 1   
    36   20   21 ar  
    37   20   43 1   
    38   21   22 ar  
    39   22   41 1   
    40   23   24 1   
    41   23   36 1   
    42   24   25 1   
    43   24   26 2   
    44   25   27 1   
    45   25   44 1   
    46   25   45 1   
    47   27   28 1   
    48   27   46 1   
    49   27   47 1   
    50   28   29 2   
    51   28   30 1   
    52   30   48 1   
    53   30   49 1   
@<TRIPOS>SUBSTRUCTURE
     1 YKB         1 TEMP              0 ****  ****    0 ROOT
