@<TRIPOS>MOLECULE
YKB
   51    55     1     0     0
SMALL
bcc


@<TRIPOS>ATOM
      1 C1          0.7020   -0.0350    0.3120 ca        1 YKB     -0.072000
      2 C2          2.0720   -0.0420    0.5570 ca        1 YKB     -0.123000
      3 C3          2.5600   -0.0720    1.8710 ca        1 YKB     -0.112000
      4 C4         -0.2250   -0.0670    1.3670 ca        1 YKB     -0.064000
      5 C5          0.2440   -0.0840    2.6700 cp        1 YKB      0.001000
      6 C6          1.6530   -0.0780    2.9130 ca        1 YKB     -0.198300
      7 C7          1.9150   -0.1900    4.3960 c3        1 YKB      0.264100
      8 C8         -0.4540   -0.2080    3.9550 cp        1 YKB      0.021000
      9 C9          0.5290   -0.3410    4.9850 ca        1 YKB     -0.201300
     10 C10         0.1850   -0.6000    6.2970 ca        1 YKB     -0.080000
     11 C11        -1.1780   -0.7010    6.6180 ca        1 YKB     -0.113000
     12 C12        -2.1490   -0.5200    5.6410 ca        1 YKB     -0.065000
     13 C13        -1.8000   -0.2580    4.2970 ca        1 YKB     -0.055900
     14 C14        -2.8710    0.0210    3.3370 cc        1 YKB      0.416400
     15 N15        -2.9940    1.1790    2.6390 nd        1 YKB     -0.555100
     16 N16        -3.9340   -0.8780    3.1060 na        1 YKB     -0.246300
     17 C17        -4.7840   -0.2500    2.1980 ca        1 YKB     -0.197500
     18 C18        -4.1870    1.0460    1.9120 ca        1 YKB      0.080400
     19 C19        -4.8540    1.9050    1.0200 ca        1 YKB     -0.182300
     20 C20        -6.0480    1.4340    0.4690 ca        1 YKB      0.384200
     21 N21        -6.6070    0.2200    0.7290 nb        1 YKB     -0.625000
     22 C22        -6.0020   -0.6140    1.5720 ca        1 YKB      0.421200
     23 N23         2.5330    1.0970    4.9500 ny        1 YKB     -0.670800
     24 C24         3.9980    1.2020    4.6900 c         1 YKB      0.540100
     25 C25         4.4400    2.2740    3.7280 c3        1 YKB     -0.165400
     26 O26         4.7370    0.4190    5.2710 o         1 YKB     -0.408100
     27 C27         5.9610    2.3300    3.6780 c3        1 YKB     -0.154400
     28 C28         6.4050    3.3710    2.6920 c         1 YKB      0.540100
     29 O29         5.7180    4.0670    1.9650 o         1 YKB     -0.364100
     30 N30         7.8970    3.5880    2.5790 nz        1 YKB     -0.758400
     31 H1          0.3300   -0.0210   -0.7280 ha        1 YKB      0.172000
     32 H2          2.7800   -0.0460   -0.2870 ha        1 YKB      0.157000
     33 H4         -1.3050   -0.0930    1.1440 ha        1 YKB      0.185000
     34 H3          3.6420   -0.1320    2.0540 ha        1 YKB      0.114000
     35 H7          2.6090   -1.0350    4.6670 hx        1 YKB      0.136700
     36 H23         2.0330    1.8940    4.5380 hn        1 YKB      0.472300
     37 H10         0.9460   -0.7430    7.0800 ha        1 YKB      0.146000
     38 H11        -1.4770   -0.9210    7.6570 ha        1 YKB      0.173000
     39 H12        -3.2170   -0.5690    5.9170 ha        1 YKB      0.174000
     40 H16        -4.0500   -1.7730    3.5020 hn        1 YKB      0.320700
     41 H22        -6.4890   -1.5860    1.7600 h4        1 YKB      0.041100
     42 H19        -4.4590    2.8980    0.7750 ha        1 YKB      0.162000
     43 H20        -6.6250    2.0600   -0.2380 h4        1 YKB      0.043100
     44 H251        4.0260    3.2740    4.0400 hc        1 YKB      0.130700
     45 H252        4.0190    2.0410    2.7050 hc        1 YKB      0.130700
     46 H271        6.3690    2.5670    4.7010 hc        1 YKB      0.129200
     47 H272        6.3720    1.3230    3.3790 hc        1 YKB      0.129200
     48 H301        8.2810    3.9060    3.4770 hn        1 YKB      0.485133
     49 H302        8.3670    2.7160    2.3090 hn        1 YKB      0.485133
     50 H232        2.3690    1.0930    5.9680 hn        1 YKB      0.472300
     51 H303        8.0930    4.3060    1.8630 hn        1 YKB      0.485133
@<TRIPOS>BOND
     1    1    2 ar  
     2    1    4 ar  
     3    1   31 1   
     4    2    3 ar  
     5    2   32 1   
     6    3    6 ar  
     7    3   34 1   
     8    4    5 ar  
     9    4   33 1   
    10    5    6 ar  
    11    5    8 1   
    12    6    7 1   
    13    7    9 1   
    14    7   23 1   
    15    7   35 1   
    16    8    9 ar  
    17    8   13 ar  
    18    9   10 ar  
    19   10   11 ar  
    20   10   37 1   
    21   11   12 ar  
    22   11   38 1   
    23   12   13 ar  
    24   12   39 1   
    25   13   14 1   
    26   14   15 2   
    27   14   16 1   
    28   15   18 1   
    29   16   17 1   
    30   16   40 1   
    31   17   18 ar  
    32   17   22 ar  
    33   18   19 ar  
    34   19   20 ar  
    35   19   42 1   
    36   20   21 ar  
    37   20   43 1   
    38   21   22 ar  
    39   22   41 1   
    40   23   24 1   
    41   23   36 1   
    42   23   50 1   
    43   24   25 1   
    44   24   26 2   
    45   25   27 1   
    46   25   44 1   
    47   25   45 1   
    48   27   28 1   
    49   27   46 1   
    50   27   47 1   
    51   28   29 2   
    52   28   30 1   
    53   30   48 1   
    54   30   49 1   
    55   30   51 1   
@<TRIPOS>SUBSTRUCTURE
     1 YKB         1 TEMP              0 ****  ****    0 ROOT
