@<TRIPOS>MOLECULE
YKB
   51    55     1     0     0
SMALL
bcc


@<TRIPOS>ATOM
      1 C1          0.6950    0.0530    0.2880 ca        1 YKB     -0.072000
      2 C2          2.0660    0.0380    0.5290 ca        1 YKB     -0.123000
      3 C3          2.5570   -0.0330    1.8400 ca        1 YKB     -0.112000
      4 C4         -0.2300   -0.0120    1.3430 ca        1 YKB     -0.064000
      5 C5          0.2430   -0.0690    2.6450 cp        1 YKB      0.001000
      6 C6          1.6520   -0.0720    2.8840 ca        1 YKB     -0.198300
      7 C7          1.9170   -0.2300    4.3620 c3        1 YKB      0.264100
      8 C8         -0.4520   -0.2330    3.9270 cp        1 YKB      0.021000
      9 C9          0.5330   -0.3990    4.9490 ca        1 YKB     -0.201300
     10 C10         0.1930   -0.6980    6.2540 ca        1 YKB     -0.080000
     11 C11        -1.1690   -0.8090    6.5740 ca        1 YKB     -0.113000
     12 C12        -2.1430   -0.5970    5.6060 ca        1 YKB     -0.065000
     13 C13        -1.7970   -0.2940    4.2700 ca        1 YKB     -0.055900
     14 C14        -2.8710    0.0160    3.3220 cc        1 YKB      0.416400
     15 N15        -2.9960    1.1940    2.6610 nd        1 YKB     -0.555100
     16 N16        -3.9350   -0.8760    3.0650 na        1 YKB     -0.246300
     17 C17        -4.7860   -0.2200    2.1790 ca        1 YKB     -0.197500
     18 C18        -4.1900    1.0840    1.9320 ca        1 YKB      0.080400
     19 C19        -4.8590    1.9700    1.0690 ca        1 YKB     -0.182300
     20 C20        -6.0540    1.5170    0.5070 ca        1 YKB      0.384200
     21 N21        -6.6130    0.2960    0.7300 nb        1 YKB     -0.625000
     22 C22        -6.0050   -0.5640    1.5450 ca        1 YKB      0.421200
     23 N23         2.5380    1.0390    4.9540 n4        1 YKB     -0.670800
     24 C24         4.0020    1.1520    4.6940 c         1 YKB      0.540100
     25 C25         4.4420    2.2530    3.7640 c3        1 YKB     -0.165400
     26 O26         4.7430    0.3510    5.2490 o         1 YKB     -0.408100
     27 C27         5.9630    2.3110    3.7120 c3        1 YKB     -0.154400
     28 C28         6.4050    3.3820    2.7590 c         1 YKB      0.540100
     29 O29         5.7160    4.1020    2.0570 o         1 YKB     -0.364100
     30 N30         7.8960    3.6020    2.6480 n4        1 YKB     -0.758400
     31 H1          0.3210    0.0990   -0.7500 ha        1 YKB      0.172000
     32 H2          2.7720    0.0600   -0.3170 ha        1 YKB      0.157000
     33 H4         -1.3100   -0.0310    1.1230 ha        1 YKB      0.185000
     34 H3          3.6390   -0.0990    2.0190 ha        1 YKB      0.114000
     35 H7          2.6130   -1.0830    4.6050 hx        1 YKB      0.136700
     36 H23         2.0370    1.8490    4.5680 hn        1 YKB      0.472300
     37 H10         0.9550   -0.8650    7.0300 ha        1 YKB      0.146000
     38 H11        -1.4660   -1.0600    7.6070 ha        1 YKB      0.173000
     39 H12        -3.2110   -0.6540    5.8830 ha        1 YKB      0.174000
     40 H16        -4.0500   -1.7830    3.4340 hn        1 YKB      0.320700
     41 H22        -6.4930   -1.5420    1.7040 h4        1 YKB      0.041100
     42 H19        -4.4640    2.9710    0.8550 ha        1 YKB      0.162000
     43 H20        -6.6320    2.1650   -0.1790 h4        1 YKB      0.043100
     44 H251        4.0180    2.0530    2.7360 hc        1 YKB      0.130700
     45 H252        4.0300    3.2430    4.1090 hc        1 YKB      0.130700
     46 H271        6.3720    1.3130    3.3790 hc        1 YKB      0.129200
     47 H272        6.3740    2.5140    4.7410 hc        1 YKB      0.129200
     48 H301        8.2840    3.8900    3.5540 hn        1 YKB      0.485133
     49 H302        8.0910    4.3420    1.9540 hn        1 YKB      0.485133
     50 H232        2.3760    1.0040    5.9730 hn        1 YKB      0.472300
     51 H303        8.3650    2.7380    2.3490 hn        1 YKB      0.485133
@<TRIPOS>BOND
     1    1    2 ar  
     2    1    4 ar  
     3    1   31 1   
     4    2    3 ar  
     5    2   32 1   
     6    3    6 ar  
     7    3   34 1   
     8    4    5 ar  
     9    4   33 1   
    10    5    6 ar  
    11    5    8 1   
    12    6    7 1   
    13    7    9 1   
    14    7   23 1   
    15    7   35 1   
    16    8    9 ar  
    17    8   13 ar  
    18    9   10 ar  
    19   10   11 ar  
    20   10   37 1   
    21   11   12 ar  
    22   11   38 1   
    23   12   13 ar  
    24   12   39 1   
    25   13   14 1   
    26   14   15 2   
    27   14   16 1   
    28   15   18 1   
    29   16   17 1   
    30   16   40 1   
    31   17   18 ar  
    32   17   22 ar  
    33   18   19 ar  
    34   19   20 ar  
    35   19   42 1   
    36   20   21 ar  
    37   20   43 1   
    38   21   22 ar  
    39   22   41 1   
    40   23   24 1   
    41   23   36 1   
    42   23   50 1   
    43   24   25 1   
    44   24   26 2   
    45   25   27 1   
    46   25   44 1   
    47   25   45 1   
    48   27   28 1   
    49   27   46 1   
    50   27   47 1   
    51   28   29 2   
    52   28   30 1   
    53   30   48 1   
    54   30   49 1   
    55   30   51 1   
@<TRIPOS>SUBSTRUCTURE
     1 YKB         1 TEMP              0 ****  ****    0 ROOT
