@<TRIPOS>MOLECULE
YKC
   49    54     1     0     0
SMALL
bcc


@<TRIPOS>ATOM
      1 C1          0.0680   -0.4730   -0.1470 ca        1 YKC     -0.089000
      2 C2          1.4580   -0.4480   -0.1180 ca        1 YKC     -0.115000
      3 C3          2.1440   -0.2440    1.0910 ca        1 YKC     -0.089000
      4 C4         -0.6890   -0.3040    1.0250 ca        1 YKC     -0.074000
      5 C5         -0.0250   -0.0930    2.2210 cp        1 YKC     -0.025000
      6 C6          1.4020   -0.0600    2.2400 ca        1 YKC     -0.177300
      7 C7          1.8930    0.1290    3.6590 c3        1 YKC      0.249100
      8 C8         -0.5160    0.0660    3.5930 cp        1 YKC      0.033000
      9 C9          0.6100    0.1720    4.4650 ca        1 YKC     -0.186300
     10 C10         0.4670    0.2620    5.8360 ca        1 YKC     -0.088000
     11 C11        -0.8300    0.2680    6.3700 ca        1 YKC     -0.123000
     12 C12        -1.9400    0.1950    5.5360 ca        1 YKC     -0.069000
     13 C13        -1.7950    0.0970    4.1370 ca        1 YKC     -0.074900
     14 C14        -3.0080    0.0840    3.3100 cc        1 YKC      0.433400
     15 N15        -3.4280    1.1090    2.5310 nd        1 YKC     -0.545100
     16 N16        -3.8960   -1.0150    3.3050 na        1 YKC     -0.255300
     17 C17        -4.9470   -0.6610    2.4610 ca        1 YKC     -0.200500
     18 C18        -4.6460    0.6780    1.9780 ca        1 YKC      0.082400
     19 C19        -5.5570    1.2900    1.1010 ca        1 YKC     -0.178300
     20 C20        -6.6910    0.5500    0.7570 ca        1 YKC      0.375200
     21 N21        -6.9760   -0.7030    1.2010 nb        1 YKC     -0.635000
     22 C22        -6.1310   -1.3080    2.0370 ca        1 YKC      0.414200
     23 N23         2.6490    1.4310    3.8180 n4        1 YKC     -0.672800
     24 C24         4.1500    1.3190    3.6950 c         1 YKC      0.562700
     25 C25         4.9140    2.4820    4.1700 ca        1 YKC     -0.161600
     26 O26         4.6000    0.2810    3.2320 o         1 YKC     -0.410100
     27 C27         6.2520    2.2700    4.5340 ca        1 YKC     -0.197300
     28 C28         7.0030    3.3790    4.9800 ca        1 YKC      0.417700
     29 C40         4.3810    3.7780    4.2480 ca        1 YKC     -0.197300
     30 N30         6.5040    4.6240    5.0660 nb        1 YKC     -0.596000
     31 C60         5.2200    4.8120    4.7020 ca        1 YKC      0.417700
     32 H1         -0.4580   -0.6370   -1.1030 ha        1 YKC      0.161000
     33 H2          2.0330   -0.5960   -1.0460 ha        1 YKC      0.159000
     34 H4         -1.7880   -0.3430    0.9790 ha        1 YKC      0.170000
     35 H3          3.2450   -0.2510    1.1150 ha        1 YKC      0.149000
     36 H7          2.5730   -0.7110    3.9830 hx        1 YKC      0.137700
     37 H23         2.3170    2.0860    3.0980 hn        1 YKC      0.464300
     38 H10         1.3370    0.3130    6.5060 ha        1 YKC      0.140000
     39 H11        -0.9670    0.3340    7.4620 ha        1 YKC      0.163000
     40 H12        -2.9540    0.2230    5.9690 ha        1 YKC      0.166000
     41 H16        -3.7920   -1.8620    3.7980 hn        1 YKC      0.317700
     42 H22        -6.3980   -2.3230    2.3780 h4        1 YKC      0.034100
     43 H19        -5.3860    2.3010    0.7110 ha        1 YKC      0.163000
     44 H20        -7.4480    0.9750    0.0710 h4        1 YKC      0.037100
     45 H27         6.7100    1.2710    4.4700 ha        1 YKC      0.162000
     46 H40         3.3530    4.0220    3.9490 ha        1 YKC      0.162000
     47 H28         8.0640    3.2570    5.2790 h4        1 YKC      0.060100
     48 H60         4.8460    5.8520    4.7770 h4        1 YKC      0.060100
     49 H232        2.4280    1.8290    4.7390 hn        1 YKC      0.464300
@<TRIPOS>BOND
     1    1    2 ar  
     2    1    4 ar  
     3    1   32 1   
     4    2    3 ar  
     5    2   33 1   
     6    3    6 ar  
     7    3   35 1   
     8    4    5 ar  
     9    4   34 1   
    10    5    6 ar  
    11    5    8 1   
    12    6    7 1   
    13    7    9 1   
    14    7   23 1   
    15    7   36 1   
    16    8    9 ar  
    17    8   13 ar  
    18    9   10 ar  
    19   10   11 ar  
    20   10   38 1   
    21   11   12 ar  
    22   11   39 1   
    23   12   13 ar  
    24   12   40 1   
    25   13   14 1   
    26   14   15 2   
    27   14   16 1   
    28   15   18 1   
    29   16   17 1   
    30   16   41 1   
    31   17   18 ar  
    32   17   22 ar  
    33   18   19 ar  
    34   19   20 ar  
    35   19   43 1   
    36   20   21 ar  
    37   20   44 1   
    38   21   22 ar  
    39   22   42 1   
    40   23   24 1   
    41   23   37 1   
    42   23   49 1   
    43   24   25 1   
    44   24   26 2   
    45   25   27 ar  
    46   25   29 ar  
    47   27   28 ar  
    48   27   45 1   
    49   28   30 ar  
    50   28   47 1   
    51   29   31 ar  
    52   29   46 1   
    53   30   31 ar  
    54   31   48 1   
@<TRIPOS>SUBSTRUCTURE
     1 YKC         1 TEMP              0 ****  ****    0 ROOT
