@<TRIPOS>MOLECULE
YKC
   48    53     1     0     0
SMALL
bcc


@<TRIPOS>ATOM
      1 C1          1.0930   -3.1630   -0.8690 ca        1 YKC     -0.126000
      2 C2         -0.2020   -3.4140   -1.3080 ca        1 YKC     -0.122000
      3 C3         -1.1450   -2.3770   -1.3860 ca        1 YKC     -0.104000
      4 C4          1.4930   -1.8700   -0.5000 ca        1 YKC     -0.097000
      5 C5          0.5730   -0.8380   -0.5840 cp        1 YKC     -0.047000
      6 C6         -0.7570   -1.1030   -1.0240 ca        1 YKC     -0.108300
      7 C7         -1.5800    0.1810   -1.0300 c3        1 YKC      0.194300
      8 C8          0.6880    0.5870   -0.2690 cp        1 YKC      0.003000
      9 C9         -0.5820    1.2010   -0.4880 ca        1 YKC     -0.119300
     10 C10        -0.7820    2.5450   -0.2440 ca        1 YKC     -0.086000
     11 C11         0.2950    3.3100    0.2310 ca        1 YKC     -0.135000
     12 C12         1.5410    2.7310    0.4350 ca        1 YKC     -0.091000
     13 C13         1.7520    1.3630    0.1730 ca        1 YKC     -0.107900
     14 C14         3.1010    0.8190    0.3780 cc        1 YKC      0.476400
     15 N15         3.6640    0.5130    1.5690 nd        1 YKC     -0.550100
     16 N16         3.9750    0.6080   -0.7160 na        1 YKC     -0.264300
     17 C17         5.1670    0.1280   -0.1790 ca        1 YKC     -0.204500
     18 C18         4.9640    0.0720    1.2630 ca        1 YKC      0.088400
     19 C19         6.0240   -0.3800    2.0630 ca        1 YKC     -0.180300
     20 C20         7.2020   -0.7450    1.4040 ca        1 YKC      0.363200
     21 N21         7.3980   -0.6960    0.0600 nb        1 YKC     -0.653000
     22 C22         6.4070   -0.2690   -0.7260 ca        1 YKC      0.406200
     23 N23        -2.8000    0.0920   -0.2760 n         1 YKC     -0.556900
     24 C24        -4.0280    0.4380   -0.8030 c         1 YKC      0.670700
     25 C25        -5.2160    0.2950    0.0890 ca        1 YKC     -0.103600
     26 O26        -4.1430    0.8370   -1.9800 o         1 YKC     -0.596100
     27 C27        -6.4240   -0.1370   -0.4710 ca        1 YKC     -0.210300
     28 C28        -7.5440   -0.2580    0.3710 ca        1 YKC      0.389700
     29 C40        -5.1720    0.6010    1.4530 ca        1 YKC     -0.210300
     30 N30        -7.5190    0.0250    1.6880 nb        1 YKC     -0.647000
     31 C60        -6.3510    0.4500    2.2070 ca        1 YKC      0.389700
     32 H1          1.8200   -3.9880   -0.8040 ha        1 YKC      0.138000
     33 H2         -0.4970   -4.4340   -1.5950 ha        1 YKC      0.137000
     34 H4          2.5160   -1.6920   -0.1380 ha        1 YKC      0.147000
     35 H3         -2.1690   -2.5820   -1.7300 ha        1 YKC      0.143000
     36 H7         -1.8350    0.4560   -2.1000 h1        1 YKC      0.117700
     37 H23        -2.7380   -0.2370    0.6570 hn        1 YKC      0.322500
     38 H10        -1.7620    3.0130   -0.4190 ha        1 YKC      0.148000
     39 H11         0.1480    4.3800    0.4410 ha        1 YKC      0.142000
     40 H12         2.3780    3.3390    0.8120 ha        1 YKC      0.149000
     41 H16         3.7690    0.7510   -1.6680 hn        1 YKC      0.314700
     42 H22         6.6020   -0.2400   -1.8100 h4        1 YKC      0.025100
     43 H19         5.9300   -0.4430    3.1540 ha        1 YKC      0.158000
     44 H20         8.0720   -1.1090    1.9810 h4        1 YKC      0.024100
     45 H27        -6.4920   -0.3620   -1.5460 ha        1 YKC      0.157000
     46 H40        -4.2570    0.9670    1.9380 ha        1 YKC      0.157000
     47 H28        -8.5160   -0.5980   -0.0300 h4        1 YKC      0.029600
     48 H60        -6.3620    0.6830    3.2870 h4        1 YKC      0.029600
@<TRIPOS>BOND
     1    1    2 ar  
     2    1    4 ar  
     3    1   32 1   
     4    2    3 ar  
     5    2   33 1   
     6    3    6 ar  
     7    3   35 1   
     8    4    5 ar  
     9    4   34 1   
    10    5    6 ar  
    11    5    8 1   
    12    6    7 1   
    13    7    9 1   
    14    7   23 1   
    15    7   36 1   
    16    8    9 ar  
    17    8   13 ar  
    18    9   10 ar  
    19   10   11 ar  
    20   10   38 1   
    21   11   12 ar  
    22   11   39 1   
    23   12   13 ar  
    24   12   40 1   
    25   13   14 1   
    26   14   15 2   
    27   14   16 1   
    28   15   18 1   
    29   16   17 1   
    30   16   41 1   
    31   17   18 ar  
    32   17   22 ar  
    33   18   19 ar  
    34   19   20 ar  
    35   19   43 1   
    36   20   21 ar  
    37   20   44 1   
    38   21   22 ar  
    39   22   42 1   
    40   23   24 1   
    41   23   37 1   
    42   24   25 1   
    43   24   26 2   
    44   25   27 ar  
    45   25   29 ar  
    46   27   28 ar  
    47   27   45 1   
    48   28   30 ar  
    49   28   47 1   
    50   29   31 ar  
    51   29   46 1   
    52   30   31 ar  
    53   31   48 1   
@<TRIPOS>SUBSTRUCTURE
     1 YKC         1 TEMP              0 ****  ****    0 ROOT
