@<TRIPOS>MOLECULE
YKC
   49    54     1     0     0
SMALL
bcc


@<TRIPOS>ATOM
      1 C1          0.0740   -0.4890   -0.1340 ca        1 YKC     -0.089000
      2 C2          1.4640   -0.4670   -0.1020 ca        1 YKC     -0.115000
      3 C3          2.1480   -0.2610    1.1080 ca        1 YKC     -0.089000
      4 C4         -0.6850   -0.3130    1.0360 ca        1 YKC     -0.074000
      5 C5         -0.0230   -0.1000    2.2330 cp        1 YKC     -0.025000
      6 C6          1.4040   -0.0700    2.2560 ca        1 YKC     -0.177300
      7 C7          1.8930    0.1220    3.6750 c3        1 YKC      0.249100
      8 C8         -0.5170    0.0650    3.6030 cp        1 YKC      0.033000
      9 C9          0.6080    0.1720    4.4770 ca        1 YKC     -0.186300
     10 C10         0.4610    0.2670    5.8470 ca        1 YKC     -0.088000
     11 C11        -0.8370    0.2780    6.3790 ca        1 YKC     -0.123000
     12 C12        -1.9440    0.2050    5.5420 ca        1 YKC     -0.069000
     13 C13        -1.7970    0.1020    4.1430 ca        1 YKC     -0.074900
     14 C14        -3.0080    0.0900    3.3140 cc        1 YKC      0.433400
     15 N15        -3.4230    1.1130    2.5300 nd        1 YKC     -0.545100
     16 N16        -3.8990   -1.0070    3.3100 na        1 YKC     -0.255300
     17 C17        -4.9470   -0.6540    2.4630 ca        1 YKC     -0.200500
     18 C18        -4.6410    0.6830    1.9760 ca        1 YKC      0.082400
     19 C19        -5.5480    1.2950    1.0950 ca        1 YKC     -0.178300
     20 C20        -6.6830    0.5570    0.7500 ca        1 YKC      0.375200
     21 N21        -6.9730   -0.6940    1.1980 nb        1 YKC     -0.635000
     22 C22        -6.1320   -1.2980    2.0380 ca        1 YKC      0.414200
     23 N23         2.6510    1.4220    3.8310 ny        1 YKC     -0.672800
     24 C24         4.1520    1.3070    3.7100 c         1 YKC      0.562700
     25 C25         4.9180    2.4700    4.1810 ca        1 YKC     -0.161600
     26 O26         4.6000    0.2650    3.2530 o         1 YKC     -0.410100
     27 C27         6.2550    2.2570    4.5480 ca        1 YKC     -0.196800
     28 C28         7.0080    3.3660    4.9890 ca        1 YKC      0.417700
     29 C40         4.3880    3.7670    4.2530 ca        1 YKC     -0.196800
     30 N30         6.5120    4.6120    5.0690 nb        1 YKC     -0.596000
     31 C60         5.2280    4.8010    4.7030 ca        1 YKC      0.417700
     32 H1         -0.4490   -0.6540   -1.0910 ha        1 YKC      0.161000
     33 H2          2.0410   -0.6200   -1.0280 ha        1 YKC      0.159000
     34 H4         -1.7840   -0.3490    0.9870 ha        1 YKC      0.170000
     35 H3          3.2490   -0.2710    1.1350 ha        1 YKC      0.149000
     36 H7          2.5690   -0.7190    4.0030 hx        1 YKC      0.137700
     37 H23         2.3220    2.0760    3.1080 hn        1 YKC      0.464300
     38 H10         1.3300    0.3180    6.5200 ha        1 YKC      0.140000
     39 H11        -0.9770    0.3480    7.4700 ha        1 YKC      0.163000
     40 H12        -2.9600    0.2370    5.9730 ha        1 YKC      0.166000
     41 H16        -3.7990   -1.8530    3.8060 hn        1 YKC      0.317700
     42 H22        -6.4030   -2.3110    2.3820 h4        1 YKC      0.034100
     43 H19        -5.3740    2.3040    0.7020 ha        1 YKC      0.163000
     44 H20        -7.4380    0.9820    0.0610 h4        1 YKC      0.037100
     45 H27         6.7120    1.2560    4.4890 ha        1 YKC      0.162000
     46 H40         3.3610    4.0130    3.9520 ha        1 YKC      0.162000
     47 H28         8.0690    3.2430    5.2900 h4        1 YKC      0.060100
     48 H60         4.8560    5.8430    4.7720 h4        1 YKC      0.060100
     49 H232        2.4290    1.8240    4.7500 hn        1 YKC      0.464300
@<TRIPOS>BOND
     1    1    2 ar  
     2    1    4 ar  
     3    1   32 1   
     4    2    3 ar  
     5    2   33 1   
     6    3    6 ar  
     7    3   35 1   
     8    4    5 ar  
     9    4   34 1   
    10    5    6 ar  
    11    5    8 1   
    12    6    7 1   
    13    7    9 1   
    14    7   23 1   
    15    7   36 1   
    16    8    9 ar  
    17    8   13 ar  
    18    9   10 ar  
    19   10   11 ar  
    20   10   38 1   
    21   11   12 ar  
    22   11   39 1   
    23   12   13 ar  
    24   12   40 1   
    25   13   14 1   
    26   14   15 2   
    27   14   16 1   
    28   15   18 1   
    29   16   17 1   
    30   16   41 1   
    31   17   18 ar  
    32   17   22 ar  
    33   18   19 ar  
    34   19   20 ar  
    35   19   43 1   
    36   20   21 ar  
    37   20   44 1   
    38   21   22 ar  
    39   22   42 1   
    40   23   24 1   
    41   23   37 1   
    42   23   49 1   
    43   24   25 1   
    44   24   26 2   
    45   25   27 ar  
    46   25   29 ar  
    47   27   28 ar  
    48   27   45 1   
    49   28   30 ar  
    50   28   47 1   
    51   29   31 ar  
    52   29   46 1   
    53   30   31 ar  
    54   31   48 1   
@<TRIPOS>SUBSTRUCTURE
     1 YKC         1 TEMP              0 ****  ****    0 ROOT
