@<TRIPOS>MOLECULE
YKE
   55    61     1     0     0
SMALL
bcc


@<TRIPOS>ATOM
      1 C1          0.6920   -0.5700    0.6660 ca        1 YKE     -0.159000
      2 C2          2.0550   -0.8110    1.0280 ca        1 YKE     -0.015000
      3 C3          2.4730   -0.7600    2.3300 ca        1 YKE     -0.217000
      4 C4         -0.2510   -0.2810    1.6080 ca        1 YKE     -0.047000
      5 C5          0.1270   -0.2150    2.9820 ca        1 YKE     -0.094000
      6 C6          1.5280   -0.4650    3.3470 ca        1 YKE      0.072000
      7 C7          1.6410   -0.3640    4.7420 cc        1 YKE     -0.213000
      8 C8         -0.5920    0.0330    4.1450 cc        1 YKE      0.014800
      9 C9          0.3240   -0.0590    5.2940 cc        1 YKE     -0.093000
     10 C10        -0.1160    0.1230    6.5680 cf        1 YKE      0.032000
     11 C11        -1.5040    0.4140    6.8050 cf        1 YKE     -0.181000
     12 C12        -2.3910    0.5160    5.7910 c2        1 YKE     -0.074200
     13 C13        -2.0320    0.2860    4.3610 c3        1 YKE     -0.031600
     14 C14        -2.5510    1.4110    3.5100 cc        1 YKE      0.401800
     15 N15        -3.4090    1.2620    2.4750 nd        1 YKE     -0.548100
     16 N16        -2.1860    2.7560    3.7360 na        1 YKE     -0.257300
     17 C17        -2.8650    3.5100    2.7790 ca        1 YKE     -0.198500
     18 C18        -3.6330    2.5610    1.9870 ca        1 YKE      0.088400
     19 C19        -4.4230    3.0560    0.9370 ca        1 YKE     -0.174300
     20 C20        -4.4040    4.4380    0.7340 ca        1 YKE      0.376200
     21 N21        -3.6860    5.3300    1.4690 nb        1 YKE     -0.634000
     22 C22        -2.9290    4.8890    2.4740 ca        1 YKE      0.412200
     23 N23         2.8270   -0.6020    5.5140 ny        1 YKE     -0.492600
     24 C24         3.3270    0.6380    6.2560 c         1 YKE      0.591700
     25 C25         4.3540    1.4210    5.5680 ca        1 YKE     -0.190600
     26 O26         2.8260    0.7970    7.3610 o         1 YKE     -0.451100
     27 C27         4.2290    1.7100    4.2180 ca        1 YKE     -0.055000
     28 C28         6.2810    2.9920    4.2490 ca        1 YKE     -0.077300
     29 C29         5.1930    2.5000    3.5660 ca        1 YKE     -0.153000
     30 C30         5.4610    1.9210    6.3170 ca        1 YKE     -0.097300
     31 C31         6.4460    2.7100    5.6430 ca        1 YKE      0.382600
     32 N32         7.5540    3.2180    6.2970 nb        1 YKE     -0.631000
     33 C33         7.6890    2.9630    7.5840 ca        1 YKE      0.427200
     34 C34         6.7530    2.1890    8.3460 ca        1 YKE     -0.197300
     35 C35         5.6520    1.6750    7.7100 ca        1 YKE     -0.116000
     36 H1          0.4210   -0.6290   -0.4010 ha        1 YKE      0.162000
     37 H2          2.7720   -1.0450    0.2210 ha        1 YKE      0.154000
     38 H4         -1.3040   -0.0990    1.3360 ha        1 YKE      0.172000
     39 H3          3.5230   -0.9530    2.5940 ha        1 YKE      0.130000
     40 H23         3.5670   -0.9350    4.8840 hn        1 YKE      0.454800
     41 H10         0.5640    0.0710    7.4380 ha        1 YKE      0.161000
     42 H11        -1.8210    0.5560    7.8520 ha        1 YKE      0.169000
     43 H12        -3.4530    0.7540    5.9770 ha        1 YKE      0.172000
     44 H13        -2.5830   -0.6670    4.0450 hc        1 YKE      0.156700
     45 H16        -1.5930    3.0990    4.4420 hn        1 YKE      0.312700
     46 H22        -2.3660    5.6430    3.0490 h4        1 YKE      0.031100
     47 H19        -5.0280    2.3880    0.3090 ha        1 YKE      0.166000
     48 H20        -5.0050    4.8920   -0.0760 h4        1 YKE      0.038100
     49 H27         3.3640    1.3470    3.6350 ha        1 YKE      0.155000
     50 H29         5.0610    2.7270    2.4940 ha        1 YKE      0.165000
     51 H28         7.0370    3.6120    3.7340 ha        1 YKE      0.180000
     52 H35         4.9080    1.0890    8.2710 ha        1 YKE      0.150000
     53 H33         8.5870    3.3850    8.0780 h4        1 YKE      0.050100
     54 H34         6.9330    2.0270    9.4190 ha        1 YKE      0.167000
     55 H232        2.6180   -1.3320    6.2090 hn        1 YKE      0.454800
@<TRIPOS>BOND
     1    1    2 ar  
     2    1    4 ar  
     3    1   36 1   
     4    2    3 ar  
     5    2   37 1   
     6    3    6 ar  
     7    3   39 1   
     8    4    5 ar  
     9    4   38 1   
    10    5    6 ar  
    11    5    8 2   
    12    6    7 2   
    13    7    9 1   
    14    7   23 1   
    15    8    9 1   
    16    8   13 1   
    17    9   10 2   
    18   10   11 1   
    19   10   41 1   
    20   11   12 2   
    21   11   42 1   
    22   12   13 1   
    23   12   43 1   
    24   13   14 1   
    25   13   44 1   
    26   14   15 2   
    27   14   16 1   
    28   15   18 1   
    29   16   17 1   
    30   16   45 1   
    31   17   18 ar  
    32   17   22 ar  
    33   18   19 ar  
    34   19   20 ar  
    35   19   47 1   
    36   20   21 ar  
    37   20   48 1   
    38   21   22 ar  
    39   22   46 1   
    40   23   24 1   
    41   23   40 1   
    42   23   55 1   
    43   24   25 1   
    44   24   26 2   
    45   25   27 ar  
    46   25   30 ar  
    47   27   29 ar  
    48   27   49 1   
    49   28   29 ar  
    50   28   31 ar  
    51   28   51 1   
    52   29   50 1   
    53   30   31 ar  
    54   30   35 ar  
    55   31   32 ar  
    56   32   33 ar  
    57   33   34 ar  
    58   33   53 1   
    59   34   35 ar  
    60   34   54 1   
    61   35   52 1   
@<TRIPOS>SUBSTRUCTURE
     1 YKE         1 TEMP              0 ****  ****    0 ROOT
