@<TRIPOS>MOLECULE
YKE
   55    61     1     0     0
SMALL
bcc


@<TRIPOS>ATOM
      1 C1          0.7140   -0.5720    0.6620 ca        1 YKE     -0.159000
      2 C2          2.0770   -0.8080    1.0300 ca        1 YKE     -0.015000
      3 C3          2.4880   -0.7550    2.3350 ca        1 YKE     -0.217000
      4 C4         -0.2340   -0.2860    1.6000 ca        1 YKE     -0.047000
      5 C5          0.1370   -0.2180    2.9760 ca        1 YKE     -0.094000
      6 C6          1.5370   -0.4640    3.3470 ca        1 YKE      0.072000
      7 C7          1.6430   -0.3620    4.7420 cc        1 YKE     -0.213000
      8 C8         -0.5890    0.0270    4.1350 cc        1 YKE      0.014800
      9 C9          0.3220   -0.0620    5.2890 cc        1 YKE     -0.093000
     10 C10        -0.1240    0.1190    6.5610 cf        1 YKE      0.031000
     11 C11        -1.5140    0.4040    6.7910 cf        1 YKE     -0.181000
     12 C12        -2.3970    0.5030    5.7730 c2        1 YKE     -0.075200
     13 C13        -2.0300    0.2750    4.3440 c3        1 YKE     -0.031600
     14 C14        -2.5490    1.4000    3.4920 cc        1 YKE      0.401800
     15 N15        -3.4000    1.2480    2.4520 nd        1 YKE     -0.548100
     16 N16        -2.1890    2.7450    3.7210 na        1 YKE     -0.257300
     17 C17        -2.8650    3.4970    2.7610 ca        1 YKE     -0.198500
     18 C18        -3.6250    2.5470    1.9640 ca        1 YKE      0.088400
     19 C19        -4.4110    3.0400    0.9090 ca        1 YKE     -0.174300
     20 C20        -4.3960    4.4230    0.7080 ca        1 YKE      0.376200
     21 N21        -3.6860    5.3160    1.4480 nb        1 YKE     -0.634000
     22 C22        -2.9330    4.8770    2.4570 ca        1 YKE      0.412200
     23 N23         2.8270   -0.5960    5.5200 n4        1 YKE     -0.492600
     24 C24         3.3180    0.6460    6.2640 c         1 YKE      0.591700
     25 C25         4.3460    1.4330    5.5820 ca        1 YKE     -0.190600
     26 O26         2.8110    0.8030    7.3680 o         1 YKE     -0.451100
     27 C27         4.2260    1.7210    4.2310 ca        1 YKE     -0.055000
     28 C28         6.2710    3.0120    4.2710 ca        1 YKE     -0.077300
     29 C29         5.1890    2.5160    3.5830 ca        1 YKE     -0.153000
     30 C30         5.4460    1.9380    6.3360 ca        1 YKE     -0.097300
     31 C31         6.4320    2.7310    5.6650 ca        1 YKE      0.382600
     32 N32         7.5350    3.2440    6.3250 nb        1 YKE     -0.631000
     33 C33         7.6650    2.9890    7.6130 ca        1 YKE      0.427200
     34 C34         6.7280    2.2110    8.3700 ca        1 YKE     -0.197300
     35 C35         5.6330    1.6930    7.7290 ca        1 YKE     -0.116000
     36 H1          0.4480   -0.6320   -0.4060 ha        1 YKE      0.162000
     37 H2          2.7970   -1.0390    0.2280 ha        1 YKE      0.154000
     38 H4         -1.2870   -0.1080    1.3230 ha        1 YKE      0.172000
     39 H3          3.5370   -0.9440    2.6040 ha        1 YKE      0.130000
     40 H23         2.6160   -1.3270    6.2140 hn        1 YKE      0.454800
     41 H10         0.5510    0.0680    7.4340 ha        1 YKE      0.161000
     42 H11        -1.8360    0.5450    7.8370 ha        1 YKE      0.169000
     43 H12        -3.4600    0.7380    5.9540 ha        1 YKE      0.172000
     44 H13        -2.5770   -0.6790    4.0250 hc        1 YKE      0.156700
     45 H16        -1.6020    3.0900    4.4320 hn        1 YKE      0.312700
     46 H22        -2.3760    5.6320    3.0370 h4        1 YKE      0.031100
     47 H19        -5.0090    2.3700    0.2770 ha        1 YKE      0.166000
     48 H20        -4.9940    4.8750   -0.1050 h4        1 YKE      0.038100
     49 H27         3.3640    1.3550    3.6430 ha        1 YKE      0.155000
     50 H29         5.0600    2.7420    2.5110 ha        1 YKE      0.165000
     51 H28         7.0270    3.6350    3.7600 ha        1 YKE      0.180000
     52 H35         4.8880    1.1030    8.2870 ha        1 YKE      0.150000
     53 H33         8.5580    3.4150    8.1110 h4        1 YKE      0.050100
     54 H34         6.9040    2.0500    9.4440 ha        1 YKE      0.167000
     55 H232        3.5710   -0.9260    4.8940 hn        1 YKE      0.454800
@<TRIPOS>BOND
     1    1    2 ar  
     2    1    4 ar  
     3    1   36 1   
     4    2    3 ar  
     5    2   37 1   
     6    3    6 ar  
     7    3   39 1   
     8    4    5 ar  
     9    4   38 1   
    10    5    6 ar  
    11    5    8 2   
    12    6    7 2   
    13    7    9 1   
    14    7   23 1   
    15    8    9 1   
    16    8   13 1   
    17    9   10 2   
    18   10   11 1   
    19   10   41 1   
    20   11   12 2   
    21   11   42 1   
    22   12   13 1   
    23   12   43 1   
    24   13   14 1   
    25   13   44 1   
    26   14   15 2   
    27   14   16 1   
    28   15   18 1   
    29   16   17 1   
    30   16   45 1   
    31   17   18 ar  
    32   17   22 ar  
    33   18   19 ar  
    34   19   20 ar  
    35   19   47 1   
    36   20   21 ar  
    37   20   48 1   
    38   21   22 ar  
    39   22   46 1   
    40   23   24 1   
    41   23   40 1   
    42   23   55 1   
    43   24   25 1   
    44   24   26 2   
    45   25   27 ar  
    46   25   30 ar  
    47   27   29 ar  
    48   27   49 1   
    49   28   29 ar  
    50   28   31 ar  
    51   28   51 1   
    52   29   50 1   
    53   30   31 ar  
    54   30   35 ar  
    55   31   32 ar  
    56   32   33 ar  
    57   33   34 ar  
    58   33   53 1   
    59   34   35 ar  
    60   34   54 1   
    61   35   52 1   
@<TRIPOS>SUBSTRUCTURE
     1 YKE         1 TEMP              0 ****  ****    0 ROOT
