@<TRIPOS>MOLECULE
YKE
   54    60     1     0     0
SMALL
bcc


@<TRIPOS>ATOM
      1 C1          2.1900    3.8850   -0.4440 ca        1 YKE     -0.110000
      2 C2          0.8470    4.1140   -0.9040 ca        1 YKE     -0.142000
      3 C3         -0.1330    3.1900   -0.7110 ca        1 YKE     -0.093000
      4 C4          2.5360    2.7360    0.1960 ca        1 YKE     -0.126000
      5 C5          1.5490    1.7260    0.4240 ca        1 YKE     -0.021000
      6 C6          0.1730    1.9650   -0.0460 ca        1 YKE     -0.132000
      7 C7         -0.6160    0.8590    0.2900 cc        1 YKE      0.078600
      8 C8          1.5990    0.4910    1.0340 cc        1 YKE     -0.164200
      9 C9          0.2490   -0.1050    0.9980 cc        1 YKE     -0.078000
     10 C10        -0.0110   -1.2940    1.5890 cf        1 YKE      0.028000
     11 C11         1.0570   -1.9990    2.2580 cf        1 YKE     -0.177000
     12 C12         2.3150   -1.5200    2.2980 c2        1 YKE     -0.090200
     13 C13         2.7180   -0.2110    1.6960 c3        1 YKE      0.011400
     14 C14         3.8940   -0.4420    0.7790 cc        1 YKE      0.431800
     15 N15         5.1160   -0.8660    1.1840 nd        1 YKE     -0.580100
     16 N16         3.8140   -0.2480   -0.6150 na        1 YKE     -0.247300
     17 C17         5.0720   -0.5530   -1.1290 ca        1 YKE     -0.204500
     18 C18         5.8860   -0.9490    0.0130 ca        1 YKE      0.095400
     19 C19         7.2180   -1.3220   -0.2240 ca        1 YKE     -0.185300
     20 C20         7.6600   -1.2830   -1.5490 ca        1 YKE      0.363200
     21 N21         6.9060   -0.9140   -2.6180 nb        1 YKE     -0.657000
     22 C22         5.6350   -0.5550   -2.4240 ca        1 YKE      0.409200
     23 N23        -1.9790    0.7650    0.0540 n         1 YKE     -0.453100
     24 C24        -2.7080   -0.3770   -0.2680 c         1 YKE      0.676700
     25 C25        -4.1290   -0.1210   -0.6640 ca        1 YKE     -0.124600
     26 O26        -2.2310   -1.5230   -0.2110 o         1 YKE     -0.578100
     27 C27        -4.4020    0.6920   -1.7420 ca        1 YKE     -0.098000
     28 C28        -6.7840    0.3580   -1.4560 ca        1 YKE     -0.138300
     29 C29        -5.7380    0.9250   -2.1390 ca        1 YKE     -0.135000
     30 C30        -5.1830   -0.7400    0.0610 ca        1 YKE     -0.113300
     31 C31        -6.5360   -0.4910   -0.3300 ca        1 YKE      0.389600
     32 N32        -7.6070   -1.0510    0.3450 nb        1 YKE     -0.655000
     33 C33        -7.3470   -1.8400    1.3710 ca        1 YKE      0.416200
     34 C34        -6.0280   -2.1570    1.8280 ca        1 YKE     -0.240300
     35 C35        -4.9570   -1.6070    1.1720 ca        1 YKE     -0.078000
     36 H1          2.9340    4.6750   -0.6260 ha        1 YKE      0.133000
     37 H2          0.6360    5.0640   -1.4170 ha        1 YKE      0.131000
     38 H4          3.5600    2.5590    0.5570 ha        1 YKE      0.139000
     39 H3         -1.1610    3.3660   -1.0590 ha        1 YKE      0.119000
     40 H23        -2.4300    1.6410   -0.1200 hn        1 YKE      0.323500
     41 H10        -1.0110   -1.7600    1.5730 ha        1 YKE      0.165000
     42 H11         0.8010   -2.9600    2.7320 ha        1 YKE      0.144000
     43 H12         3.1280   -2.0760    2.7940 ha        1 YKE      0.155000
     44 H13         3.0900    0.4470    2.5460 hc        1 YKE      0.110700
     45 H16         3.0330    0.1060   -1.1050 hn        1 YKE      0.324700
     46 H22         5.0530   -0.2640   -3.3130 h4        1 YKE      0.025100
     47 H19         7.8800   -1.6310    0.5960 ha        1 YKE      0.155000
     48 H20         8.6990   -1.5660   -1.7970 h4        1 YKE      0.022100
     49 H27        -3.5880    1.1590   -2.3190 ha        1 YKE      0.141000
     50 H29        -5.9270    1.5710   -3.0100 ha        1 YKE      0.144000
     51 H28        -7.8260    0.5450   -1.7640 ha        1 YKE      0.157000
     52 H35        -3.9210   -1.8330    1.4710 ha        1 YKE      0.155000
     53 H33        -8.2240   -2.2710    1.8900 h4        1 YKE      0.027100
     54 H34        -5.9010   -2.8320    2.6840 ha        1 YKE      0.150000
@<TRIPOS>BOND
     1    1    2 ar  
     2    1    4 ar  
     3    1   36 1   
     4    2    3 ar  
     5    2   37 1   
     6    3    6 ar  
     7    3   39 1   
     8    4    5 ar  
     9    4   38 1   
    10    5    6 ar  
    11    5    8 2   
    12    6    7 2   
    13    7    9 1   
    14    7   23 1   
    15    8    9 1   
    16    8   13 1   
    17    9   10 2   
    18   10   11 1   
    19   10   41 1   
    20   11   12 2   
    21   11   42 1   
    22   12   13 1   
    23   12   43 1   
    24   13   14 1   
    25   13   44 1   
    26   14   15 2   
    27   14   16 1   
    28   15   18 1   
    29   16   17 1   
    30   16   45 1   
    31   17   18 ar  
    32   17   22 ar  
    33   18   19 ar  
    34   19   20 ar  
    35   19   47 1   
    36   20   21 ar  
    37   20   48 1   
    38   21   22 ar  
    39   22   46 1   
    40   23   24 1   
    41   23   40 1   
    42   24   25 1   
    43   24   26 2   
    44   25   27 ar  
    45   25   30 ar  
    46   27   29 ar  
    47   27   49 1   
    48   28   29 ar  
    49   28   31 ar  
    50   28   51 1   
    51   29   50 1   
    52   30   31 ar  
    53   30   35 ar  
    54   31   32 ar  
    55   32   33 ar  
    56   33   34 ar  
    57   33   53 1   
    58   34   35 ar  
    59   34   54 1   
    60   35   52 1   
@<TRIPOS>SUBSTRUCTURE
     1 YKE         1 TEMP              0 ****  ****    0 ROOT
