@<TRIPOS>MOLECULE
YKI
   53    57     1     0     0
SMALL
bcc


@<TRIPOS>ATOM
      1 C1          2.6080   -2.1290   -2.3640 c1        1 YKI      0.105000
      2 N1          2.8130   -1.7580   -1.2640 n2        1 YKI     -0.399000
      3 C2          2.1860   -0.6920    1.6020 c1        1 YKI      0.231000
      4 N2          1.8020    0.2430    3.9040 na        1 YKI     -0.189000
      5 C3         -0.8290   -1.0250    1.7000 c2        1 YKI     -0.166000
      6 N3         -0.5240   -0.0040    3.9390 n2        1 YKI     -0.157000
      7 C4          0.5410    0.4500    4.5870 c2        1 YKI      0.098000
      8 N4         -3.1190    0.9050    8.8520 ny        1 YKI     -0.111000
      9 C5         -0.0720   -0.4850    2.6640 c2        1 YKI     -0.027000
     10 N5         -6.6650   -1.4620   11.8240 n2        1 YKI     -0.069000
     11 C6          1.4290   -0.2920    2.6230 c2        1 YKI     -0.319000
     12 N6         -5.9180   -0.5700   14.0210 na        1 YKI     -0.183000
     13 C7          0.5540    0.9920    5.9380 c2        1 YKI     -0.028000
     14 C8          0.1120    0.4630    8.7460 c3        1 YKI     -0.095000
     15 C9          1.5090    0.6230    8.1860 c2        1 YKI     -0.092000
     16 C10         1.4710    0.7080    6.8690 c1        1 YKI     -0.057000
     17 C12        -4.3180   -0.1340   10.8060 c2        1 YKI     -0.115000
     18 O13        -2.1210    0.8730   10.9620 o         1 YKI     -0.193000
     19 C14        -5.1820   -0.8550    9.9750 c2        1 YKI     -0.162000
     20 C15        -6.3180   -1.4880   10.5280 c2        1 YKI     -0.057000
     21 C16        -2.0780    1.9210    8.4360 c3        1 YKI      0.051000
     22 C17        -0.8190    1.2810    7.8990 c2        1 YKI     -0.204000
     23 C18        -0.5880    1.6530    6.5930 c2        1 YKI      0.047000
     24 C19        -2.5630    2.7310    7.2730 c2        1 YKI     -0.161000
     25 C20        -1.5480    2.7080    6.1220 c3        1 YKI     -0.018000
     26 C21        -2.2940    2.4900    4.8320 c2        1 YKI     -0.089000
     27 C22        -3.6100    2.7660    4.6710 c2        1 YKI     -0.170000
     28 C23        -4.2960    3.4880    5.7540 c2        1 YKI      0.009000
     29 C24        -3.7500    3.1960    6.9360 c1        1 YKI     -0.184000
     30 C25        -4.6100   -0.0750   12.1750 c2        1 YKI     -0.048000
     31 C26        -5.8260   -0.7690   12.6350 c2        1 YKI      0.034000
     32 C27        -4.8310    0.1970   14.4260 c2        1 YKI     -0.001000
     33 C28        -4.0160    0.5190   13.3360 c2        1 YKI     -0.218000
     34 H1         -1.9140   -1.1570    1.8100 ha        1 YKI      0.143500
     35 H2          2.9850   -1.4520   -0.3570 hn        1 YKI      0.287000
     36 H3         -0.3950   -1.3680    0.7520 ha        1 YKI      0.143500
     37 HN4        -4.0470    1.2850    8.6160 hn        1 YKI      0.260500
     38 H8         -0.2250   -0.6070    8.7800 hc        1 YKI      0.130000
     39 H9          0.1160    0.8610    9.7980 hc        1 YKI      0.130000
     40 H10         2.3670    0.7460    8.8530 ha        1 YKI      0.186000
     41 H14        -5.0050   -0.9760    8.8980 ha        1 YKI      0.137000
     42 H15        -7.0030   -2.0640    9.8750 h4        1 YKI      0.190000
     43 H16        -2.9770    0.0450    8.3090 hn        1 YKI      0.260500
     44 H21        -0.9760    3.6780    6.0220 hc        1 YKI      0.160000
     45 H22        -1.6810    2.1640    3.9770 ha        1 YKI      0.177000
     46 H23        -4.1450    2.5930    3.7270 ha        1 YKI      0.171000
     47 H24        -5.0770    4.2260    5.5370 ha        1 YKI      0.186000
     48 H27        -3.0940    1.0970   13.3610 ha        1 YKI      0.183000
     49 H28        -4.7060    0.4680   15.4810 h4        1 YKI      0.197000
     50 HN2         2.4240    1.0230    3.8860 hn        1 YKI      0.218000
     51 H42        -1.8620    2.5680    9.3380 hx        1 YKI      0.176000
     52 C11        -3.1130    0.5470   10.3240 c2        1 YKI      0.316000
     53 HN6        -6.6370   -0.9300   14.5990 hn        1 YKI      0.286000
@<TRIPOS>BOND
     1    1    2 1   
     2    2   35 1   
     3    3   11 1   
     4    4    7 1   
     5    4   11 1   
     6    4   50 1   
     7    5    9 1   
     8    5   34 1   
     9    5   36 1   
    10    6    7 1   
    11    6    9 1   
    12    7   13 1   
    13    8   21 1   
    14    8   37 1   
    15    8   43 1   
    16    8   52 1   
    17    9   11 1   
    18   10   20 1   
    19   10   31 1   
    20   12   31 1   
    21   12   32 1   
    22   12   53 1   
    23   13   16 1   
    24   13   23 1   
    25   14   15 1   
    26   14   22 1   
    27   14   38 1   
    28   14   39 1   
    29   15   16 1   
    30   15   40 1   
    31   17   19 1   
    32   17   30 1   
    33   17   52 1   
    34   18   52 1   
    35   19   20 1   
    36   19   41 1   
    37   20   42 1   
    38   21   22 1   
    39   21   24 1   
    40   21   51 1   
    41   22   23 1   
    42   23   25 1   
    43   24   25 1   
    44   24   29 1   
    45   25   26 1   
    46   25   44 1   
    47   26   27 1   
    48   26   45 1   
    49   27   28 1   
    50   27   46 1   
    51   28   29 1   
    52   28   47 1   
    53   30   31 1   
    54   30   33 1   
    55   32   33 1   
    56   32   49 1   
    57   33   48 1   
@<TRIPOS>SUBSTRUCTURE
     1 YKI         1 TEMP              0 ****  ****    0 ROOT
