@<TRIPOS>MOLECULE
YKI
   52    58     1     0     0
SMALL
bcc


@<TRIPOS>ATOM
      1 C1          7.9190    0.8640   -1.3000 ca        1 YKI      0.362200
      2 N1          8.0620    0.9340    0.0500 nb        1 YKI     -0.654000
      3 C2          7.0560    0.5310    0.8310 ca        1 YKI      0.405200
      4 N2          4.6640   -0.4470    0.8030 na        1 YKI     -0.264300
      5 C3          6.7850    0.3950   -1.9700 ca        1 YKI     -0.180300
      6 N3          4.4440   -0.5540   -1.4920 nc        1 YKI     -0.551100
      7 C4          3.8440   -0.7840   -0.3010 cd        1 YKI      0.477400
      8 N4         -2.1030   -0.2620    0.1450 n         1 YKI     -0.560900
      9 C5          5.7120   -0.0340   -1.1750 ca        1 YKI      0.088400
     10 N5         -6.7380   -0.4930   -2.0750 nb        1 YKI     -0.654000
     11 C6          5.8570    0.0380    0.2730 ca        1 YKI     -0.204500
     12 N6         -7.9180    0.5670   -0.1570 na        1 YKI     -0.288100
     13 C7          2.5110   -1.3670   -0.1010 ca        1 YKI     -0.108900
     14 C8          0.0140   -2.6220    0.3240 ca        1 YKI     -0.085000
     15 C9          1.1330   -3.3720   -0.0690 ca        1 YKI     -0.136000
     16 C10         2.3610   -2.7560   -0.2780 ca        1 YKI     -0.092000
     17 C12        -4.4920   -0.5740   -0.2660 ca        1 YKI     -0.056600
     18 O13        -3.4510   -0.9490    1.8670 o         1 YKI     -0.595100
     19 C14        -4.4110   -1.0650   -1.5650 ca        1 YKI     -0.251300
     20 C15        -5.5480   -1.0030   -2.4110 ca        1 YKI      0.406200
     21 C16        -0.8990   -0.2460    0.9280 c3        1 YKI      0.194300
     22 C17         0.1540   -1.2580    0.4820 ca        1 YKI     -0.117300
     23 C18         1.4040   -0.6080    0.2570 cp        1 YKI      0.002000
     24 C19        -0.1290    1.0670    0.8520 ca        1 YKI     -0.107300
     25 C20         1.2230    0.8290    0.4680 cp        1 YKI     -0.047000
     26 C21         2.1020    1.8920    0.3340 ca        1 YKI     -0.098000
     27 C22         1.6400    3.1890    0.5990 ca        1 YKI     -0.127000
     28 C23         0.3230    3.4140    0.9850 ca        1 YKI     -0.123000
     29 C24        -0.5800    2.3470    1.1120 ca        1 YKI     -0.104000
     30 C25        -5.7110   -0.0370    0.1610 ca        1 YKI     -0.159100
     31 C26        -6.8160   -0.0160   -0.7980 ca        1 YKI      0.416800
     32 C27        -7.5430    0.8890    1.1500 cc        1 YKI     -0.097100
     33 C28        -6.2140    0.5410    1.3790 cd        1 YKI     -0.167200
     34 H1          8.7970    1.2150   -1.8720 h4        1 YKI      0.024100
     35 H2          7.2080    0.6010    1.9210 h4        1 YKI      0.025100
     36 H3          6.7340    0.3640   -3.0650 ha        1 YKI      0.158000
     37 HN4        -2.0350    0.0110   -0.8060 hn        1 YKI      0.323500
     38 H8         -0.9520   -3.1160    0.5020 ha        1 YKI      0.149000
     39 H9          1.0350   -4.4580   -0.2120 ha        1 YKI      0.141000
     40 H10         3.2330   -3.3540   -0.5890 ha        1 YKI      0.148000
     41 H14        -3.4880   -1.5170   -1.9510 ha        1 YKI      0.147000
     42 H15        -5.4830   -1.3970   -3.4430 h4        1 YKI      0.027100
     43 H16        -1.1690   -0.4580    2.0100 h1        1 YKI      0.116700
     44 H21         3.1410    1.7330    0.0110 ha        1 YKI      0.147000
     45 H22         2.3330    4.0370    0.4930 ha        1 YKI      0.137000
     46 H23        -0.0220    4.4390    1.1900 ha        1 YKI      0.136000
     47 H24        -1.6210    2.5310    1.4110 ha        1 YKI      0.144000
     48 H27        -8.2640    1.3490    1.8290 h4        1 YKI      0.172000
     49 H28        -5.6490    0.6510    2.3020 ha        1 YKI      0.177000
     50 HN2         4.4230   -0.5160    1.7560 hn        1 YKI      0.314700
     51 C11        -3.3310   -0.6190    0.6710 c         1 YKI      0.675700
     52 HN6        -8.8090    0.6950   -0.5600 hn        1 YKI      0.311700
@<TRIPOS>BOND
     1    1    2 ar  
     2    1    5 ar  
     3    1   34 1   
     4    2    3 ar  
     5    3   11 ar  
     6    3   35 1   
     7    4    7 1   
     8    4   11 1   
     9    4   50 1   
    10    5    9 ar  
    11    5   36 1   
    12    6    7 2   
    13    6    9 1   
    14    7   13 1   
    15    8   21 1   
    16    8   37 1   
    17    8   51 1   
    18    9   11 ar  
    19   10   20 ar  
    20   10   31 ar  
    21   12   31 1   
    22   12   32 1   
    23   12   52 1   
    24   13   16 ar  
    25   13   23 ar  
    26   14   15 ar  
    27   14   22 ar  
    28   14   38 1   
    29   15   16 ar  
    30   15   39 1   
    31   16   40 1   
    32   17   19 ar  
    33   17   30 ar  
    34   17   51 1   
    35   18   51 2   
    36   19   20 ar  
    37   19   41 1   
    38   20   42 1   
    39   21   22 1   
    40   21   24 1   
    41   21   43 1   
    42   22   23 ar  
    43   23   25 1   
    44   24   25 ar  
    45   24   29 ar  
    46   25   26 ar  
    47   26   27 ar  
    48   26   44 1   
    49   27   28 ar  
    50   27   45 1   
    51   28   29 ar  
    52   28   46 1   
    53   29   47 1   
    54   30   31 ar  
    55   30   33 1   
    56   32   33 2   
    57   32   48 1   
    58   33   49 1   
@<TRIPOS>SUBSTRUCTURE
     1 YKI         1 TEMP              0 ****  ****    0 ROOT
