@<TRIPOS>MOLECULE
YKI
   53    57     1     0     0
SMALL
bcc


@<TRIPOS>ATOM
      1 C1          2.6360   -2.1290   -2.3880 c1        1 YKI      0.105000
      2 N1          2.8160   -1.7690   -1.2810 n2        1 YKI     -0.399000
      3 C2          2.1620   -0.7190    1.5900 c1        1 YKI      0.231000
      4 N2          1.7880    0.2170    3.8930 na        1 YKI     -0.189000
      5 C3         -0.8550   -1.0380    1.6970 c2        1 YKI     -0.166000
      6 N3         -0.5390   -0.0180    3.9350 n2        1 YKI     -0.157000
      7 C4          0.5300    0.4300    4.5790 c2        1 YKI      0.098000
      8 N4         -3.1140    0.9080    8.8550 n4        1 YKI     -0.111000
      9 C5         -0.0920   -0.5020    2.6580 c2        1 YKI     -0.027000
     10 N5         -6.6670   -1.4320   11.8420 n2        1 YKI     -0.069000
     11 C6          1.4100   -0.3160    2.6130 c2        1 YKI     -0.319000
     12 N6         -5.9100   -0.5380   14.0340 na        1 YKI     -0.183000
     13 C7          0.5510    0.9730    5.9300 c2        1 YKI     -0.028000
     14 C8          0.1130    0.4490    8.7390 c3        1 YKI     -0.095000
     15 C9          1.5100    0.6000    8.1760 c2        1 YKI     -0.092000
     16 C10         1.4680    0.6850    6.8580 c1        1 YKI     -0.057000
     17 C12        -4.3140   -0.1200   10.8150 c2        1 YKI     -0.115000
     18 O13        -2.1110    0.8730   10.9630 o         1 YKI     -0.193000
     19 C14        -5.1840   -0.8380    9.9870 c2        1 YKI     -0.162000
     20 C15        -6.3230   -1.4630   10.5450 c2        1 YKI     -0.057000
     21 C16        -2.0700    1.9180    8.4350 c3        1 YKI      0.051000
     22 C17        -0.8150    1.2700    7.8950 c2        1 YKI     -0.204000
     23 C18        -0.5860    1.6400    6.5880 c2        1 YKI      0.047000
     24 C19        -2.5540    2.7290    7.2730 c2        1 YKI     -0.161000
     25 C20        -1.5420    2.7000    6.1190 c3        1 YKI     -0.018000
     26 C21        -2.2930    2.4850    4.8310 c2        1 YKI     -0.089000
     27 C22        -3.6090    2.7680    4.6740 c2        1 YKI     -0.170000
     28 C23        -4.2870    3.4940    5.7590 c2        1 YKI      0.009000
     29 C24        -3.7390    3.2010    6.9400 c1        1 YKI     -0.184000
     30 C25        -4.6030   -0.0560   12.1840 c2        1 YKI     -0.048000
     31 C26        -5.8220   -0.7410   12.6490 c2        1 YKI      0.034000
     32 C27        -4.8170    0.2230   14.4350 c2        1 YKI     -0.001000
     33 C28        -4.0020    0.5370   13.3420 c2        1 YKI     -0.218000
     34 H1         -1.9400   -1.1660    1.8100 ha        1 YKI      0.143500
     35 H2          2.9670   -1.4720   -0.3670 hn        1 YKI      0.287000
     36 H3         -0.4250   -1.3840    0.7470 ha        1 YKI      0.143500
     37 HN4        -4.0410    1.2920    8.6220 hn        1 YKI      0.260500
     38 H8         -0.2290   -0.6190    8.7760 hc        1 YKI      0.130000
     39 H9          0.1230    0.8470    9.7910 hc        1 YKI      0.130000
     40 H10         2.3710    0.7190    8.8390 ha        1 YKI      0.186000
     41 H14        -5.0110   -0.9630    8.9100 ha        1 YKI      0.137000
     42 H15        -7.0130   -2.0370    9.8950 h4        1 YKI      0.190000
     43 H16        -2.9780    0.0460    8.3140 hn        1 YKI      0.260500
     44 H21        -0.9660    3.6670    6.0160 hc        1 YKI      0.160000
     45 H22        -1.6850    2.1550    3.9750 ha        1 YKI      0.177000
     46 H23        -4.1470    2.5970    3.7320 ha        1 YKI      0.171000
     47 H24        -5.0650    4.2360    5.5440 ha        1 YKI      0.186000
     48 H27        -3.0770    1.1090   13.3640 ha        1 YKI      0.183000
     49 H28        -4.6880    0.4960   15.4890 h4        1 YKI      0.197000
     50 HN2         2.4150    0.9950    3.8730 hn        1 YKI      0.218000
     51 H42        -1.8470    2.5650    9.3350 hx        1 YKI      0.176000
     52 C11        -3.1070    0.5520   10.3280 c2        1 YKI      0.316000
     53 HN6        -6.6290   -0.8920   14.6150 hn        1 YKI      0.286000
@<TRIPOS>BOND
     1    1    2 1   
     2    2   35 1   
     3    3   11 1   
     4    4    7 1   
     5    4   11 1   
     6    4   50 1   
     7    5    9 1   
     8    5   34 1   
     9    5   36 1   
    10    6    7 1   
    11    6    9 1   
    12    7   13 1   
    13    8   21 1   
    14    8   37 1   
    15    8   43 1   
    16    8   52 1   
    17    9   11 1   
    18   10   20 1   
    19   10   31 1   
    20   12   31 1   
    21   12   32 1   
    22   12   53 1   
    23   13   16 1   
    24   13   23 1   
    25   14   15 1   
    26   14   22 1   
    27   14   38 1   
    28   14   39 1   
    29   15   16 1   
    30   15   40 1   
    31   17   19 1   
    32   17   30 1   
    33   17   52 1   
    34   18   52 1   
    35   19   20 1   
    36   19   41 1   
    37   20   42 1   
    38   21   22 1   
    39   21   24 1   
    40   21   51 1   
    41   22   23 1   
    42   23   25 1   
    43   24   25 1   
    44   24   29 1   
    45   25   26 1   
    46   25   44 1   
    47   26   27 1   
    48   26   45 1   
    49   27   28 1   
    50   27   46 1   
    51   28   29 1   
    52   28   47 1   
    53   30   31 1   
    54   30   33 1   
    55   32   33 1   
    56   32   49 1   
    57   33   48 1   
@<TRIPOS>SUBSTRUCTURE
     1 YKI         1 TEMP              0 ****  ****    0 ROOT
