@<TRIPOS>MOLECULE
YKN
   29    25     1     0     0
SMALL
bcc


@<TRIPOS>ATOM
      1 F10        -1.8510    0.4080    0.3450 f         1 YKN     -0.113500
      2 C9         -0.5130    0.3470    0.3590 c3        1 YKN      0.284000
      3 F11        -0.0800    0.3300    1.6260 f         1 YKN     -0.113500
      4 S12         0.0190   -1.1290   -0.4660 ss        1 YKN      0.307000
      5 C13        -0.5540   -2.5480    0.4300 c2        1 YKN     -0.132000
      6 N15         0.3130   -3.5520    0.7420 n2        1 YKN     -0.155000
      7 C16        -0.1280   -4.6430    1.3850 c1        1 YKN      0.039000
      8 C17         0.8390   -5.7480    1.7500 c2        1 YKN     -0.180000
      9 C18        -1.4450   -4.7480    1.7280 c2        1 YKN     -0.243000
     10 C19        -2.3120   -3.7420    1.4150 c1        1 YKN     -0.016000
     11 N20        -1.8690   -2.6510    0.7720 n1        1 YKN     -0.182000
     12 C8          0.0550    1.5550   -0.3520 c2        1 YKN     -0.058000
     13 N7         -0.4240    2.7530    0.0830 n2        1 YKN     -0.061000
     14 C6          0.1200    3.7320   -0.6960 c1        1 YKN     -0.097000
     15 C5         -0.0270    5.1320   -0.6890 c1        1 YKN     -0.103500
     16 C4          0.6570    5.9050   -1.6130 c1        1 YKN     -0.103500
     17 C3          1.4860    5.3000   -2.5460 c1        1 YKN     -0.103500
     18 C2          1.6300    3.9210   -2.5530 c1        1 YKN     -0.103500
     19 C1          0.9360    3.1360   -1.6150 c1        1 YKN      0.001000
     20 O14         0.8960    1.7910   -1.4020 o         1 YKN     -0.096000
     21 H171        0.9000   -5.8200    2.7260 ha        1 YKN      0.101000
     22 H172        0.5200   -6.5980    1.3790 ha        1 YKN      0.101000
     23 H173        1.7240   -5.5430    1.3820 ha        1 YKN      0.101000
     24 H18        -1.7660   -5.5420    2.1960 ha        1 YKN      0.156000
     25 H19        -3.2540   -3.8160    1.6600 ha        1 YKN      0.171000
     26 H5         -0.6100    5.5580   -0.0320 ha        1 YKN      0.150250
     27 H4          0.5560    6.8760   -1.6080 ha        1 YKN      0.150250
     28 H3          1.9680    5.8450   -3.1970 ha        1 YKN      0.150250
     29 H2          2.2140    3.4950   -3.2100 ha        1 YKN      0.150250
@<TRIPOS>BOND
     1    1    2 1   
     2    2    3 1   
     3    2    4 1   
     4    2   12 1   
     5    4    5 1   
     6    5    6 1   
     7    5   11 1   
     8    6    7 1   
     9    7    9 1   
    10    8   21 1   
    11    8   22 1   
    12    8   23 1   
    13    9   10 1   
    14    9   24 1   
    15   10   25 1   
    16   12   13 1   
    17   12   20 1   
    18   13   14 1   
    19   14   19 1   
    20   15   16 1   
    21   15   26 1   
    22   16   27 1   
    23   17   18 1   
    24   17   28 1   
    25   18   29 1   
@<TRIPOS>SUBSTRUCTURE
     1 YKN         1 TEMP              0 ****  ****    0 ROOT
