@<TRIPOS>MOLECULE
YKN
   29    31     1     0     0
SMALL
bcc


@<TRIPOS>ATOM
      1 F10         0.8300    0.4900    1.5740 f         1 YKN     -0.184800
      2 C9          1.7840    0.1910    0.6350 c3        1 YKN      0.533400
      3 F11         2.8820   -0.0900    1.4080 f         1 YKN     -0.184800
      4 S12         1.3110   -1.1170   -0.5980 ss        1 YKN     -0.202400
      5 C13         1.0390   -2.5660    0.3000 ca        1 YKN      0.721300
      6 N15         0.7190   -3.6650   -0.4490 nb        1 YKN     -0.681000
      7 C16         0.4910   -4.8160    0.2330 ca        1 YKN      0.461600
      8 C17         0.1350   -6.0510   -0.5270 c3        1 YKN     -0.156400
      9 C18         0.5820   -4.8690    1.6430 ca        1 YKN     -0.373600
     10 C19         0.9200   -3.6800    2.3130 ca        1 YKN      0.449200
     11 N20         1.1500   -2.5240    1.6640 nb        1 YKN     -0.708000
     12 C8          2.0360    1.3440   -0.3200 cc        1 YKN      0.438600
     13 N7          1.1790    2.0580   -1.0360 nd        1 YKN     -0.488100
     14 C6          1.9770    2.9940   -1.7370 ca        1 YKN      0.042400
     15 C5          1.6630    4.0090   -2.6470 ca        1 YKN     -0.054000
     16 C4          2.7160    4.7630   -3.1570 ca        1 YKN     -0.148000
     17 C3          4.0500    4.5320   -2.7880 ca        1 YKN     -0.099000
     18 C2          4.4020    3.5300   -1.8840 ca        1 YKN     -0.113000
     19 C1          3.3520    2.7780   -1.3740 ca        1 YKN      0.046100
     20 O14         3.3970    1.7230   -0.4630 os        1 YKN     -0.274700
     21 H171       -0.8100   -5.8930   -1.1060 hc        1 YKN      0.061700
     22 H172       -0.0110   -6.9070    0.1750 hc        1 YKN      0.061700
     23 H173        0.9480   -6.3120   -1.2500 hc        1 YKN      0.061700
     24 H18         0.3980   -5.7990    2.1920 ha        1 YKN      0.156000
     25 H19         1.0110   -3.6430    3.4140 h4        1 YKN      0.034100
     26 H5          0.6210    4.1990   -2.9430 ha        1 YKN      0.158000
     27 H4          2.4960    5.5690   -3.8750 ha        1 YKN      0.142000
     28 H3          4.8430    5.1600   -3.2240 ha        1 YKN      0.142000
     29 H2          5.4420    3.3430   -1.5900 ha        1 YKN      0.159000
@<TRIPOS>BOND
     1    1    2 1   
     2    2    3 1   
     3    2    4 1   
     4    2   12 1   
     5    4    5 1   
     6    5    6 ar  
     7    5   11 ar  
     8    6    7 ar  
     9    7    8 1   
    10    7    9 ar  
    11    8   21 1   
    12    8   22 1   
    13    8   23 1   
    14    9   10 ar  
    15    9   24 1   
    16   10   11 ar  
    17   10   25 1   
    18   12   13 2   
    19   12   20 1   
    20   13   14 1   
    21   14   15 ar  
    22   14   19 ar  
    23   15   16 ar  
    24   15   26 1   
    25   16   17 ar  
    26   16   27 1   
    27   17   18 ar  
    28   17   28 1   
    29   18   19 ar  
    30   18   29 1   
    31   19   20 1   
@<TRIPOS>SUBSTRUCTURE
     1 YKN         1 TEMP              0 ****  ****    0 ROOT
