@<TRIPOS>MOLECULE
YKN
   29    31     1     0     0
SMALL
bcc


@<TRIPOS>ATOM
      1 F10        -0.2320    2.3370   -0.0060 f         1 YKN     -0.184800
      2 C9          0.0180    1.0750    0.4680 c3        1 YKN      0.533400
      3 F11        -0.2400    1.2060    1.8090 f         1 YKN     -0.184800
      4 S12        -0.8900   -0.2990   -0.3950 ss        1 YKN     -0.202400
      5 C13        -2.5740   -0.0090   -0.1490 ca        1 YKN      0.721300
      6 N15        -3.4100   -0.9500   -0.6810 nb        1 YKN     -0.681000
      7 C16        -4.7410   -0.7410   -0.5100 ca        1 YKN      0.461600
      8 C17        -5.7080   -1.7320   -1.0700 c3        1 YKN     -0.156400
      9 C18        -5.2280    0.3900    0.1850 ca        1 YKN     -0.373600
     10 C19        -4.2770    1.2930    0.6930 ca        1 YKN      0.449200
     11 N20        -2.9530    1.1140    0.5370 nb        1 YKN     -0.708000
     12 C8          1.4440    0.6290    0.2000 cc        1 YKN      0.438600
     13 N7          2.1360    0.6240   -0.9310 nd        1 YKN     -0.488100
     14 C6          3.4050    0.1040   -0.5830 ca        1 YKN      0.042400
     15 C5          4.5600   -0.1470   -1.3310 ca        1 YKN     -0.054000
     16 C4          5.6600   -0.6730   -0.6580 ca        1 YKN     -0.148000
     17 C3          5.6340   -0.9490    0.7180 ca        1 YKN     -0.099000
     18 C2          4.5010   -0.7120    1.4960 ca        1 YKN     -0.113000
     19 C1          3.4050   -0.1870    0.8260 ca        1 YKN      0.046100
     20 O14         2.1510    0.1500    1.3350 os        1 YKN     -0.274700
     21 H171       -5.5950   -1.8000   -2.1810 hc        1 YKN      0.061700
     22 H172       -5.5230   -2.7470   -0.6370 hc        1 YKN      0.061700
     23 H173       -6.7560   -1.4250   -0.8330 hc        1 YKN      0.061700
     24 H18        -6.3020    0.5560    0.3220 ha        1 YKN      0.156000
     25 H19        -4.5810    2.2000    1.2470 h4        1 YKN      0.034100
     26 H5          4.5920    0.0650   -2.4090 ha        1 YKN      0.158000
     27 H4          6.5820   -0.8810   -1.2240 ha        1 YKN      0.142000
     28 H3          6.5340   -1.3650    1.1970 ha        1 YKN      0.142000
     29 H2          4.4730   -0.9240    2.5720 ha        1 YKN      0.159000
@<TRIPOS>BOND
     1    1    2 1   
     2    2    3 1   
     3    2    4 1   
     4    2   12 1   
     5    4    5 1   
     6    5    6 ar  
     7    5   11 ar  
     8    6    7 ar  
     9    7    8 1   
    10    7    9 ar  
    11    8   21 1   
    12    8   22 1   
    13    8   23 1   
    14    9   10 ar  
    15    9   24 1   
    16   10   11 ar  
    17   10   25 1   
    18   12   13 2   
    19   12   20 1   
    20   13   14 1   
    21   14   15 ar  
    22   14   19 ar  
    23   15   16 ar  
    24   15   26 1   
    25   16   17 ar  
    26   16   27 1   
    27   17   18 ar  
    28   17   28 1   
    29   18   19 ar  
    30   18   29 1   
    31   19   20 1   
@<TRIPOS>SUBSTRUCTURE
     1 YKN         1 TEMP              0 ****  ****    0 ROOT
