@<TRIPOS>MOLECULE
YKR
   38    36     1     0     0
SMALL
bcc


@<TRIPOS>ATOM
      1 C1         -1.3410    1.5010   -1.7020 c3        1 YKR      0.121000
      2 O1         -0.7690    0.0570   -2.1000 oh        1 YKR     -0.351000
      3 C2         -0.2090    2.3350   -1.5560 c3        1 YKR     -0.117000
      4 N2          0.8280    1.9490   -2.5970 n3        1 YKR     -0.334000
      5 C3          0.3850    2.1980   -0.2120 c3        1 YKR      0.011000
      6 O3         -0.0080    3.2960    0.5710 oh        1 YKR     -0.333000
      7 C4         -0.0580    0.8520    0.5350 c3        1 YKR      0.000000
      8 O4          0.1960   -0.1660   -0.1460 os        1 YKR     -0.288000
      9 C5         -1.6430    1.1700    0.5760 c3        1 YKR     -0.007000
     10 O5         -2.2500    1.2820   -0.7580 os        1 YKR     -0.286000
     11 C6         -1.8410    2.4000    1.2700 c3        1 YKR     -0.050000
     12 O6         -3.1150    2.3750    1.9450 oh        1 YKR     -0.319000
     13 CAL         0.9200   -4.1170    2.0380 c1        1 YKR     -0.127500
     14 CAM         1.0100   -2.7590    1.7750 c1        1 YKR     -0.129000
     15 CAN         1.0190   -5.0270    1.0030 c1        1 YKR     -0.127500
     16 CAO         1.1970   -2.3170    0.4820 c1        1 YKR     -0.087000
     17 CAP         1.2070   -4.5810   -0.2920 c1        1 YKR     -0.129000
     18 CAU         1.4550   -0.8230    0.2140 c2        1 YKR      0.016000
     19 CBC         1.2960   -3.2270   -0.5510 c2        1 YKR     -0.106000
     20 H1         -1.8550    1.8560   -2.5160 h2        1 YKR      0.133000
     21 H2         -0.4680    3.2390   -1.6940 h1        1 YKR      0.120000
     22 HN2         1.5300    2.5980   -2.6020 hn        1 YKR      0.156000
     23 HN2A        0.4170    1.9150   -3.4660 hn        1 YKR      0.156000
     24 H3          1.3890    2.2040   -0.2990 h1        1 YKR      0.099000
     25 HO3         0.7320    3.7730    0.8200 ho        1 YKR      0.224000
     26 H4          0.3280    0.7950    1.4490 h1        1 YKR      0.130000
     27 H5         -2.0870    0.4670    1.0610 h1        1 YKR      0.136000
     28 H6         -1.8260    3.1370    0.6320 h1        1 YKR      0.103500
     29 H6A        -1.1640    2.5160    1.8910 h1        1 YKR      0.103500
     30 HO6        -3.3220    3.2170    2.2360 ho        1 YKR      0.202000
     31 HAL         0.7820   -4.4430    2.9900 ha        1 YKR      0.132000
     32 HAM         0.9430   -2.1370    2.4800 ha        1 YKR      0.131000
     33 HAN         0.9560   -5.9890    1.1870 ha        1 YKR      0.132000
     34 HAP         1.2770   -5.2110   -1.0110 ha        1 YKR      0.134000
     35 HAU         1.8250   -0.4040    1.0270 h4        1 YKR      0.086500
     36 HAUA        2.0900   -0.7290   -0.5160 h4        1 YKR      0.086500
     37 HBC         1.4250   -2.9230   -1.4370 ha        1 YKR      0.148000
     38 H7         -1.2520   -0.2800   -2.7270 ho        1 YKR      0.232000
@<TRIPOS>BOND
     1    1    2 1   
     2    1    3 1   
     3    1   10 1   
     4    1   20 1   
     5    2   38 1   
     6    3    4 1   
     7    3    5 1   
     8    3   21 1   
     9    4   22 1   
    10    4   23 1   
    11    5    6 1   
    12    5    7 1   
    13    5   24 1   
    14    6   25 1   
    15    7    8 1   
    16    7    9 1   
    17    7   26 1   
    18    8   18 1   
    19    9   10 1   
    20    9   11 1   
    21    9   27 1   
    22   11   12 1   
    23   11   28 1   
    24   11   29 1   
    25   12   30 1   
    26   13   15 1   
    27   13   31 1   
    28   14   16 1   
    29   14   32 1   
    30   15   33 1   
    31   16   19 1   
    32   17   19 1   
    33   17   34 1   
    34   18   35 1   
    35   18   36 1   
    36   19   37 1   
@<TRIPOS>SUBSTRUCTURE
     1 YKR         1 TEMP              0 ****  ****    0 ROOT
