@<TRIPOS>MOLECULE
YKR
   39    40     1     0     0
SMALL
bcc


@<TRIPOS>ATOM
      1 C1          0.2170   -0.0820   -0.1170 c3        1 YKR      0.333900
      2 O1         -0.0320   -1.3990    0.3110 oh        1 YKR     -0.661800
      3 C2          1.7570    0.1360   -0.0710 c3        1 YKR      0.084500
      4 N2          2.4850   -0.9330   -0.8260 nz        1 YKR     -0.827600
      5 C3          2.2390    0.1720    1.3950 c3        1 YKR      0.108100
      6 O3          3.6190    0.4820    1.3490 oh        1 YKR     -0.629800
      7 C4          1.4230    1.2330    2.1640 c3        1 YKR      0.093100
      8 O4          1.8760    1.1700    3.5060 os        1 YKR     -0.413600
      9 C5         -0.0560    0.8180    2.0980 c3        1 YKR      0.116100
     10 O5         -0.4690    0.8050    0.7200 os        1 YKR     -0.408600
     11 C6         -0.9810    1.8200    2.7920 c3        1 YKR      0.141400
     12 O6         -2.1430    1.0940    3.1500 oh        1 YKR     -0.596800
     13 CAL         2.8580    1.1050    7.5290 ca        1 YKR     -0.125000
     14 CAM         2.3230    1.3020    6.2560 ca        1 YKR     -0.110500
     15 CAN         4.0210    1.7750    7.9100 ca        1 YKR     -0.108000
     16 CAO         2.9560    2.1670    5.3580 ca        1 YKR     -0.122300
     17 CAP         4.6530    2.6400    7.0150 ca        1 YKR     -0.125000
     18 CAU         2.3790    2.4220    4.0080 c3        1 YKR      0.177700
     19 CBC         4.1260    2.8340    5.7390 ca        1 YKR     -0.110500
     20 H1         -0.1960    0.1070   -1.1510 h2        1 YKR      0.103700
     21 H2          1.9950    1.1260   -0.5620 hx        1 YKR      0.130700
     22 HN2         2.1590   -1.8530   -0.5010 hn        1 YKR      0.471133
     23 HN2A        2.3040   -0.8470   -1.8280 hn        1 YKR      0.471133
     24 H3          2.0900   -0.8320    1.8900 h1        1 YKR      0.090700
     25 HO3         3.8970    0.6850    2.2560 ho        1 YKR      0.463000
     26 H4          1.5710    2.2480    1.7090 h1        1 YKR      0.080700
     27 H5         -0.1970   -0.2060    2.5420 h1        1 YKR      0.097700
     28 H6         -0.4670    2.2090    3.7120 h1        1 YKR      0.053700
     29 H6A        -1.2360    2.6660    2.1000 h1        1 YKR      0.053700
     30 HO6        -2.7810    1.7340    3.4890 ho        1 YKR      0.424000
     31 HAN         4.4390    1.6230    8.9170 ha        1 YKR      0.146000
     32 HAP         5.5690    3.1700    7.3160 ha        1 YKR      0.144000
     33 HAU         1.5270    3.1520    4.0720 h1        1 YKR      0.044700
     34 HAUA        3.1570    2.8180    3.2990 h1        1 YKR      0.044700
     35 HBC         4.6280    3.5170    5.0380 ha        1 YKR      0.136500
     36 H7         -0.9680   -1.4700    0.5570 ho        1 YKR      0.475000
     37 HAL         2.3580    0.4230    8.2330 ha        1 YKR      0.144000
     38 H23         3.4920   -0.8410   -0.6390 hn        1 YKR      0.471133
     39 HAM         1.4060    0.7750    5.9500 ha        1 YKR      0.136500
@<TRIPOS>BOND
     1    1    2 1   
     2    1    3 1   
     3    1   10 1   
     4    1   20 1   
     5    2   36 1   
     6    3    4 1   
     7    3    5 1   
     8    3   21 1   
     9    4   22 1   
    10    4   23 1   
    11    4   38 1   
    12    5    6 1   
    13    5    7 1   
    14    5   24 1   
    15    6   25 1   
    16    7    8 1   
    17    7    9 1   
    18    7   26 1   
    19    8   18 1   
    20    9   10 1   
    21    9   11 1   
    22    9   27 1   
    23   11   12 1   
    24   11   28 1   
    25   11   29 1   
    26   12   30 1   
    27   13   14 ar  
    28   13   15 ar  
    29   13   37 1   
    30   14   16 ar  
    31   14   39 1   
    32   15   17 ar  
    33   15   31 1   
    34   16   18 1   
    35   16   19 ar  
    36   17   19 ar  
    37   17   32 1   
    38   18   33 1   
    39   18   34 1   
    40   19   35 1   
@<TRIPOS>SUBSTRUCTURE
     1 YKR         1 TEMP              0 ****  ****    0 ROOT
