@<TRIPOS>MOLECULE
YKR
   39    40     1     0     0
SMALL
bcc


@<TRIPOS>ATOM
      1 C1          0.2150   -0.0820   -0.1160 c3        1 YKR      0.333900
      2 O1         -0.0440   -1.3950    0.3160 oh        1 YKR     -0.661800
      3 C2          1.7570    0.1240   -0.0690 c3        1 YKR      0.084500
      4 N2          2.4770   -0.9530   -0.8200 n4        1 YKR     -0.827600
      5 C3          2.2370    0.1620    1.3980 c3        1 YKR      0.108100
      6 O3          3.6190    0.4620    1.3520 oh        1 YKR     -0.629800
      7 C4          1.4280    1.2320    2.1620 c3        1 YKR      0.093100
      8 O4          1.8790    1.1700    3.5050 os        1 YKR     -0.413600
      9 C5         -0.0540    0.8280    2.0950 c3        1 YKR      0.116100
     10 O5         -0.4650    0.8140    0.7160 os        1 YKR     -0.408600
     11 C6         -0.9720    1.8400    2.7840 c3        1 YKR      0.141400
     12 O6         -2.1400    1.1240    3.1430 oh        1 YKR     -0.596800
     13 CAL         2.8440    1.1160    7.5320 ca        1 YKR     -0.125000
     14 CAM         2.3160    1.3110    6.2560 ca        1 YKR     -0.110500
     15 CAN         4.0110    1.7760    7.9140 ca        1 YKR     -0.108000
     16 CAO         2.9600    2.1670    5.3570 ca        1 YKR     -0.122300
     17 CAP         4.6540    2.6310    7.0180 ca        1 YKR     -0.125000
     18 CAU         2.3910    2.4210    4.0030 c3        1 YKR      0.177700
     19 CBC         4.1350    2.8240    5.7390 ca        1 YKR     -0.110500
     20 H1         -0.1950    0.1070   -1.1510 h2        1 YKR      0.103700
     21 H2          2.0030    1.1110   -0.5630 hx        1 YKR      0.130700
     22 HN2         3.4850   -0.8680   -0.6310 hn        1 YKR      0.471133
     23 HN2A        2.1430   -1.8690   -0.4910 hn        1 YKR      0.471133
     24 H3          2.0790   -0.8390    1.8950 h1        1 YKR      0.090700
     25 HO3         3.8970    0.6650    2.2600 ho        1 YKR      0.463000
     26 H4          1.5840    2.2450    1.7030 h1        1 YKR      0.080700
     27 H5         -0.2030   -0.1940    2.5430 h1        1 YKR      0.097700
     28 H6         -0.4560    2.2280    3.7040 h1        1 YKR      0.053700
     29 H6A        -1.2190    2.6860    2.0890 h1        1 YKR      0.053700
     30 HO6        -2.7740    1.7700    3.4790 ho        1 YKR      0.424000
     31 HAN         4.4240    1.6260    8.9240 ha        1 YKR      0.146000
     32 HAP         5.5740    3.1550    7.3200 ha        1 YKR      0.144000
     33 HAU         3.1750    2.8060    3.2960 h1        1 YKR      0.044700
     34 HAUA        1.5450    3.1580    4.0600 h1        1 YKR      0.044700
     35 HBC         4.6450    3.5000    5.0370 ha        1 YKR      0.136500
     36 H7         -0.9810   -1.4580    0.5600 ho        1 YKR      0.475000
     37 HAL         2.3350    0.4420    8.2380 ha        1 YKR      0.144000
     38 H23         2.2980   -0.8680   -1.8220 hn        1 YKR      0.471133
     39 HAM         1.3950    0.7910    5.9490 ha        1 YKR      0.136500
@<TRIPOS>BOND
     1    1    2 1   
     2    1    3 1   
     3    1   10 1   
     4    1   20 1   
     5    2   36 1   
     6    3    4 1   
     7    3    5 1   
     8    3   21 1   
     9    4   22 1   
    10    4   23 1   
    11    4   38 1   
    12    5    6 1   
    13    5    7 1   
    14    5   24 1   
    15    6   25 1   
    16    7    8 1   
    17    7    9 1   
    18    7   26 1   
    19    8   18 1   
    20    9   10 1   
    21    9   11 1   
    22    9   27 1   
    23   11   12 1   
    24   11   28 1   
    25   11   29 1   
    26   12   30 1   
    27   13   14 ar  
    28   13   15 ar  
    29   13   37 1   
    30   14   16 ar  
    31   14   39 1   
    32   15   17 ar  
    33   15   31 1   
    34   16   18 1   
    35   16   19 ar  
    36   17   19 ar  
    37   17   32 1   
    38   18   33 1   
    39   18   34 1   
    40   19   35 1   
@<TRIPOS>SUBSTRUCTURE
     1 YKR         1 TEMP              0 ****  ****    0 ROOT
