@<TRIPOS>MOLECULE
YKR
   38    39     1     0     0
SMALL
bcc


@<TRIPOS>ATOM
      1 C1         -3.5830   -0.1690    0.3910 c3        1 YKR      0.295900
      2 O1         -3.8980   -0.4160   -0.9590 oh        1 YKR     -0.635800
      3 C2         -2.9820    1.2550    0.5180 c3        1 YKR      0.118500
      4 N2         -3.8190    2.2970   -0.0360 n3        1 YKR     -0.903800
      5 C3         -1.5570    1.2950   -0.0880 c3        1 YKR      0.125100
      6 O3         -0.8830    2.4760    0.3160 oh        1 YKR     -0.609800
      7 C4         -0.7130    0.1200    0.4400 c3        1 YKR      0.124100
      8 O4          0.5260    0.0340   -0.2560 os        1 YKR     -0.419600
      9 C5         -1.4420   -1.2030    0.1520 c3        1 YKR      0.140100
     10 O5         -2.7140   -1.1990    0.8050 os        1 YKR     -0.438600
     11 C6         -0.6740   -2.3950    0.7270 c3        1 YKR      0.134400
     12 O6         -1.0740   -3.5370   -0.0150 oh        1 YKR     -0.599800
     13 CAL         5.2280    0.9430    0.1290 ca        1 YKR     -0.131000
     14 CAM         3.9140    1.3730    0.2960 ca        1 YKR     -0.120500
     15 CAN         5.4890   -0.3120   -0.4240 ca        1 YKR     -0.132000
     16 CAO         2.8490    0.5500   -0.0900 ca        1 YKR     -0.092300
     17 CAP         4.4310   -1.1330   -0.8100 ca        1 YKR     -0.131000
     18 CAU         1.4580    1.0610    0.0970 c3        1 YKR      0.178700
     19 CBC         3.1130   -0.7060   -0.6450 ca        1 YKR     -0.120500
     20 H1         -4.4900   -0.2880    1.0520 h2        1 YKR      0.068700
     21 H2         -2.8770    1.4540    1.6270 h1        1 YKR      0.080700
     22 HN2        -3.9600    2.1460   -1.0170 hn        1 YKR      0.360800
     23 HN2A       -4.7080    2.3070    0.4230 hn        1 YKR      0.360800
     24 H3         -1.6060    1.2450   -1.2120 h1        1 YKR      0.065700
     25 HO3        -1.4260    3.2270    0.0460 ho        1 YKR      0.424000
     26 H4         -0.5380    0.2470    1.5430 h1        1 YKR      0.062700
     27 H5         -1.5880   -1.3310   -0.9560 h1        1 YKR      0.086700
     28 H6          0.4280   -2.2200    0.5890 h1        1 YKR      0.046700
     29 H6A        -0.9140   -2.5260    1.8140 h1        1 YKR      0.046700
     30 HO6        -0.7050   -4.3020    0.4410 ho        1 YKR      0.403000
     31 HAM         3.7090    2.3620    0.7320 ha        1 YKR      0.139500
     32 HAN         6.5270   -0.6500   -0.5560 ha        1 YKR      0.129000
     33 HAP         4.6330   -2.1220   -1.2490 ha        1 YKR      0.130000
     34 HAU         1.2660    1.9390   -0.5800 h1        1 YKR      0.056700
     35 HAUA        1.3020    1.3910    1.1600 h1        1 YKR      0.056700
     36 HBC         2.2760   -1.3520   -0.9510 ha        1 YKR      0.139500
     37 H7         -4.1210   -1.3530   -1.0390 ho        1 YKR      0.430000
     38 HAL         6.0610    1.5930    0.4340 ha        1 YKR      0.130000
@<TRIPOS>BOND
     1    1    2 1   
     2    1    3 1   
     3    1   10 1   
     4    1   20 1   
     5    2   37 1   
     6    3    4 1   
     7    3    5 1   
     8    3   21 1   
     9    4   22 1   
    10    4   23 1   
    11    5    6 1   
    12    5    7 1   
    13    5   24 1   
    14    6   25 1   
    15    7    8 1   
    16    7    9 1   
    17    7   26 1   
    18    8   18 1   
    19    9   10 1   
    20    9   11 1   
    21    9   27 1   
    22   11   12 1   
    23   11   28 1   
    24   11   29 1   
    25   12   30 1   
    26   13   14 ar  
    27   13   15 ar  
    28   13   38 1   
    29   14   16 ar  
    30   14   31 1   
    31   15   17 ar  
    32   15   32 1   
    33   16   18 1   
    34   16   19 ar  
    35   17   19 ar  
    36   17   33 1   
    37   18   34 1   
    38   18   35 1   
    39   19   36 1   
@<TRIPOS>SUBSTRUCTURE
     1 YKR         1 TEMP              0 ****  ****    0 ROOT
