@<TRIPOS>MOLECULE
YL2
   42    45     1     0     0
SMALL
bcc


@<TRIPOS>ATOM
      1 OAU         0.3470    1.7100    0.7250 o         1 YL2     -1.207000
      2 PAS         0.6160    0.3680    0.1150 p3        1 YL2      2.535000
      3 OAV         1.0950   -0.7180    1.0070 o         1 YL2     -1.207000
      4 OAW        -0.2930    0.0480   -1.0270 o         1 YL2     -1.207000
      5 CAR         2.3370    1.1310   -1.0130 c2        1 YL2     -1.364000
      6 PAT         3.5730    0.5410   -1.9220 p5        1 YL2      2.069000
      7 OAX         3.2770   -0.5360   -2.8950 o         1 YL2     -0.884500
      8 OAZ         3.5340    1.9300   -2.9940 os        1 YL2     -0.686000
      9 OAY         4.8990    0.5660   -1.2600 o         1 YL2     -0.884500
     10 NAJ         1.4880    1.9720   -1.8100 n4        1 YL2      0.006000
     11 C4          2.3840    2.6820   -2.9170 c3        1 YL2      0.307000
     12 N3          2.6930    4.0640   -2.4650 n2        1 YL2     -0.263000
     13 C2          2.2500    5.0670   -3.1680 c2        1 YL2     -0.008000
     14 N1          1.5090    5.1110   -4.3590 n2        1 YL2     -0.343000
     15 C6          1.2330    3.9030   -4.8410 c2        1 YL2     -0.067000
     16 SAE         0.4160    3.5790   -6.3200 ss        1 YL2      0.265000
     17 C5          1.6080    2.6580   -4.2230 c2        1 YL2     -0.352000
     18 CAC         1.2650    1.5440   -4.9810 c2        1 YL2      0.059000
     19 CAD         0.5930    1.8660   -6.1750 c2        1 YL2     -0.482000
     20 CAK         0.1160    0.9910   -7.1670 ca        1 YL2      0.138000
     21 CAP         0.2550   -0.4180   -7.0580 ca        1 YL2     -0.201000
     22 CAO        -0.2110   -1.2600   -8.0500 ca        1 YL2     -0.093000
     23 CAL        -0.5240    1.4850   -8.3320 ca        1 YL2     -0.201000
     24 CAM        -0.9860    0.6310   -9.3200 ca        1 YL2     -0.093000
     25 CAN        -0.8390   -0.7570   -9.2040 ca        1 YL2     -0.190000
     26 CAQ        -1.3160   -1.6830  -10.2320 cx        1 YL2     -0.048000
     27 CBA        -2.5810   -1.4090  -11.0110 cx        1 YL2     -0.237000
     28 CBB        -1.2520   -1.3290  -11.7000 cx        1 YL2     -0.237000
     29 H3          2.6670    1.6100   -0.0700 hx        1 YL2      0.151000
     30 H6          0.7940    1.3630   -2.2750 hn        1 YL2      0.243000
     31 H7          2.5010    6.0810   -2.7890 h5        1 YL2      0.117000
     32 H8          1.5150    0.5180   -4.6680 ha        1 YL2      0.193000
     33 H9          0.7410   -0.8330   -6.1600 ha        1 YL2      0.138000
     34 H10        -0.0890   -2.3480   -7.9350 ha        1 YL2      0.091000
     35 H11        -0.6510    2.5720   -8.4430 ha        1 YL2      0.138000
     36 H12        -1.4770    1.0500  -10.2110 ha        1 YL2      0.091000
     37 H13        -1.1180   -2.7450   -9.9730 hc        1 YL2      0.099000
     38 H14        -3.1360   -0.4770  -10.8070 hc        1 YL2      0.092500
     39 H15        -3.2560   -2.2500  -11.2450 hc        1 YL2      0.092500
     40 H16        -0.8570   -0.3390  -11.9880 hc        1 YL2      0.092500
     41 H17        -0.9760   -2.1130  -12.4260 hc        1 YL2      0.092500
     42 HAJ2        0.9820    2.6300   -1.2090 hn        1 YL2      0.243000
@<TRIPOS>BOND
     1    1    2 1   
     2    2    3 1   
     3    2    4 1   
     4    5    6 1   
     5    5   10 1   
     6    5   29 1   
     7    6    7 1   
     8    6    8 1   
     9    6    9 1   
    10    8   11 1   
    11   10   11 1   
    12   10   30 1   
    13   10   42 1   
    14   11   12 1   
    15   11   17 1   
    16   12   13 1   
    17   13   14 1   
    18   13   31 1   
    19   14   15 1   
    20   15   16 1   
    21   15   17 1   
    22   16   19 1   
    23   17   18 1   
    24   18   19 1   
    25   18   32 1   
    26   19   20 1   
    27   20   21 1   
    28   20   23 1   
    29   21   22 1   
    30   21   33 1   
    31   22   25 1   
    32   22   34 1   
    33   23   24 1   
    34   23   35 1   
    35   24   25 1   
    36   24   36 1   
    37   25   26 1   
    38   26   27 1   
    39   26   28 1   
    40   26   37 1   
    41   27   28 1   
    42   27   38 1   
    43   27   39 1   
    44   28   40 1   
    45   28   41 1   
@<TRIPOS>SUBSTRUCTURE
     1 YL2         1 TEMP              0 ****  ****    0 ROOT
