@<TRIPOS>MOLECULE
YL3
   34    36     1     0     0
SMALL
bcc


@<TRIPOS>ATOM
      1 OAT         2.0900   -1.2270    0.3030 o         1 YL3     -0.915167
      2 PAS         2.7840   -0.2040   -0.5440 p5        1 YL3      1.189700
      3 OAU         3.9560    0.5130    0.0560 o         1 YL3     -0.915167
      4 OAV         2.9320   -0.5720   -2.0150 o         1 YL3     -0.915167
      5 CAR         1.4820    1.1800   -0.6400 c3        1 YL3     -0.027400
      6 NAJ         1.1640    1.3260   -2.0110 nu        1 YL3     -0.670900
      7 C4          0.3060    2.1650   -2.5850 ca        1 YL3      0.699200
      8 N3         -0.4630    3.0950   -1.8480 nb        1 YL3     -0.781000
      9 C2         -1.2870    3.8810   -2.5360 ca        1 YL3      0.676900
     10 N1         -1.5330    3.9530   -3.8890 nb        1 YL3     -0.826000
     11 C6         -0.8090    3.0740   -4.6070 ca        1 YL3      0.532600
     12 SAE        -0.8490    2.8760   -6.3020 ss        1 YL3     -0.192900
     13 C5          0.1240    2.1540   -4.0360 ca        1 YL3     -0.444400
     14 CAC         0.7540    1.3400   -5.0100 cc        1 YL3      0.008800
     15 CAD         0.3240    1.6190   -6.2940 cd        1 YL3     -0.159600
     16 CAK         0.7480    0.9920   -7.5100 ca        1 YL3      0.056200
     17 CAL         0.2100    1.3940   -8.7480 ca        1 YL3     -0.150500
     18 CAM         0.6150    0.7920   -9.9330 ca        1 YL3     -0.121000
     19 CAN         1.5700   -0.2300   -9.9230 ca        1 YL3     -0.136300
     20 CAQ         2.0150   -0.8630  -11.1840 c3        1 YL3     -0.032800
     21 CAO         2.1080   -0.6370   -8.6960 ca        1 YL3     -0.121000
     22 CAP         1.7070   -0.0390   -7.5070 ca        1 YL3     -0.150500
     23 H3          1.9270    2.1040   -0.2110 h1        1 YL3      0.054700
     24 H4          0.6010    0.8690   -0.0350 h1        1 YL3      0.054700
     25 H5          1.7080    0.6580   -2.6010 hn        1 YL3      0.509800
     26 H6         -1.8760    4.5990   -1.9280 h5        1 YL3      0.008100
     27 H7          1.5000    0.5770   -4.7490 ha        1 YL3      0.180000
     28 H8         -0.5430    2.1980   -8.7710 ha        1 YL3      0.142000
     29 H9          0.1800    1.1220  -10.8870 ha        1 YL3      0.112500
     30 H10         2.2260   -1.9500  -11.0310 hc        1 YL3      0.025700
     31 H11         2.9540   -0.3760  -11.5500 hc        1 YL3      0.025700
     32 H12         1.2380   -0.7630  -11.9810 hc        1 YL3      0.025700
     33 H13         2.8580   -1.4420   -8.6720 ha        1 YL3      0.112500
     34 H14         2.1430   -0.3730   -6.5520 ha        1 YL3      0.142000
@<TRIPOS>BOND
     1    1    2 1   
     2    2    3 1   
     3    2    4 1   
     4    2    5 1   
     5    5    6 1   
     6    5   23 1   
     7    5   24 1   
     8    6    7 1   
     9    6   25 1   
    10    7    8 ar  
    11    7   13 ar  
    12    8    9 ar  
    13    9   10 ar  
    14    9   26 1   
    15   10   11 ar  
    16   11   12 1   
    17   11   13 ar  
    18   12   15 1   
    19   13   14 1   
    20   14   15 2   
    21   14   27 1   
    22   15   16 1   
    23   16   17 ar  
    24   16   22 ar  
    25   17   18 ar  
    26   17   28 1   
    27   18   19 ar  
    28   18   29 1   
    29   19   20 1   
    30   19   21 ar  
    31   20   30 1   
    32   20   31 1   
    33   20   32 1   
    34   21   22 ar  
    35   21   33 1   
    36   22   34 1   
@<TRIPOS>SUBSTRUCTURE
     1 YL3         1 TEMP              0 ****  ****    0 ROOT
