@<TRIPOS>MOLECULE
YL3
   35    37     1     0     0
SMALL
bcc


@<TRIPOS>ATOM
      1 OAT         2.6710   -0.9040   -1.6610 o         1 YL3     -0.850500
      2 PAS         2.3460   -0.2410   -0.3680 p5        1 YL3      1.322600
      3 OAU         1.8550   -0.9290    0.8390 o         1 YL3     -0.850500
      4 OAV         3.7550    0.5300   -0.0390 oh        1 YL3     -0.792400
      5 CAR         1.3050    1.1180   -0.6840 c3        1 YL3     -0.036400
      6 NAJ         1.0820    1.2540   -2.0840 nh        1 YL3     -0.790900
      7 C4          0.3490    2.2280   -2.6790 ca        1 YL3      0.751200
      8 N3         -0.2740    3.2250   -1.9440 nb        1 YL3     -0.786000
      9 C2         -0.9720    4.1480   -2.6410 ca        1 YL3      0.683900
     10 N1         -1.1680    4.2600   -3.9810 nb        1 YL3     -0.759000
     11 C6         -0.5630    3.2870   -4.7070 ca        1 YL3      0.481600
     12 SAE        -0.5980    3.1170   -6.3940 ss        1 YL3     -0.087900
     13 C5          0.2090    2.2380   -4.1220 ca        1 YL3     -0.405400
     14 CAC         0.7320    1.3440   -5.1030 cc        1 YL3     -0.048200
     15 CAD         0.3700    1.7060   -6.3800 cd        1 YL3     -0.096600
     16 CAK         0.7200    1.0350   -7.6060 ca        1 YL3      0.006200
     17 CAL         0.1020    1.4000   -8.8150 ca        1 YL3     -0.128000
     18 CAM         0.4340    0.7600  -10.0040 ca        1 YL3     -0.126000
     19 CAN         1.3900   -0.2620  -10.0190 ca        1 YL3     -0.096300
     20 CAQ         1.7540   -0.9350  -11.2860 c3        1 YL3     -0.046800
     21 CAO         2.0070   -0.6290   -8.8180 ca        1 YL3     -0.126000
     22 CAP         1.6800    0.0100   -7.6260 ca        1 YL3     -0.128000
     23 H3          1.7630    2.0560   -0.2680 h1        1 YL3      0.079200
     24 H4          0.3300    0.9830   -0.1430 h1        1 YL3      0.079200
     25 H5          4.4320    0.3210   -0.6720 ho        1 YL3      0.429000
     26 H6         -1.4580    4.9320   -2.0220 h5        1 YL3      0.034100
     27 H7          1.3440    0.4710   -4.8480 ha        1 YL3      0.168000
     28 H8         -0.6560    2.2000   -8.8180 ha        1 YL3      0.138500
     29 H9         -0.0610    1.0560  -10.9400 ha        1 YL3      0.125500
     30 H10         2.6310   -0.4200  -11.7550 hc        1 YL3      0.037367
     31 H11         0.9050   -0.9080  -12.0130 hc        1 YL3      0.037367
     32 H12         2.0320   -2.0020  -11.1060 hc        1 YL3      0.037367
     33 H13         2.7590   -1.4330   -8.8140 ha        1 YL3      0.125500
     34 H14         2.1790   -0.2910   -6.6920 ha        1 YL3      0.138500
     35 HAJ2        1.5170    0.5500   -2.6610 hn        1 YL3      0.480800
@<TRIPOS>BOND
     1    1    2 1   
     2    2    3 1   
     3    2    4 1   
     4    2    5 1   
     5    4   25 1   
     6    5    6 1   
     7    5   23 1   
     8    5   24 1   
     9    6    7 1   
    10    6   35 1   
    11    7    8 ar  
    12    7   13 ar  
    13    8    9 ar  
    14    9   10 ar  
    15    9   26 1   
    16   10   11 ar  
    17   11   12 1   
    18   11   13 ar  
    19   12   15 1   
    20   13   14 1   
    21   14   15 2   
    22   14   27 1   
    23   15   16 1   
    24   16   17 ar  
    25   16   22 ar  
    26   17   18 ar  
    27   17   28 1   
    28   18   19 ar  
    29   18   29 1   
    30   19   20 1   
    31   19   21 ar  
    32   20   30 1   
    33   20   31 1   
    34   20   32 1   
    35   21   22 ar  
    36   21   33 1   
    37   22   34 1   
@<TRIPOS>SUBSTRUCTURE
     1 YL3         1 TEMP              0 ****  ****    0 ROOT
