@<TRIPOS>MOLECULE
YLB
   71    73     1     0     0
SMALL
bcc


@<TRIPOS>ATOM
      1 C           1.2960    0.5540   -1.4960 c         1 YLB      0.649100
      2 N           1.6730   -0.6280   -3.6170 n4        1 YLB     -0.838600
      3 O           0.3920   -0.1120   -0.9780 o         1 YLB     -0.540000
      4 N1         -6.4610    7.3420   -2.5680 nb        1 YLB     -0.678000
      5 C2         -5.8630    8.1020   -1.6080 ca        1 YLB      0.673900
      6 C3          2.8540    3.7460    6.4860 c3        1 YLB     -0.102100
      7 N3         -4.8480    7.7640   -0.7680 nb        1 YLB     -0.618000
      8 C4         -4.3860    6.5030   -0.9360 ca        1 YLB      0.461800
      9 C5         -4.9350    5.5700   -1.9500 ca        1 YLB     -0.130200
     10 C6         -5.9920    6.0770   -2.7240 ca        1 YLB      0.509200
     11 N6         -6.6190    5.1990   -3.7290 n4        1 YLB     -0.814300
     12 N7         -4.2580    4.3490   -1.8900 nc        1 YLB     -0.604100
     13 C8         -3.3530    4.4970   -0.9010 cd        1 YLB      0.509700
     14 N9         -3.3870    5.7650   -0.2780 na        1 YLB     -0.269000
     15 CA          2.3610    0.0070   -2.4400 c3        1 YLB      0.058500
     16 CB          3.2550   -1.0040   -1.7080 c3        1 YLB     -0.095400
     17 C1'        -2.5820    6.2810    0.8190 c3        1 YLB      0.210800
     18 C2'        -2.4840    5.3010    2.0310 c3        1 YLB      0.083100
     19 O2'        -2.8820    5.9410    3.2150 oh        1 YLB     -0.568800
     20 C3'        -1.0010    4.8760    2.0700 c3        1 YLB      0.090100
     21 O3'        -0.4090    5.2090    3.3100 oh        1 YLB     -0.586800
     22 C4'        -0.2890    5.6880    0.9750 c3        1 YLB      0.106100
     23 O4'        -1.2550    6.5790    0.3880 os        1 YLB     -0.399600
     24 C5'         0.3120    4.8400   -0.1570 c3        1 YLB      0.170400
     25 O5'         1.0350    3.7530    0.3470 os        1 YLB     -0.577200
     26 OAD         4.6870    0.4490    4.3540 o         1 YLB     -0.425100
     27 OAF        -0.9820    2.4020   -0.1960 o         1 YLB     -0.835000
     28 OAI         1.1260    1.4330    1.1770 o         1 YLB     -0.835000
     29 CAM         3.1390   -1.1530    0.7900 c3        1 YLB     -0.112400
     30 CAN         3.7800   -0.4520   -0.3920 c3        1 YLB     -0.086400
     31 CAO         3.7280   -0.7080    2.1230 c3        1 YLB      0.117800
     32 NAW         3.0850    0.5180    2.6640 n4        1 YLB     -0.676800
     33 OAY         1.3530    1.8400   -1.2190 os        1 YLB     -0.496500
     34 CBA         3.6530    0.9820    3.9810 c         1 YLB      0.547100
     35 CBF         3.6830    2.7270    5.7470 c3        1 YLB     -0.080400
     36 CBK         2.8540    2.0490    4.6710 c3        1 YLB     -0.155400
     37 PBN         0.4290    2.2600    0.1740 p5        1 YLB      1.506800
     38 HN          1.2240    0.0960   -4.1890 hn        1 YLB      0.470467
     39 HNA         2.3540   -1.1400   -4.1860 hn        1 YLB      0.470467
     40 H3          2.4700    4.5300    5.7900 hc        1 YLB      0.052700
     41 H3A         1.9830    3.2610    6.9910 hc        1 YLB      0.052700
     42 H3B         3.4790    4.2440    7.2670 hc        1 YLB      0.052700
     43 HN6        -7.1470    4.4660   -3.2370 hn        1 YLB      0.476800
     44 HN6A       -5.8770    4.7630   -4.2900 hn        1 YLB      0.476800
     45 HA          2.9900    0.8670   -2.8280 hx        1 YLB      0.144700
     46 HB          2.6770   -1.9500   -1.5140 hc        1 YLB      0.078700
     47 HBA         4.1220   -1.2620   -2.3740 hc        1 YLB      0.078700
     48 H1'        -3.0280    7.2760    1.1330 h2        1 YLB      0.138700
     49 H2'        -3.1710    4.4160    1.9380 h1        1 YLB      0.112700
     50 HO2'       -2.2530    6.6560    3.4010 ho        1 YLB      0.429000
     51 H3'        -0.8980    3.7720    1.8730 h1        1 YLB      0.058700
     52 HO3'       -0.9540    4.8050    4.0020 ho        1 YLB      0.426000
     53 H4'         0.5000    6.3540    1.4250 h1        1 YLB      0.116700
     54 H5'         1.0330    5.4870   -0.7310 h1        1 YLB      0.059200
     55 H5'A       -0.5050    4.4850   -0.8440 h1        1 YLB      0.059200
     56 HAM         3.3150   -2.2610    0.7110 hc        1 YLB      0.092700
     57 HAMA        2.0250   -0.9810    0.7660 hc        1 YLB      0.092700
     58 HAN         4.8930   -0.6010   -0.3590 hc        1 YLB      0.072200
     59 HANA        3.5910    0.6540   -0.3260 hc        1 YLB      0.072200
     60 HAO         3.5920   -1.5250    2.8890 hx        1 YLB      0.105200
     61 HAOA        4.8340   -0.5080    2.0250 hx        1 YLB      0.105200
     62 HNAW        3.1600    1.2850    1.9740 hn        1 YLB      0.490800
     63 HBF         4.0740    1.9560    6.4630 hc        1 YLB      0.068700
     64 HBFA        4.5720    3.2250    5.2780 hc        1 YLB      0.068700
     65 HBK         1.9510    1.5600    5.1340 hc        1 YLB      0.104200
     66 HBKA        2.4880    2.8120    3.9300 hc        1 YLB      0.104200
     67 H8         -2.6380    3.6980   -0.5850 h5        1 YLB      0.159800
     68 HN3         0.9530   -1.2800   -3.2780 hn        1 YLB      0.470467
     69 H63        -7.2550    5.7280   -4.3400 hn        1 YLB      0.476800
     70 HAW2        2.0620    0.3660    2.7550 hn        1 YLB      0.490800
     71 H2         -6.2640    9.1380   -1.5000 h5        1 YLB      0.103100
@<TRIPOS>BOND
     1    1    3 2   
     2    1   15 1   
     3    1   33 1   
     4    2   15 1   
     5    2   38 1   
     6    2   39 1   
     7    2   68 1   
     8    4    5 ar  
     9    4   10 ar  
    10    5    7 ar  
    11    5   71 1   
    12    6   35 1   
    13    6   40 1   
    14    6   41 1   
    15    6   42 1   
    16    7    8 ar  
    17    8    9 ar  
    18    8   14 1   
    19    9   10 ar  
    20    9   12 1   
    21   10   11 1   
    22   11   43 1   
    23   11   44 1   
    24   11   69 1   
    25   12   13 2   
    26   13   14 1   
    27   13   67 1   
    28   14   17 1   
    29   15   16 1   
    30   15   45 1   
    31   16   30 1   
    32   16   46 1   
    33   16   47 1   
    34   17   18 1   
    35   17   23 1   
    36   17   48 1   
    37   18   19 1   
    38   18   20 1   
    39   18   49 1   
    40   19   50 1   
    41   20   21 1   
    42   20   22 1   
    43   20   51 1   
    44   21   52 1   
    45   22   23 1   
    46   22   24 1   
    47   22   53 1   
    48   24   25 1   
    49   24   54 1   
    50   24   55 1   
    51   25   37 1   
    52   26   34 2   
    53   27   37 1   
    54   28   37 1   
    55   29   30 1   
    56   29   31 1   
    57   29   56 1   
    58   29   57 1   
    59   30   58 1   
    60   30   59 1   
    61   31   32 1   
    62   31   60 1   
    63   31   61 1   
    64   32   34 1   
    65   32   62 1   
    66   32   70 1   
    67   33   37 1   
    68   34   36 1   
    69   35   36 1   
    70   35   63 1   
    71   35   64 1   
    72   36   65 1   
    73   36   66 1   
@<TRIPOS>SUBSTRUCTURE
     1 YLB         1 TEMP              0 ****  ****    0 ROOT
