@<TRIPOS>MOLECULE
YLB
   70    72     1     0     0
SMALL
bcc


@<TRIPOS>ATOM
      1 C           1.9610   -1.2330   -0.3780 c         1 YLB      0.703100
      2 N           2.3040   -1.4400   -2.7950 nz        1 YLB     -0.829600
      3 O           2.7640   -1.8920    0.2810 o         1 YLB     -0.493000
      4 N1         -5.6350    7.9160    0.4640 nb        1 YLB     -0.787000
      5 C2         -4.3840    7.9930    0.9790 ca        1 YLB      0.702900
      6 C3         -0.3990    3.0660    6.1090 c3        1 YLB     -0.099100
      7 N3         -3.2680    7.2820    0.6740 nb        1 YLB     -0.782000
      8 C4         -3.4920    6.3640   -0.3120 ca        1 YLB      0.454800
      9 C5         -4.7760    6.1610   -0.9660 ca        1 YLB     -0.230200
     10 C6         -5.8680    6.9880   -0.5300 ca        1 YLB      0.775200
     11 N6         -7.1050    6.8510   -1.0880 nv        1 YLB     -0.947500
     12 N7         -4.6670    5.1530   -1.9380 nc        1 YLB     -0.528100
     13 C8         -3.3900    4.7530   -1.8920 cd        1 YLB      0.420700
     14 N9         -2.6230    5.4350   -0.9110 na        1 YLB     -0.307000
     15 CA          2.3970   -0.4690   -1.6560 c3        1 YLB      0.002500
     16 CB          3.7960    0.1230   -1.4880 c3        1 YLB     -0.094400
     17 C1'        -1.2020    5.3880   -0.6790 c3        1 YLB      0.233800
     18 C2'        -0.8240    5.2040    0.8300 c3        1 YLB      0.087100
     19 O2'         0.0370    6.2470    1.2290 oh        1 YLB     -0.608800
     20 C3'        -0.0430    3.8760    0.8920 c3        1 YLB      0.125100
     21 O3'         1.2920    4.0180    1.3410 oh        1 YLB     -0.642800
     22 C4'        -0.0810    3.3060   -0.5390 c3        1 YLB      0.079100
     23 O4'        -0.6070    4.3100   -1.4140 os        1 YLB     -0.408600
     24 C5'        -0.9160    2.0240   -0.6870 c3        1 YLB      0.167400
     25 O5'        -0.0680    0.9130   -0.6240 os        1 YLB     -0.623200
     26 OAD         3.6220    2.6920    4.4940 o         1 YLB     -0.450100
     27 OAF        -1.6410   -0.5420    0.7890 o         1 YLB     -0.807000
     28 OAI         0.6880    0.4350    1.6450 o         1 YLB     -0.807000
     29 CAM         4.4310    0.8100    0.8470 c3        1 YLB     -0.113400
     30 CAN         3.7820    1.2400   -0.4540 c3        1 YLB     -0.086400
     31 CAO         4.1830    1.7910    1.9850 c3        1 YLB      0.112800
     32 NAW         2.8060    1.7180    2.5330 ny        1 YLB     -0.677800
     33 OAY         0.6640   -1.2760   -0.1550 os        1 YLB     -0.538500
     34 CBA         2.6160    2.3780    3.8730 c         1 YLB      0.567100
     35 CBF         1.0390    2.7930    5.7480 c3        1 YLB     -0.079400
     36 CBK         1.1780    2.5690    4.2560 c3        1 YLB     -0.161400
     37 PBN        -0.2660   -0.1080    0.6560 p5        1 YLB      1.507800
     38 HN          1.3390   -1.7960   -2.8420 hn        1 YLB      0.465133
     39 HNA         2.5450   -0.9780   -3.6740 hn        1 YLB      0.465133
     40 H3         -0.4890    3.2170    7.2120 hc        1 YLB      0.049367
     41 H3A        -0.7700    3.9860    5.5960 hc        1 YLB      0.049367
     42 H3B        -1.0520    2.2090    5.8160 hc        1 YLB      0.049367
     43 HN6        -7.2380    6.1850   -1.8090 hn        1 YLB      0.456800
     44 HN6A       -7.8600    7.4230   -0.7990 hn        1 YLB      0.456800
     45 HA          1.6550    0.3650   -1.8770 hx        1 YLB      0.160700
     46 HB          4.1480    0.5380   -2.4710 hc        1 YLB      0.074200
     47 HBA         4.5140   -0.6830   -1.1750 hc        1 YLB      0.074200
     48 H1'        -0.7280    6.3320   -1.0910 h2        1 YLB      0.104700
     49 H2'        -1.7280    5.1590    1.4940 h1        1 YLB      0.097700
     50 HO2'       -0.5150    7.0300    1.3740 ho        1 YLB      0.453000
     51 H3'        -0.5120    3.1750    1.6360 h1        1 YLB      0.093700
     52 HO3'        1.6440    4.8530    1.0020 ho        1 YLB      0.445000
     53 H4'         0.9650    3.1100   -0.9100 h1        1 YLB      0.074700
     54 H5'        -1.4050    2.0380   -1.7030 h1        1 YLB      0.061200
     55 H5'A       -1.7140    1.9500    0.1010 h1        1 YLB      0.061200
     56 HAM         5.5440    0.7460    0.7040 hc        1 YLB      0.088200
     57 HAMA        4.0770   -0.2200    1.1320 hc        1 YLB      0.088200
     58 HAN         4.3410    2.1220   -0.8680 hc        1 YLB      0.067700
     59 HANA        2.7270    1.5830   -0.2710 hc        1 YLB      0.067700
     60 HAO         4.3630    2.8480    1.6410 hx        1 YLB      0.103200
     61 HAOA        4.9040    1.5690    2.8270 hx        1 YLB      0.103200
     62 HNAW        2.5030    0.7280    2.6210 hn        1 YLB      0.497800
     63 HBF         1.6850    3.6570    6.0610 hc        1 YLB      0.062700
     64 HBFA        1.4050    1.8870    6.3000 hc        1 YLB      0.062700
     65 HBK         0.5640    1.6800    3.9300 hc        1 YLB      0.115200
     66 HBKA        0.8010    3.4650    3.6830 hc        1 YLB      0.115200
     67 H8         -2.9300    3.9800   -2.5190 h5        1 YLB      0.080800
     68 HN3         2.9430   -2.2270   -2.6360 hn        1 YLB      0.465133
     69 HAW2        2.1260    2.1380    1.8690 hn        1 YLB      0.497800
     70 H2         -4.2570    8.7610    1.7730 h5        1 YLB      0.057100
@<TRIPOS>BOND
     1    1    3 2   
     2    1   15 1   
     3    1   33 1   
     4    2   15 1   
     5    2   38 1   
     6    2   39 1   
     7    2   68 1   
     8    4    5 ar  
     9    4   10 ar  
    10    5    7 ar  
    11    5   70 1   
    12    6   35 1   
    13    6   40 1   
    14    6   41 1   
    15    6   42 1   
    16    7    8 ar  
    17    8    9 ar  
    18    8   14 1   
    19    9   10 ar  
    20    9   12 1   
    21   10   11 1   
    22   11   43 1   
    23   11   44 1   
    24   12   13 2   
    25   13   14 1   
    26   13   67 1   
    27   14   17 1   
    28   15   16 1   
    29   15   45 1   
    30   16   30 1   
    31   16   46 1   
    32   16   47 1   
    33   17   18 1   
    34   17   23 1   
    35   17   48 1   
    36   18   19 1   
    37   18   20 1   
    38   18   49 1   
    39   19   50 1   
    40   20   21 1   
    41   20   22 1   
    42   20   51 1   
    43   21   52 1   
    44   22   23 1   
    45   22   24 1   
    46   22   53 1   
    47   24   25 1   
    48   24   54 1   
    49   24   55 1   
    50   25   37 1   
    51   26   34 2   
    52   27   37 1   
    53   28   37 1   
    54   29   30 1   
    55   29   31 1   
    56   29   56 1   
    57   29   57 1   
    58   30   58 1   
    59   30   59 1   
    60   31   32 1   
    61   31   60 1   
    62   31   61 1   
    63   32   34 1   
    64   32   62 1   
    65   32   69 1   
    66   33   37 1   
    67   34   36 1   
    68   35   36 1   
    69   35   63 1   
    70   35   64 1   
    71   36   65 1   
    72   36   66 1   
@<TRIPOS>SUBSTRUCTURE
     1 YLB         1 TEMP              0 ****  ****    0 ROOT
