@<TRIPOS>MOLECULE
YLC
   69    71     1     0     0
SMALL
bcc


@<TRIPOS>ATOM
      1 C           1.2120    0.6940   -1.3710 c         1 YLC      0.649100
      2 N           1.8020   -0.5130   -3.4280 n4        1 YLC     -0.838600
      3 O           0.2610    0.0330   -0.9370 o         1 YLC     -0.540000
      4 N1         -6.4860    7.4030   -3.1690 nb        1 YLC     -0.678000
      5 C2         -5.9840    8.1730   -2.1630 ca        1 YLC      0.673900
      6 C3          3.7620    2.6640    6.9010 c3        1 YLC     -0.127900
      7 N3         -5.0440    7.8490   -1.2350 nb        1 YLC     -0.618000
      8 C4         -4.5550    6.5930   -1.3570 ca        1 YLC      0.461800
      9 C5         -5.0010    5.6500   -2.4120 ca        1 YLC     -0.130200
     10 C6         -5.9910    6.1430   -3.2780 ca        1 YLC      0.508200
     11 N6         -6.5160    5.2540   -4.3310 n4        1 YLC     -0.814300
     12 N7         -4.3190    4.4380   -2.2880 nc        1 YLC     -0.604100
     13 C8         -3.5060    4.5980   -1.2230 cd        1 YLC      0.510700
     14 N9         -3.6090    5.8680   -0.6100 na        1 YLC     -0.269000
     15 CA          2.3670    0.1360   -2.1950 c3        1 YLC      0.058500
     16 CB          3.1780   -0.8670   -1.3620 c3        1 YLC     -0.095400
     17 C1'        -2.9090    6.3960    0.5510 c3        1 YLC      0.210800
     18 C2'        -2.9020    5.4190    1.7690 c3        1 YLC      0.083100
     19 O2'        -3.4170    6.0530    2.9110 oh        1 YLC     -0.568800
     20 C3'        -1.4200    5.0230    1.9430 c3        1 YLC      0.091100
     21 O3'        -0.9480    5.3790    3.2270 oh        1 YLC     -0.587800
     22 C4'        -0.6300    5.8390    0.9060 c3        1 YLC      0.106100
     23 O4'        -1.5550    6.7140    0.2360 os        1 YLC     -0.399600
     24 C5'         0.0750    4.9930   -0.1670 c3        1 YLC      0.170400
     25 O5'         0.7640    3.9160    0.4020 os        1 YLC     -0.576200
     26 OAD         3.7860    0.4230    4.9350 o         1 YLC     -0.462100
     27 OAF        -1.1840    2.5450   -0.3070 o         1 YLC     -0.834000
     28 OAI         0.7980    1.6020    1.2590 o         1 YLC     -0.834000
     29 CAM         2.8190   -0.9800    1.1150 c3        1 YLC     -0.112400
     30 CAN         3.5740   -0.2950   -0.0090 c3        1 YLC     -0.086400
     31 CAO         3.2820   -0.5220    2.4920 c3        1 YLC      0.120800
     32 NAW         2.6130    0.7240    2.9480 n4        1 YLC     -0.667800
     33 OAY         1.2370    1.9850   -1.1090 os        1 YLC     -0.496500
     34 CBA         3.0500    1.1870    4.3190 c         1 YLC      0.565300
     35 CBF         2.8490    3.1220    5.8480 c2        1 YLC      0.042800
     36 CBK         2.5210    2.4860    4.7040 ce        1 YLC     -0.329200
     37 PBN         0.1880    2.4150    0.1890 p5        1 YLC      1.504800
     38 HN          2.5370   -1.0320   -3.9180 hn        1 YLC      0.470133
     39 HNA         1.0500   -1.1620   -3.1560 hn        1 YLC      0.470133
     40 H3          4.3820    3.5200    7.2740 hc        1 YLC      0.088367
     41 H3A         3.1610    2.2780    7.7680 hc        1 YLC      0.088367
     42 H3B         4.4470    1.8470    6.5640 hc        1 YLC      0.088367
     43 HN6        -7.0710    4.5140   -3.8860 hn        1 YLC      0.476800
     44 HN6A       -5.7220    4.8300   -4.8260 hn        1 YLC      0.476800
     45 HA          3.0330    0.9910   -2.5260 hx        1 YLC      0.143700
     46 HB          4.1060   -1.1380   -1.9350 hc        1 YLC      0.078200
     47 HBA         2.5790   -1.8070   -1.2120 hc        1 YLC      0.078200
     48 H1'        -3.3960    7.3850    0.8230 h2        1 YLC      0.137700
     49 H2'        -3.5600    4.5220    1.6180 h1        1 YLC      0.113700
     50 HO2'       -2.8190    6.7780    3.1530 ho        1 YLC      0.429000
     51 H3'        -1.2810    3.9190    1.7680 h1        1 YLC      0.059700
     52 HO3'       -1.5330    4.9540    3.8710 ho        1 YLC      0.425000
     53 H4'         0.1100    6.5170    1.4160 h1        1 YLC      0.115700
     54 H5'         0.8350    5.6460   -0.6800 h1        1 YLC      0.058700
     55 H5'A       -0.6770    4.6260   -0.9190 h1        1 YLC      0.058700
     56 HAM         2.9930   -2.0890    1.0650 hc        1 YLC      0.092200
     57 HAMA        1.7130   -0.8000    0.9840 hc        1 YLC      0.092200
     58 HAN         3.3810    0.8110    0.0230 hc        1 YLC      0.071700
     59 HANA        4.6780   -0.4450    0.1340 hc        1 YLC      0.071700
     60 HAO         3.0550   -1.3250    3.2530 hx        1 YLC      0.104700
     61 HAOA        4.3950   -0.3450    2.5030 hx        1 YLC      0.104700
     62 HNAW        1.5830    0.5890    2.9420 hn        1 YLC      0.488800
     63 HBF         2.3770    4.1100    6.0340 ha        1 YLC      0.158000
     64 HBK         1.8100    2.9620    4.0030 ha        1 YLC      0.174000
     65 H8         -2.8130    3.8080   -0.8420 h5        1 YLC      0.161800
     66 HN3         1.4140    0.2030   -4.0500 hn        1 YLC      0.470133
     67 H63        -7.1050    5.7730   -4.9960 hn        1 YLC      0.476800
     68 HAW2        2.7720    1.4790    2.2630 hn        1 YLC      0.488800
     69 H2         -6.4040    9.2040   -2.0950 h5        1 YLC      0.103100
@<TRIPOS>BOND
     1    1    3 2   
     2    1   15 1   
     3    1   33 1   
     4    2   15 1   
     5    2   38 1   
     6    2   39 1   
     7    2   66 1   
     8    4    5 ar  
     9    4   10 ar  
    10    5    7 ar  
    11    5   69 1   
    12    6   35 1   
    13    6   40 1   
    14    6   41 1   
    15    6   42 1   
    16    7    8 ar  
    17    8    9 ar  
    18    8   14 1   
    19    9   10 ar  
    20    9   12 1   
    21   10   11 1   
    22   11   43 1   
    23   11   44 1   
    24   11   67 1   
    25   12   13 2   
    26   13   14 1   
    27   13   65 1   
    28   14   17 1   
    29   15   16 1   
    30   15   45 1   
    31   16   30 1   
    32   16   46 1   
    33   16   47 1   
    34   17   18 1   
    35   17   23 1   
    36   17   48 1   
    37   18   19 1   
    38   18   20 1   
    39   18   49 1   
    40   19   50 1   
    41   20   21 1   
    42   20   22 1   
    43   20   51 1   
    44   21   52 1   
    45   22   23 1   
    46   22   24 1   
    47   22   53 1   
    48   24   25 1   
    49   24   54 1   
    50   24   55 1   
    51   25   37 1   
    52   26   34 2   
    53   27   37 1   
    54   28   37 1   
    55   29   30 1   
    56   29   31 1   
    57   29   56 1   
    58   29   57 1   
    59   30   58 1   
    60   30   59 1   
    61   31   32 1   
    62   31   60 1   
    63   31   61 1   
    64   32   34 1   
    65   32   62 1   
    66   32   68 1   
    67   33   37 1   
    68   34   36 1   
    69   35   36 2   
    70   35   63 1   
    71   36   64 1   
@<TRIPOS>SUBSTRUCTURE
     1 YLC         1 TEMP              0 ****  ****    0 ROOT
