@<TRIPOS>MOLECULE
YLC
   68    70     1     0     0
SMALL
bcc


@<TRIPOS>ATOM
      1 C           0.3010    1.4740   -0.3450 c         1 YLC      0.699100
      2 N           0.3170    3.8060   -1.1520 nz        1 YLC     -0.814600
      3 O           0.5060    0.4560   -1.0020 o         1 YLC     -0.492000
      4 N1         -3.0460    3.2330   -4.6540 nb        1 YLC     -0.779000
      5 C2         -1.9760    3.8930   -4.1630 ca        1 YLC      0.693900
      6 C3          3.6500   -1.5520    6.5330 c3        1 YLC     -0.122900
      7 N3         -1.8380    4.6240   -3.0230 nb        1 YLC     -0.835000
      8 C4         -3.0030    4.7060   -2.3130 ca        1 YLC      0.463800
      9 C5         -4.2310    4.0270   -2.6970 ca        1 YLC     -0.230200
     10 C6         -4.2200    3.2710   -3.9200 ca        1 YLC      0.783200
     11 N6         -5.3320    2.6090   -4.3390 nv        1 YLC     -0.931500
     12 N7         -5.2320    4.2710   -1.7450 nc        1 YLC     -0.511100
     13 C8         -4.6650    5.0630   -0.8300 cd        1 YLC      0.413700
     14 N9         -3.3040    5.3790   -1.1130 na        1 YLC     -0.306000
     15 CA          1.1510    2.7620   -0.4930 c3        1 YLC      0.005500
     16 CB          2.4810    2.5000   -1.1960 c3        1 YLC     -0.094400
     17 C1'        -2.4490    6.3670   -0.5050 c3        1 YLC      0.257800
     18 C2'        -3.1170    7.2160    0.6170 c3        1 YLC      0.084100
     19 O2'        -2.6810    8.5430    0.3910 oh        1 YLC     -0.589800
     20 C3'        -2.5300    6.6740    1.9430 c3        1 YLC      0.092100
     21 O3'        -2.0530    7.7200    2.7520 oh        1 YLC     -0.573800
     22 C4'        -1.4120    5.6990    1.5290 c3        1 YLC      0.093100
     23 O4'        -1.3010    5.7390    0.0970 os        1 YLC     -0.469600
     24 C5'        -1.6770    4.2700    1.9920 c3        1 YLC      0.152400
     25 O5'        -0.5270    3.5060    1.7300 os        1 YLC     -0.619200
     26 OAD         4.6290   -0.7210    3.8210 o         1 YLC     -0.471100
     27 OAF        -1.9170    1.6730    2.8150 o         1 YLC     -0.820000
     28 OAI         0.7140    1.4610    2.4120 o         1 YLC     -0.820000
     29 CAM         3.5840    0.5420   -0.0370 c3        1 YLC     -0.118400
     30 CAN         3.5470    2.0480   -0.2100 c3        1 YLC     -0.080400
     31 CAO         4.0850    0.1140    1.3350 c3        1 YLC      0.113800
     32 NAW         3.0610    0.2550    2.4010 ny        1 YLC     -0.669800
     33 OAY        -0.7360    1.5320    0.4760 os        1 YLC     -0.551500
     34 CBA         3.4790   -0.2980    3.7440 c         1 YLC      0.570300
     35 CBF         2.5260   -0.7890    5.9760 c2        1 YLC      0.026800
     36 CBK         2.4330   -0.2310    4.7530 ce        1 YLC     -0.318200
     37 PBN        -0.6650    1.9220    2.1250 p5        1 YLC      1.506800
     38 HN          0.7870    4.7140   -1.1300 hn        1 YLC      0.472800
     39 HNA        -0.5780    3.9080   -0.6320 hn        1 YLC      0.472800
     40 H3          3.2700   -2.4590    7.0690 hc        1 YLC      0.082367
     41 H3A         4.1940   -0.9150    7.2810 hc        1 YLC      0.082367
     42 H3B         4.3860   -1.8790    5.7560 hc        1 YLC      0.082367
     43 HN6        -5.3310    2.0930   -5.1860 hn        1 YLC      0.462800
     44 HN6A       -6.1600    2.6620   -3.7970 hn        1 YLC      0.462800
     45 HA          1.3340    3.1230    0.5750 hx        1 YLC      0.140700
     46 HB          2.3370    1.7180   -1.9920 hc        1 YLC      0.080200
     47 HBA         2.8430    3.4370   -1.7000 hc        1 YLC      0.080200
     48 H1'        -2.0160    7.0300   -1.3170 h2        1 YLC      0.130700
     49 H2'        -4.2360    7.1730    0.6110 h1        1 YLC      0.077700
     50 HO2'       -3.1580    9.1070    1.0170 ho        1 YLC      0.436000
     51 H3'        -3.3160    6.1660    2.5670 h1        1 YLC      0.111700
     52 HO3'       -1.3830    8.2070    2.2480 ho        1 YLC      0.420000
     53 H4'        -0.4090    6.0430    1.9070 h1        1 YLC      0.093700
     54 H5'        -2.5440    3.8090    1.4440 h1        1 YLC      0.065700
     55 H5'A       -1.8830    4.2470    3.0960 h1        1 YLC      0.065700
     56 HAM         2.5720    0.0950   -0.2450 hc        1 YLC      0.092200
     57 HAMA        4.2880    0.1000   -0.7950 hc        1 YLC      0.092200
     58 HAN         4.5470    2.3930   -0.5910 hc        1 YLC      0.057700
     59 HANA        3.3910    2.5570    0.7780 hc        1 YLC      0.057700
     60 HAO         4.3930   -0.9720    1.3020 hx        1 YLC      0.103200
     61 HAOA        4.9860    0.7200    1.6370 hx        1 YLC      0.103200
     62 HNAW        2.7980    1.2510    2.5280 hn        1 YLC      0.488800
     63 HBF         1.6590   -0.6660    6.6600 ha        1 YLC      0.157000
     64 HBK         1.5120    0.3200    4.4670 ha        1 YLC      0.195000
     65 H8         -5.1720    5.4320    0.0700 h5        1 YLC      0.081800
     66 HN3         0.1190    3.5510   -2.1230 hn        1 YLC      0.472800
     67 HAW2        2.1760   -0.2020    2.1200 hn        1 YLC      0.488800
     68 H2         -1.0660    3.8290   -4.7990 h5        1 YLC      0.049100
@<TRIPOS>BOND
     1    1    3 2   
     2    1   15 1   
     3    1   33 1   
     4    2   15 1   
     5    2   38 1   
     6    2   39 1   
     7    2   66 1   
     8    4    5 ar  
     9    4   10 ar  
    10    5    7 ar  
    11    5   68 1   
    12    6   35 1   
    13    6   40 1   
    14    6   41 1   
    15    6   42 1   
    16    7    8 ar  
    17    8    9 ar  
    18    8   14 1   
    19    9   10 ar  
    20    9   12 1   
    21   10   11 1   
    22   11   43 1   
    23   11   44 1   
    24   12   13 2   
    25   13   14 1   
    26   13   65 1   
    27   14   17 1   
    28   15   16 1   
    29   15   45 1   
    30   16   30 1   
    31   16   46 1   
    32   16   47 1   
    33   17   18 1   
    34   17   23 1   
    35   17   48 1   
    36   18   19 1   
    37   18   20 1   
    38   18   49 1   
    39   19   50 1   
    40   20   21 1   
    41   20   22 1   
    42   20   51 1   
    43   21   52 1   
    44   22   23 1   
    45   22   24 1   
    46   22   53 1   
    47   24   25 1   
    48   24   54 1   
    49   24   55 1   
    50   25   37 1   
    51   26   34 2   
    52   27   37 1   
    53   28   37 1   
    54   29   30 1   
    55   29   31 1   
    56   29   56 1   
    57   29   57 1   
    58   30   58 1   
    59   30   59 1   
    60   31   32 1   
    61   31   60 1   
    62   31   61 1   
    63   32   34 1   
    64   32   62 1   
    65   32   67 1   
    66   33   37 1   
    67   34   36 1   
    68   35   36 2   
    69   35   63 1   
    70   36   64 1   
@<TRIPOS>SUBSTRUCTURE
     1 YLC         1 TEMP              0 ****  ****    0 ROOT
