@<TRIPOS>MOLECULE
YLL
   27    27     1     0     0
SMALL
bcc


@<TRIPOS>ATOM
      1 O5          1.8650    0.2070   -0.2690 oh        1 YLL     -0.602800
      2 C7          0.6330    0.7040    0.2310 c3        1 YLL      0.137600
      3 C5          0.4210    2.0890   -0.3830 c3        1 YLL     -0.101700
      4 C6          0.3550    1.9480   -1.9030 c3        1 YLL      0.131400
      5 O6         -0.1300    3.1720   -2.4350 oh        1 YLL     -0.619800
      6 C4         -0.8380    2.7710    0.1630 c3        1 YLL      0.137600
      7 O4         -2.0210    2.1240   -0.2810 oh        1 YLL     -0.602800
      8 C3         -0.9030    2.7790    1.6990 c3        1 YLL      0.094600
      9 O3         -0.0140    3.7340    2.2510 oh        1 YLL     -0.602300
     10 C2         -0.6400    1.3900    2.2900 c3        1 YLL      0.080100
     11 O2         -0.6060    1.4190    3.7040 oh        1 YLL     -0.598800
     12 C1          0.6770    0.8040    1.7640 c3        1 YLL      0.094600
     13 OXT         0.8860   -0.5130    2.2490 oh        1 YLL     -0.602300
     14 H5          2.0490   -0.6100    0.2140 ho        1 YLL      0.423500
     15 H7         -0.2040    0.0120   -0.0700 h1        1 YLL      0.067200
     16 HA          1.3040    2.7380   -0.1270 hc        1 YLL      0.068700
     17 H6C1       -0.3550    1.1240   -2.1870 h1        1 YLL      0.044200
     18 H6C2        1.3760    1.7060   -2.2980 h1        1 YLL      0.044200
     19 H4         -0.8330    3.8420   -0.1970 h1        1 YLL      0.067200
     20 H6          0.1380    3.2000   -3.3600 ho        1 YLL      0.410000
     21 HB         -2.0980    2.3210   -1.2240 ho        1 YLL      0.423500
     22 H3         -1.9240    3.1310    2.0270 h1        1 YLL      0.075200
     23 HC          0.8620    3.5740    1.8750 ho        1 YLL      0.416000
     24 H2         -1.4950    0.7020    2.0300 h1        1 YLL      0.106700
     25 HD         -0.1300    2.2200    3.9680 ho        1 YLL      0.417000
     26 HXT         0.6150   -0.5160    3.1780 ho        1 YLL      0.416000
     27 H1          1.5460    1.4440    2.0870 h1        1 YLL      0.075200
@<TRIPOS>BOND
     1    1    2 1   
     2    1   14 1   
     3    2    3 1   
     4    2   12 1   
     5    2   15 1   
     6    3    4 1   
     7    3    6 1   
     8    3   16 1   
     9    4    5 1   
    10    4   17 1   
    11    4   18 1   
    12    5   20 1   
    13    6    7 1   
    14    6    8 1   
    15    6   19 1   
    16    7   21 1   
    17    8    9 1   
    18    8   10 1   
    19    8   22 1   
    20    9   23 1   
    21   10   11 1   
    22   10   12 1   
    23   10   24 1   
    24   11   25 1   
    25   12   13 1   
    26   12   27 1   
    27   13   26 1   
@<TRIPOS>SUBSTRUCTURE
     1 YLL         1 TEMP              0 ****  ****    0 ROOT
