@<TRIPOS>MOLECULE
YLL
   27    27     1     0     0
SMALL
bcc


@<TRIPOS>ATOM
      1 O5          0.1490   -0.2190   -0.0520 oh        1 YLL     -0.601800
      2 C7          1.5640   -0.1130    0.0010 c3        1 YLL      0.133600
      3 C5          1.9770   -0.0410    1.4720 c3        1 YLL     -0.054700
      4 C6          1.4810   -1.2760    2.2160 c3        1 YLL      0.134400
      5 O6          1.7030   -1.0490    3.6010 oh        1 YLL     -0.608800
      6 C4          3.4950    0.1020    1.5990 c3        1 YLL      0.133600
      7 O4          4.1050   -1.0680    1.0680 oh        1 YLL     -0.601800
      8 C3          4.0230    1.3280    0.8290 c3        1 YLL      0.093100
      9 O3          3.5510    2.4820    1.4990 oh        1 YLL     -0.599300
     10 C2          3.5620    1.2910   -0.6360 c3        1 YLL      0.084100
     11 O2          3.9980    2.5050   -1.2270 oh        1 YLL     -0.609800
     12 C1          2.0380    1.1490   -0.7350 c3        1 YLL      0.093100
     13 OXT         1.6270    1.1270   -2.0910 oh        1 YLL     -0.599300
     14 H5         -0.1210    0.0600   -0.9380 ho        1 YLL      0.410500
     15 H7          2.0150   -1.0270   -0.4800 h1        1 YLL      0.066200
     16 HA          1.5190    0.8760    1.9400 hc        1 YLL      0.097700
     17 H6C1        2.0520   -2.1850    1.8850 h1        1 YLL      0.042700
     18 H6C2        0.3860   -1.4220    2.0140 h1        1 YLL      0.042700
     19 H4          3.7450    0.2180    2.6920 h1        1 YLL      0.066200
     20 H6          1.2800   -1.7790    4.0670 ho        1 YLL      0.402000
     21 HB          4.9970   -1.1050    1.4330 ho        1 YLL      0.410500
     22 H3          5.1500    1.3240    0.8440 h1        1 YLL      0.078200
     23 HC          3.7900    3.2380    0.9440 ho        1 YLL      0.414000
     24 H2          4.0600    0.4250   -1.1570 h1        1 YLL      0.056700
     25 HD          3.4750    2.6340   -2.0300 ho        1 YLL      0.423000
     26 HXT         2.0160    0.3440   -2.5010 ho        1 YLL      0.414000
     27 H1          1.5370    2.0640   -0.3050 h1        1 YLL      0.078200
@<TRIPOS>BOND
     1    1    2 1   
     2    1   14 1   
     3    2    3 1   
     4    2   12 1   
     5    2   15 1   
     6    3    4 1   
     7    3    6 1   
     8    3   16 1   
     9    4    5 1   
    10    4   17 1   
    11    4   18 1   
    12    5   20 1   
    13    6    7 1   
    14    6    8 1   
    15    6   19 1   
    16    7   21 1   
    17    8    9 1   
    18    8   10 1   
    19    8   22 1   
    20    9   23 1   
    21   10   11 1   
    22   10   12 1   
    23   10   24 1   
    24   11   25 1   
    25   12   13 1   
    26   12   27 1   
    27   13   26 1   
@<TRIPOS>SUBSTRUCTURE
     1 YLL         1 TEMP              0 ****  ****    0 ROOT
