@<TRIPOS>MOLECULE
YLO
   53    56     1     0     0
SMALL
bcc


@<TRIPOS>ATOM
      1 C01         6.1660    4.9120   -1.7520 c3        1 YLO     -0.048800
      2 C02         5.3830    3.8580   -1.0670 ca        1 YLO     -0.107300
      3 C03         5.3580    3.8000    0.3340 ca        1 YLO     -0.098000
      4 C04         4.6390    2.8120    0.9930 ca        1 YLO     -0.173500
      5 C05         3.9280    1.8610    0.2360 ca        1 YLO      0.119100
      6 C06         3.9420    1.9050   -1.1610 ca        1 YLO     -0.173500
      7 C07         4.6710    2.9070   -1.8020 ca        1 YLO     -0.098000
      8 O08         3.2500    0.9190    0.9900 os        1 YLO     -0.333900
      9 C09         2.4950   -0.0410    0.2460 c3        1 YLO      0.101400
     10 C10         1.8350   -0.9200    1.3270 c3        1 YLO      0.038300
     11 N11         1.1010   -2.0300    0.8100 na        1 YLO     -0.150300
     12 C12         1.6370   -3.2390    0.3340 ca        1 YLO     -0.071200
     13 C13         2.9170   -3.7980    0.3990 ca        1 YLO     -0.131000
     14 C14         3.0920   -5.0600   -0.1540 ca        1 YLO     -0.115000
     15 C15         2.0310   -5.7570   -0.7560 ca        1 YLO     -0.149000
     16 C16         0.7520   -5.2230   -0.8310 ca        1 YLO     -0.074000
     17 C17         0.5330   -3.9500   -0.2880 ca        1 YLO      0.078400
     18 N18        -0.6310   -3.1610   -0.2140 nc        1 YLO     -0.582100
     19 C19        -0.2660   -2.0250    0.4190 cd        1 YLO      0.403700
     20 S20        -1.2740   -0.7090    0.7910 ss        1 YLO     -0.133300
     21 C21        -2.8810   -1.2560    0.2830 c3        1 YLO     -0.028300
     22 C22        -3.8410   -0.1760    0.7380 c3        1 YLO      0.138400
     23 O23        -4.5170    0.2720   -0.4430 os        1 YLO     -0.328900
     24 C24        -5.4450    1.2800   -0.2620 ca        1 YLO      0.123100
     25 C25        -6.0770    1.7100   -1.4450 ca        1 YLO     -0.178500
     26 C26        -7.0290    2.7190   -1.3740 ca        1 YLO     -0.097000
     27 C27        -7.3570    3.3010   -0.1460 ca        1 YLO     -0.162000
     28 C28        -6.7270    2.8680    1.0180 ca        1 YLO     -0.097000
     29 C29        -5.7670    1.8560    0.9720 ca        1 YLO     -0.178500
     30 H011        7.2510    4.6350   -1.7670 hc        1 YLO      0.043033
     31 H012        5.8250    5.0470   -2.8080 hc        1 YLO      0.043033
     32 H013        6.0640    5.8900   -1.2200 hc        1 YLO      0.043033
     33 H03         5.9150    4.5480    0.9180 ha        1 YLO      0.134500
     34 H07         4.6810    2.9450   -2.9020 ha        1 YLO      0.134500
     35 H04         4.6140    2.7600    2.0900 ha        1 YLO      0.143500
     36 H06         3.3900    1.1690   -1.7610 ha        1 YLO      0.143500
     37 H091        1.7270    0.4790   -0.3830 h1        1 YLO      0.054700
     38 H092        3.1820   -0.6430   -0.4040 h1        1 YLO      0.054700
     39 H101        2.6430   -1.3140    2.0090 h1        1 YLO      0.081700
     40 H102        1.1340   -0.2780    1.9360 h1        1 YLO      0.081700
     41 H13         3.7500   -3.2600    0.8710 ha        1 YLO      0.138000
     42 H14         4.0870   -5.5280   -0.1200 ha        1 YLO      0.133000
     43 H15         2.2240   -6.7550   -1.1790 ha        1 YLO      0.133000
     44 H16        -0.0730   -5.7760   -1.3010 ha        1 YLO      0.148000
     45 H211       -2.9270   -1.3890   -0.8270 h1        1 YLO      0.102200
     46 H212       -3.1360   -2.2380    0.7490 h1        1 YLO      0.102200
     47 H221       -4.5940   -0.5850    1.4640 h1        1 YLO      0.053700
     48 H222       -3.3010    0.6910    1.2100 h1        1 YLO      0.053700
     49 H25        -5.8070    1.2430   -2.4030 ha        1 YLO      0.143000
     50 H29        -5.2800    1.5270    1.9000 ha        1 YLO      0.143000
     51 H26        -7.5280    3.0620   -2.2930 ha        1 YLO      0.133500
     52 H27        -8.1120    4.0980   -0.1010 ha        1 YLO      0.134000
     53 H28        -6.9840    3.3250    1.9850 ha        1 YLO      0.133500
@<TRIPOS>BOND
     1    1    2 1   
     2    1   30 1   
     3    1   31 1   
     4    1   32 1   
     5    2    3 ar  
     6    2    7 ar  
     7    3    4 ar  
     8    3   33 1   
     9    4    5 ar  
    10    4   35 1   
    11    5    6 ar  
    12    5    8 1   
    13    6    7 ar  
    14    6   36 1   
    15    7   34 1   
    16    8    9 1   
    17    9   10 1   
    18    9   37 1   
    19    9   38 1   
    20   10   11 1   
    21   10   39 1   
    22   10   40 1   
    23   11   12 1   
    24   11   19 1   
    25   12   13 ar  
    26   12   17 ar  
    27   13   14 ar  
    28   13   41 1   
    29   14   15 ar  
    30   14   42 1   
    31   15   16 ar  
    32   15   43 1   
    33   16   17 ar  
    34   16   44 1   
    35   17   18 1   
    36   18   19 2   
    37   19   20 1   
    38   20   21 1   
    39   21   22 1   
    40   21   45 1   
    41   21   46 1   
    42   22   23 1   
    43   22   47 1   
    44   22   48 1   
    45   23   24 1   
    46   24   25 ar  
    47   24   29 ar  
    48   25   26 ar  
    49   25   49 1   
    50   26   27 ar  
    51   26   51 1   
    52   27   28 ar  
    53   27   52 1   
    54   28   29 ar  
    55   28   53 1   
    56   29   50 1   
@<TRIPOS>SUBSTRUCTURE
     1 YLO         1 TEMP              0 ****  ****    0 ROOT
