@<TRIPOS>MOLECULE
YLO
   53    56     1     0     0
SMALL
bcc


@<TRIPOS>ATOM
      1 C01        -0.0020   -0.4020   -0.1630 c3        1 YLO     -0.048800
      2 C02         1.4750   -0.3450   -0.2520 ca        1 YLO     -0.107300
      3 C03         2.2530   -0.4170    0.9140 ca        1 YLO     -0.098000
      4 C04         3.6390   -0.3790    0.8490 ca        1 YLO     -0.173500
      5 C05         4.2640   -0.2640   -0.4080 ca        1 YLO      0.119100
      6 C06         3.5040   -0.1890   -1.5790 ca        1 YLO     -0.173500
      7 C07         2.1120   -0.2310   -1.4900 ca        1 YLO     -0.098000
      8 O08         5.6460   -0.2300   -0.3600 os        1 YLO     -0.333900
      9 C09         6.3070   -0.1410   -1.6250 c3        1 YLO      0.101400
     10 C10         7.8060   -0.1540   -1.2690 c3        1 YLO      0.038300
     11 N11         8.6750    0.0320   -2.3880 na        1 YLO     -0.150300
     12 C12         8.9650    1.2470   -3.0300 ca        1 YLO     -0.071200
     13 C13         8.7070    2.5810   -2.6950 ca        1 YLO     -0.131000
     14 C14         9.1820    3.5590   -3.5570 ca        1 YLO     -0.115000
     15 C15         9.8980    3.2350   -4.7220 ca        1 YLO     -0.149000
     16 C16        10.1680    1.9200   -5.0730 ca        1 YLO     -0.074000
     17 C17         9.7030    0.9000   -4.2320 ca        1 YLO      0.078400
     18 N18         9.8170   -0.5000   -4.3210 nc        1 YLO     -0.582100
     19 C19         9.1850   -0.9910   -3.2330 cd        1 YLO      0.403700
     20 S20         9.0150   -2.6300   -2.8180 ss        1 YLO     -0.133300
     21 C21         9.9660   -3.4750   -4.0520 c3        1 YLO     -0.028300
     22 C22         9.9750   -4.9310   -3.6340 c3        1 YLO      0.138400
     23 O23         9.4220   -5.6600   -4.7360 os        1 YLO     -0.328900
     24 C24         9.3230   -7.0280   -4.5660 ca        1 YLO      0.123100
     25 C25         8.7600   -7.7120   -5.6610 ca        1 YLO     -0.178500
     26 C26         8.6180   -9.0930   -5.5940 ca        1 YLO     -0.097000
     27 C27         9.0270   -9.7940   -4.4560 ca        1 YLO     -0.162000
     28 C28         9.5820   -9.1080   -3.3790 ca        1 YLO     -0.097000
     29 C29         9.7360   -7.7220   -3.4230 ca        1 YLO     -0.178500
     30 H011       -0.3690    0.1820    0.7170 hc        1 YLO      0.043367
     31 H012       -0.4780    0.0120   -1.0850 hc        1 YLO      0.043367
     32 H013       -0.3370   -1.4630   -0.0410 hc        1 YLO      0.043367
     33 H03         1.7570   -0.5050    1.8920 ha        1 YLO      0.134500
     34 H07         1.5120   -0.1710   -2.4100 ha        1 YLO      0.134500
     35 H04         4.2550   -0.4350    1.7570 ha        1 YLO      0.143500
     36 H06         3.9810   -0.0990   -2.5650 ha        1 YLO      0.143500
     37 H091        6.0180    0.8130   -2.1380 h1        1 YLO      0.054700
     38 H092        6.0320   -1.0200   -2.2640 h1        1 YLO      0.054700
     39 H101        8.0530   -1.1410   -0.7810 h1        1 YLO      0.081700
     40 H102        8.0030    0.6720   -0.5260 h1        1 YLO      0.081700
     41 H13         8.1500    2.8410   -1.7840 ha        1 YLO      0.138000
     42 H14         8.9950    4.6180   -3.3230 ha        1 YLO      0.133000
     43 H15        10.2540    4.0500   -5.3700 ha        1 YLO      0.133000
     44 H16        10.7320    1.6740   -5.9840 ha        1 YLO      0.148000
     45 H211        9.5050   -3.3540   -5.0650 h1        1 YLO      0.102200
     46 H212       11.0050   -3.0690   -4.1060 h1        1 YLO      0.102200
     47 H221       11.0210   -5.2880   -3.4390 h1        1 YLO      0.053700
     48 H222        9.3450   -5.1050   -2.7170 h1        1 YLO      0.053700
     49 H25         8.4440   -7.1460   -6.5480 ha        1 YLO      0.143000
     50 H29        10.1760   -7.1980   -2.5640 ha        1 YLO      0.143000
     51 H26         8.1790   -9.6360   -6.4440 ha        1 YLO      0.133500
     52 H27         8.9090  -10.8860   -4.4130 ha        1 YLO      0.134000
     53 H28         9.9050   -9.6590   -2.4830 ha        1 YLO      0.133500
@<TRIPOS>BOND
     1    1    2 1   
     2    1   30 1   
     3    1   31 1   
     4    1   32 1   
     5    2    3 ar  
     6    2    7 ar  
     7    3    4 ar  
     8    3   33 1   
     9    4    5 ar  
    10    4   35 1   
    11    5    6 ar  
    12    5    8 1   
    13    6    7 ar  
    14    6   36 1   
    15    7   34 1   
    16    8    9 1   
    17    9   10 1   
    18    9   37 1   
    19    9   38 1   
    20   10   11 1   
    21   10   39 1   
    22   10   40 1   
    23   11   12 1   
    24   11   19 1   
    25   12   13 ar  
    26   12   17 ar  
    27   13   14 ar  
    28   13   41 1   
    29   14   15 ar  
    30   14   42 1   
    31   15   16 ar  
    32   15   43 1   
    33   16   17 ar  
    34   16   44 1   
    35   17   18 1   
    36   18   19 2   
    37   19   20 1   
    38   20   21 1   
    39   21   22 1   
    40   21   45 1   
    41   21   46 1   
    42   22   23 1   
    43   22   47 1   
    44   22   48 1   
    45   23   24 1   
    46   24   25 ar  
    47   24   29 ar  
    48   25   26 ar  
    49   25   49 1   
    50   26   27 ar  
    51   26   51 1   
    52   27   28 ar  
    53   27   52 1   
    54   28   29 ar  
    55   28   53 1   
    56   29   50 1   
@<TRIPOS>SUBSTRUCTURE
     1 YLO         1 TEMP              0 ****  ****    0 ROOT
