@<TRIPOS>MOLECULE
YLP
   68    70     1     0     0
SMALL
bcc


@<TRIPOS>ATOM
      1 C           1.0160   -0.9710    1.8460 c         1 YLP      0.729100
      2 N           0.3090    0.5960    0.1140 n3        1 YLP     -0.926800
      3 O           1.2800   -0.8940    3.0420 o         1 YLP     -0.494000
      4 N1         -8.6820   -7.9170    6.6960 nb        1 YLP     -0.675000
      5 C2         -8.5790   -8.0240    5.3390 ca        1 YLP      0.676900
      6 N3         -7.6960   -7.4170    4.5040 nb        1 YLP     -0.610000
      7 C4         -6.8110   -6.6060    5.1330 ca        1 YLP      0.464800
      8 C5         -6.8010   -6.4020    6.6010 ca        1 YLP     -0.136200
      9 C6         -7.7890   -7.1050    7.3140 ca        1 YLP      0.521200
     10 N6         -7.8490   -6.9470    8.7780 n4        1 YLP     -0.816300
     11 N7         -5.7730   -5.5260    6.9580 nc        1 YLP     -0.588100
     12 C8         -5.1800   -5.1980    5.7920 cd        1 YLP      0.514700
     13 N9         -5.7640   -5.7990    4.6580 na        1 YLP     -0.250000
     14 CA          1.4620    0.0000    0.7460 c3        1 YLP      0.113500
     15 CB          2.4750    0.9960    1.3380 c3        1 YLP     -0.116400
     16 C1'        -5.3570   -5.6870    3.2710 c3        1 YLP      0.212800
     17 C2'        -5.8300   -4.3740    2.5610 c3        1 YLP      0.085100
     18 O2'        -6.9070   -4.6420    1.7060 oh        1 YLP     -0.566800
     19 C3'        -4.5750   -3.8600    1.8230 c3        1 YLP      0.071100
     20 O3'        -4.7700   -3.9480    0.4240 oh        1 YLP     -0.591800
     21 C4'        -3.4450   -4.8440    2.1800 c3        1 YLP      0.104100
     22 O4'        -3.9230   -5.7190    3.2180 os        1 YLP     -0.419600
     23 C5'        -2.1680   -4.1720    2.7040 c3        1 YLP      0.178400
     24 O5'        -1.2720   -3.9580    1.6380 os        1 YLP     -0.590200
     25 OAD         9.1760    0.7810    2.2790 o         1 YLP     -0.387100
     26 OAF        -0.9110   -2.8460   -0.4750 oh        1 YLP     -0.738400
     27 OAI        -2.1270   -1.5700    1.5280 o         1 YLP     -0.805300
     28 CAM         4.7800    1.3330    2.2130 c3        1 YLP     -0.106400
     29 CAN         3.8010    0.3280    1.6360 c3        1 YLP     -0.080400
     30 CAO         6.1000    0.6340    2.5140 c3        1 YLP      0.105800
     31 NAW         7.1380    1.5660    3.0510 n4        1 YLP     -0.692800
     32 OAY         0.4160   -2.1180    1.4360 os        1 YLP     -0.638500
     33 CBA         8.4650    0.8410    3.2650 c         1 YLP      0.547100
     34 CBF         9.9490   -0.5190    4.7050 c3        1 YLP     -0.108100
     35 CBK         8.7010    0.3290    4.6550 c3        1 YLP     -0.142400
     36 PBN        -1.1030   -2.4760    1.0460 p5        1 YLP      1.712500
     37 HN         -0.5180   -3.6940   -0.6820 ho        1 YLP      0.502000
     38 HNA         0.5390    0.9790   -0.7800 hn        1 YLP      0.383800
     39 HN6        -8.0680   -5.9660    8.9920 hn        1 YLP      0.479133
     40 HN6A       -6.9270   -7.1800    9.1700 hn        1 YLP      0.479133
     41 HA          1.9920   -0.6340   -0.0310 h1        1 YLP      0.093700
     42 HB          2.0540    1.4370    2.2800 hc        1 YLP      0.066700
     43 HBA         2.6350    1.8330    0.6070 hc        1 YLP      0.066700
     44 H1'        -5.7470   -6.5980    2.7230 h2        1 YLP      0.121700
     45 H2'        -6.2200   -3.6110    3.2880 h1        1 YLP      0.103700
     46 HO2'       -6.5690   -5.0870    0.9120 ho        1 YLP      0.432000
     47 H3'        -4.3350   -2.8060    2.1300 h1        1 YLP      0.105700
     48 HO3'       -5.2630   -3.1610    0.1530 ho        1 YLP      0.437000
     49 H4'        -3.1960   -5.4930    1.2920 h1        1 YLP      0.109700
     50 H5'        -1.6560   -4.8730    3.4220 h1        1 YLP      0.073700
     51 H5'A       -2.3990   -3.1930    3.2060 h1        1 YLP      0.073700
     52 HAM         4.3490    1.7780    3.1490 hc        1 YLP      0.070200
     53 HAMA        4.9370    2.1660    1.4770 hc        1 YLP      0.070200
     54 HAN         3.6360   -0.5090    2.3680 hc        1 YLP      0.064700
     55 HANA        4.2240   -0.1170    0.6960 hc        1 YLP      0.064700
     56 HAO         6.5160    0.1720    1.5720 hx        1 YLP      0.109700
     57 HAOA        5.9390   -0.1800    3.2780 hx        1 YLP      0.109700
     58 HNAW        6.8140    1.9690    3.9340 hn        1 YLP      0.457300
     59 HBF        10.1200   -0.8560    5.7580 hc        1 YLP      0.078033
     60 HBFA        9.8470   -1.4210    4.0530 hc        1 YLP      0.078033
     61 HBFB       10.8420    0.0620    4.3660 hc        1 YLP      0.078033
     62 HBK         7.8110   -0.2700    4.9930 hc        1 YLP      0.100700
     63 HBKA        8.8100    1.2120    5.3460 hc        1 YLP      0.100700
     64 H8         -4.3070   -4.5310    5.6940 h5        1 YLP      0.106800
     65 HN3        -0.1240    1.2870    0.6920 hn        1 YLP      0.383800
     66 H63        -8.5660   -7.5590    9.1910 hn        1 YLP      0.479133
     67 HAW2        7.2740    2.3290    2.3750 hn        1 YLP      0.457300
     68 H2         -9.3250   -8.7000    4.8560 h5        1 YLP      0.105100
@<TRIPOS>BOND
     1    1    3 2   
     2    1   14 1   
     3    1   32 1   
     4    2   14 1   
     5    2   38 1   
     6    2   65 1   
     7    4    5 ar  
     8    4    9 ar  
     9    5    6 ar  
    10    5   68 1   
    11    6    7 ar  
    12    7    8 ar  
    13    7   13 1   
    14    8    9 ar  
    15    8   11 1   
    16    9   10 1   
    17   10   39 1   
    18   10   40 1   
    19   10   66 1   
    20   11   12 2   
    21   12   13 1   
    22   12   64 1   
    23   13   16 1   
    24   14   15 1   
    25   14   41 1   
    26   15   29 1   
    27   15   42 1   
    28   15   43 1   
    29   16   17 1   
    30   16   22 1   
    31   16   44 1   
    32   17   18 1   
    33   17   19 1   
    34   17   45 1   
    35   18   46 1   
    36   19   20 1   
    37   19   21 1   
    38   19   47 1   
    39   20   48 1   
    40   21   22 1   
    41   21   23 1   
    42   21   49 1   
    43   23   24 1   
    44   23   50 1   
    45   23   51 1   
    46   24   36 1   
    47   25   33 2   
    48   26   36 1   
    49   26   37 1   
    50   27   36 2   
    51   28   29 1   
    52   28   30 1   
    53   28   52 1   
    54   28   53 1   
    55   29   54 1   
    56   29   55 1   
    57   30   31 1   
    58   30   56 1   
    59   30   57 1   
    60   31   33 1   
    61   31   58 1   
    62   31   67 1   
    63   32   36 1   
    64   33   35 1   
    65   34   35 1   
    66   34   59 1   
    67   34   60 1   
    68   34   61 1   
    69   35   62 1   
    70   35   63 1   
@<TRIPOS>SUBSTRUCTURE
     1 YLP         1 TEMP              0 ****  ****    0 ROOT
