@<TRIPOS>MOLECULE
YLP
   67    69     1     0     0
SMALL
bcc


@<TRIPOS>ATOM
      1 C          -0.5460    0.6680    1.7100 c         1 YLP      0.726100
      2 N           0.7820   -0.7120    0.2050 n8        1 YLP     -0.919800
      3 O          -0.6180    1.8900    1.6580 o         1 YLP     -0.471000
      4 N1         -5.2790   -7.3870    7.6400 nb        1 YLP     -0.789000
      5 C2         -4.9870   -8.0820    6.5110 ca        1 YLP      0.691900
      6 N3         -4.9250   -7.6680    5.2210 nb        1 YLP     -0.737000
      7 C4         -5.2030   -6.3390    5.0830 ca        1 YLP      0.472800
      8 C5         -5.5330   -5.4610    6.1990 ca        1 YLP     -0.239200
      9 C6         -5.5570   -6.0440    7.5100 ca        1 YLP      0.760200
     10 N6         -5.8170   -5.2680    8.6100 nv        1 YLP     -0.949500
     11 N7         -5.7760   -4.1590    5.7310 nc        1 YLP     -0.529100
     12 C8         -5.6070   -4.2260    4.4060 cd        1 YLP      0.395700
     13 N9         -5.2870   -5.5300    3.9340 na        1 YLP     -0.294000
     14 CA          0.7350   -0.1610    1.5400 c3        1 YLP      0.099500
     15 CB          1.9120    0.7360    1.9590 c3        1 YLP     -0.122400
     16 C1'        -4.8670   -5.9150    2.6120 c3        1 YLP      0.218800
     17 C2'        -5.7260   -5.2730    1.4750 c3        1 YLP      0.080100
     18 O2'        -5.9100   -6.2320    0.4540 oh        1 YLP     -0.589800
     19 C3'        -4.8410   -4.1390    0.9080 c3        1 YLP      0.115100
     20 O3'        -4.8160   -4.0810   -0.4940 oh        1 YLP     -0.577800
     21 C4'        -3.4330   -4.3990    1.4900 c3        1 YLP      0.072100
     22 O4'        -3.5030   -5.5340    2.3580 os        1 YLP     -0.404600
     23 C5'        -2.8620   -3.2260    2.2950 c3        1 YLP      0.160400
     24 O5'        -2.1760   -2.3430    1.4330 os        1 YLP     -0.605200
     25 OAD         8.6620   -0.0830    2.7380 o         1 YLP     -0.390100
     26 OAF        -2.2580   -0.5680   -0.2250 oh        1 YLP     -0.762400
     27 OAI        -4.1140   -0.6920    1.6750 o         1 YLP     -0.774300
     28 CAM         4.2810    0.8320    2.6920 c3        1 YLP     -0.109400
     29 CAN         3.1840   -0.0620    2.1440 c3        1 YLP     -0.077400
     30 CAO         5.5380    0.0040    2.9320 c3        1 YLP      0.105800
     31 NAW         6.6640    0.8180    3.4840 ny        1 YLP     -0.691800
     32 OAY        -1.6500   -0.0120    2.0880 os        1 YLP     -0.618500
     33 CBA         7.9080   -0.0400    3.6930 c         1 YLP      0.546100
     34 CBF         9.1730   -1.6690    5.0620 c3        1 YLP     -0.108100
     35 CBK         8.0300   -0.6830    5.0430 c3        1 YLP     -0.143400
     36 PBN        -2.7420   -0.8570    1.2510 p5        1 YLP      1.704500
     37 HN          0.8410    0.0050   -0.4900 hn        1 YLP      0.371300
     38 HNA         1.5440   -1.3500    0.1080 hn        1 YLP      0.371300
     39 HN6        -6.1490   -4.3460    8.4640 hn        1 YLP      0.447300
     40 HN6A       -5.9480   -5.6910    9.4960 hn        1 YLP      0.447300
     41 HA          0.6730   -1.0300    2.2640 h1        1 YLP      0.093700
     42 HB          1.6370    1.2420    2.9240 hc        1 YLP      0.073200
     43 HBA         2.0630    1.5450    1.1970 hc        1 YLP      0.073200
     44 H1'        -4.8650   -7.0450    2.5470 h2        1 YLP      0.134700
     45 H2'        -6.7070   -4.8770    1.8410 h1        1 YLP      0.081700
     46 HO2'       -6.7140   -6.7250    0.6630 ho        1 YLP      0.429000
     47 H3'        -5.2500   -3.1390    1.2290 h1        1 YLP      0.109700
     48 HO3'       -4.7080   -4.9810   -0.8370 ho        1 YLP      0.429000
     49 H4'        -2.7120   -4.6790    0.6730 h1        1 YLP      0.094700
     50 H5'        -3.6720   -2.6710    2.8440 h1        1 YLP      0.069200
     51 H5'A       -2.1070   -3.6310    3.0270 h1        1 YLP      0.069200
     52 HAM         3.9330    1.3020    3.6510 hc        1 YLP      0.072700
     53 HAMA        4.4870    1.6580    1.9610 hc        1 YLP      0.072700
     54 HAN         2.9980   -0.9130    2.8520 hc        1 YLP      0.055200
     55 HANA        3.5100   -0.5020    1.1650 hc        1 YLP      0.055200
     56 HAO         5.8930   -0.4510    1.9620 hx        1 YLP      0.108200
     57 HAOA        5.3200   -0.8250    3.6640 hx        1 YLP      0.108200
     58 HNAW        6.3780    1.2380    4.3740 hn        1 YLP      0.458300
     59 HBF        10.1370   -1.1690    4.7960 hc        1 YLP      0.077367
     60 HBFA        8.9960   -2.5020    4.3390 hc        1 YLP      0.077367
     61 HBFB        9.2660   -2.1010    6.0900 hc        1 YLP      0.077367
     62 HBK         8.2090    0.1270    5.8060 hc        1 YLP      0.101200
     63 HBKA        7.0670   -1.2020    5.3060 hc        1 YLP      0.101200
     64 H8         -5.7260   -3.3850    3.7100 h5        1 YLP      0.076800
     65 HN3        -1.7180   -1.2300   -0.6580 ho        1 YLP      0.505000
     66 HAW2        6.8790    1.5750    2.8210 hn        1 YLP      0.458300
     67 H2         -4.7690   -9.1600    6.6730 h5        1 YLP      0.056100
@<TRIPOS>BOND
     1    1    3 2   
     2    1   14 1   
     3    1   32 1   
     4    2   14 1   
     5    2   37 1   
     6    2   38 1   
     7    4    5 ar  
     8    4    9 ar  
     9    5    6 ar  
    10    5   67 1   
    11    6    7 ar  
    12    7    8 ar  
    13    7   13 1   
    14    8    9 ar  
    15    8   11 1   
    16    9   10 1   
    17   10   39 1   
    18   10   40 1   
    19   11   12 2   
    20   12   13 1   
    21   12   64 1   
    22   13   16 1   
    23   14   15 1   
    24   14   41 1   
    25   15   29 1   
    26   15   42 1   
    27   15   43 1   
    28   16   17 1   
    29   16   22 1   
    30   16   44 1   
    31   17   18 1   
    32   17   19 1   
    33   17   45 1   
    34   18   46 1   
    35   19   20 1   
    36   19   21 1   
    37   19   47 1   
    38   20   48 1   
    39   21   22 1   
    40   21   23 1   
    41   21   49 1   
    42   23   24 1   
    43   23   50 1   
    44   23   51 1   
    45   24   36 1   
    46   25   33 2   
    47   26   36 1   
    48   26   65 1   
    49   27   36 2   
    50   28   29 1   
    51   28   30 1   
    52   28   52 1   
    53   28   53 1   
    54   29   54 1   
    55   29   55 1   
    56   30   31 1   
    57   30   56 1   
    58   30   57 1   
    59   31   33 1   
    60   31   58 1   
    61   31   66 1   
    62   32   36 1   
    63   33   35 1   
    64   34   35 1   
    65   34   59 1   
    66   34   60 1   
    67   34   61 1   
    68   35   62 1   
    69   35   63 1   
@<TRIPOS>SUBSTRUCTURE
     1 YLP         1 TEMP              0 ****  ****    0 ROOT
