@<TRIPOS>MOLECULE
YLQ
   44    46     1     0     0
SMALL
bcc


@<TRIPOS>ATOM
      1 C01         7.0990    2.3810    1.5700 c3        1 YLQ     -0.044800
      2 C02         5.9410    1.7330    0.9130 ca        1 YLQ     -0.119300
      3 C03         6.0230    1.3320   -0.4270 ca        1 YLQ     -0.098000
      4 C04         4.9390    0.7390   -1.0610 ca        1 YLQ     -0.176500
      5 C05         3.7450    0.5400   -0.3410 ca        1 YLQ      0.130100
      6 O06         2.7320   -0.0620   -1.0600 os        1 YLQ     -0.335900
      7 C07         1.4960   -0.2480   -0.3580 c3        1 YLQ      0.095400
      8 C08         0.5420   -0.8400   -1.4150 c3        1 YLQ      0.045300
      9 N09        -0.6160   -1.4740   -0.8730 na        1 YLQ     -0.168300
     10 C10        -1.7860   -0.8070   -0.3920 cc        1 YLQ      0.434700
     11 S11        -2.0360    0.8270   -0.7410 ss        1 YLQ     -0.207300
     12 C12        -3.5660    1.3130    0.0510 c3        1 YLQ      0.047700
     13 C13        -3.7730    2.7080   -0.4540 c3        1 YLQ     -0.218400
     14 C14        -4.6190    3.5470    0.5430 c         1 YLQ      0.922600
     15 O15        -4.4110    3.3920    1.7780 o         1 YLQ     -0.829300
     16 O16        -5.4490    4.3520    0.0410 o         1 YLQ     -0.829300
     17 N17        -2.6040   -1.6370    0.2930 nd        1 YLQ     -0.590100
     18 C18        -1.9560   -2.8870    0.3180 ca        1 YLQ      0.093400
     19 C19        -2.3360   -4.1110    0.8800 ca        1 YLQ     -0.086000
     20 C20        -1.4780   -5.1950    0.7430 ca        1 YLQ     -0.156000
     21 C21        -0.2580   -5.0920    0.0590 ca        1 YLQ     -0.136000
     22 C22         0.1550   -3.8960   -0.5190 ca        1 YLQ     -0.134000
     23 C23        -0.6890   -2.7920   -0.3900 ca        1 YLQ     -0.080200
     24 C24         3.6490    0.9320    1.0000 ca        1 YLQ     -0.176500
     25 C25         4.7500    1.5270    1.6140 ca        1 YLQ     -0.098000
     26 H011        7.0820    3.4830    1.3750 hc        1 YLQ      0.038033
     27 H012        7.0740    2.2220    2.6760 hc        1 YLQ      0.038033
     28 H013        8.0620    1.9720    1.1760 hc        1 YLQ      0.038033
     29 H03         6.9570    1.4910   -0.9860 ha        1 YLQ      0.129500
     30 H25         4.6740    1.8390    2.6670 ha        1 YLQ      0.129500
     31 H04         4.9940    0.4250   -2.1120 ha        1 YLQ      0.145500
     32 H24         2.7220    0.7850    1.5710 ha        1 YLQ      0.145500
     33 H071        1.6600   -0.9530    0.4990 h1        1 YLQ      0.059700
     34 H072        1.1140    0.7360    0.0190 h1        1 YLQ      0.059700
     35 H081        0.2030   -0.0060   -2.0950 h1        1 YLQ      0.077200
     36 H082        1.1100   -1.5980   -2.0270 h1        1 YLQ      0.077200
     37 H121       -4.3970    0.6290   -0.2290 h1        1 YLQ      0.090200
     38 H122       -3.4490    1.3070    1.1630 h1        1 YLQ      0.090200
     39 H131       -2.7920    3.2410   -0.5650 hc        1 YLQ      0.041700
     40 H132       -4.2840    2.7050   -1.4480 hc        1 YLQ      0.041700
     41 H19        -3.2910   -4.2020    1.4150 ha        1 YLQ      0.143000
     42 H20        -1.7610   -6.1630    1.1830 ha        1 YLQ      0.120000
     43 H21         0.3880   -5.9780   -0.0230 ha        1 YLQ      0.119000
     44 H22         1.1100   -3.8240   -1.0560 ha        1 YLQ      0.129000
@<TRIPOS>BOND
     1    1    2 1   
     2    1   26 1   
     3    1   27 1   
     4    1   28 1   
     5    2    3 ar  
     6    2   25 ar  
     7    3    4 ar  
     8    3   29 1   
     9    4    5 ar  
    10    4   31 1   
    11    5    6 1   
    12    5   24 ar  
    13    6    7 1   
    14    7    8 1   
    15    7   33 1   
    16    7   34 1   
    17    8    9 1   
    18    8   35 1   
    19    8   36 1   
    20    9   10 1   
    21    9   23 1   
    22   10   11 1   
    23   10   17 2   
    24   11   12 1   
    25   12   13 1   
    26   12   37 1   
    27   12   38 1   
    28   13   14 1   
    29   13   39 1   
    30   13   40 1   
    31   14   15 1   
    32   14   16 1   
    33   17   18 1   
    34   18   19 ar  
    35   18   23 ar  
    36   19   20 ar  
    37   19   41 1   
    38   20   21 ar  
    39   20   42 1   
    40   21   22 ar  
    41   21   43 1   
    42   22   23 ar  
    43   22   44 1   
    44   24   25 ar  
    45   24   32 1   
    46   25   30 1   
@<TRIPOS>SUBSTRUCTURE
     1 YLQ         1 TEMP              0 ****  ****    0 ROOT
