@<TRIPOS>MOLECULE
YLQ
   44    40     1     0     0
SMALL
bcc


@<TRIPOS>ATOM
      1 C01        -6.7430   -1.5910    2.1660 c3        1 YLQ     -0.169000
      2 C02        -5.2480   -1.3690    2.1220 c2        1 YLQ     -0.113000
      3 C03        -4.3930   -2.4430    1.9290 c1        1 YLQ     -0.101000
      4 C04        -3.0250   -2.2360    1.8610 c1        1 YLQ     -0.156000
      5 C05        -2.5100   -0.9550    1.9860 c1        1 YLQ      0.087000
      6 O06        -1.1200   -0.7540    1.9890 o         1 YLQ     -0.218000
      7 C07        -0.5770   -0.5090    0.7130 c3        1 YLQ     -0.047000
      8 C08         0.9110   -0.2690    0.8370 c3        1 YLQ     -0.011000
      9 N09         1.4860   -0.1800   -0.4610 n3        1 YLQ     -0.199000
     10 C10         1.8370    0.9840   -1.0680 c1        1 YLQ     -0.114000
     11 S11         1.8450    2.6840   -0.5640 s         1 YLQ      0.181000
     12 C12         3.3410    3.4590   -1.1190 c3        1 YLQ     -0.209000
     13 C13         3.5150    4.7860   -0.4120 c3        1 YLQ     -0.247000
     14 C14         4.9100    5.3130   -0.6650 c2        1 YLQ      0.342000
     15 O15         5.1390    6.0310   -1.6740 o         1 YLQ     -0.564000
     16 O16         5.8380    5.0540    0.1470 o         1 YLQ     -0.564000
     17 N17         2.3780    0.6810   -2.2780 n2        1 YLQ     -0.162000
     18 C18         2.3620   -0.6670   -2.4190 c1        1 YLQ     -0.051000
     19 C19         2.8020   -1.5130   -3.4560 c1        1 YLQ     -0.127500
     20 C20         2.6730   -2.8870   -3.3320 c1        1 YLQ     -0.127500
     21 C21         2.1120   -3.4290   -2.1870 c1        1 YLQ     -0.127500
     22 C22         1.6790   -2.5980   -1.1660 c1        1 YLQ     -0.127500
     23 C23         1.8090   -1.2020   -1.2920 c1        1 YLQ     -0.024000
     24 C24        -3.3650    0.1190    2.1800 c2        1 YLQ     -0.200000
     25 C25        -4.7340   -0.0880    2.2480 c2        1 YLQ     -0.094000
     26 H011       -7.1080   -1.5360    1.2580 hc        1 YLQ      0.077333
     27 H012       -7.1590   -0.9040    2.7270 hc        1 YLQ      0.077333
     28 H013       -6.9310   -2.4770    2.5410 hc        1 YLQ      0.077333
     29 H03        -4.7550   -3.3450    1.8410 ha        1 YLQ      0.128000
     30 H25        -5.3340    0.6660    2.4000 ha        1 YLQ      0.129000
     31 H04        -2.4230   -2.9920    1.7240 ha        1 YLQ      0.146000
     32 H24        -3.0020    1.0190    2.2830 ha        1 YLQ      0.142000
     33 H071       -0.7360   -1.2850    0.1360 h1        1 YLQ      0.095500
     34 H072       -1.0040    0.2810    0.3220 h1        1 YLQ      0.095500
     35 H081        1.0670    0.5690    1.3210 h1        1 YLQ      0.120000
     36 H082        1.3220   -1.0110    1.3270 h1        1 YLQ      0.120000
     37 H121        4.1030    2.8790   -0.9170 h1        1 YLQ      0.129500
     38 H122        3.2920    3.6080   -2.0850 h1        1 YLQ      0.129500
     39 H131        2.8580    5.4260   -0.7530 hc        1 YLQ      0.080500
     40 H132        3.3810    4.6640    0.5490 hc        1 YLQ      0.080500
     41 H19         3.1970   -1.1310   -4.2620 ha        1 YLQ      0.129000
     42 H20         2.9780   -3.4730   -4.0510 ha        1 YLQ      0.129000
     43 H21         2.0310   -4.3980   -2.0950 ha        1 YLQ      0.129000
     44 H22         1.3020   -2.9810   -0.3510 ha        1 YLQ      0.129000
@<TRIPOS>BOND
     1    1    2 1   
     2    1   26 1   
     3    1   27 1   
     4    1   28 1   
     5    2    3 1   
     6    2   25 1   
     7    3   29 1   
     8    4    5 1   
     9    4   31 1   
    10    5   24 1   
    11    6    7 1   
    12    7    8 1   
    13    7   33 1   
    14    7   34 1   
    15    8    9 1   
    16    8   35 1   
    17    8   36 1   
    18    9   10 1   
    19    9   23 1   
    20   10   17 1   
    21   11   12 1   
    22   12   13 1   
    23   12   37 1   
    24   12   38 1   
    25   13   14 1   
    26   13   39 1   
    27   13   40 1   
    28   14   15 1   
    29   14   16 1   
    30   17   18 1   
    31   18   23 1   
    32   19   20 1   
    33   19   41 1   
    34   20   42 1   
    35   21   22 1   
    36   21   43 1   
    37   22   44 1   
    38   24   25 1   
    39   24   32 1   
    40   25   30 1   
@<TRIPOS>SUBSTRUCTURE
     1 YLQ         1 TEMP              0 ****  ****    0 ROOT
