@<TRIPOS>MOLECULE
YLQ
   44    46     1     0     0
SMALL
bcc


@<TRIPOS>ATOM
      1 C01         0.0300    0.1240    0.0690 c3        1 YLQ     -0.043800
      2 C02         1.5050    0.0890   -0.0530 ca        1 YLQ     -0.119300
      3 C03         2.2980   -0.2150    1.0620 ca        1 YLQ     -0.098000
      4 C04         3.6820   -0.2630    0.9610 ca        1 YLQ     -0.177000
      5 C05         4.2900   -0.0020   -0.2820 ca        1 YLQ      0.130100
      6 O06         5.6680   -0.0810   -0.2760 os        1 YLQ     -0.335900
      7 C07         6.3130    0.2050   -1.5240 c3        1 YLQ      0.095400
      8 C08         7.8190    0.1290   -1.2030 c3        1 YLQ      0.045300
      9 N09         8.6590   -0.0210   -2.3460 na        1 YLQ     -0.168300
     10 C10         9.0470    1.0260   -3.2400 cc        1 YLQ      0.434700
     11 S11         8.8030    2.6420   -2.8130 ss        1 YLQ     -0.207300
     12 C12         9.3730    3.6470   -4.1800 c3        1 YLQ      0.047700
     13 C13         9.2680    5.0390   -3.6370 c3        1 YLQ     -0.218400
     14 C14         9.0770    6.0750   -4.7790 c         1 YLQ      0.922600
     15 O15         8.3310    5.7630   -5.7470 o         1 YLQ     -0.829300
     16 O16         9.6700    7.1780   -4.6440 o         1 YLQ     -0.829300
     17 N17         9.6270    0.5500   -4.3650 nd        1 YLQ     -0.590100
     18 C18         9.5920   -0.8530   -4.2560 ca        1 YLQ      0.093400
     19 C19        10.0510   -1.8560   -5.1170 ca        1 YLQ     -0.086000
     20 C20         9.8780   -3.1820   -4.7390 ca        1 YLQ     -0.156000
     21 C21         9.2670   -3.5310   -3.5260 ca        1 YLQ     -0.136000
     22 C22         8.8020   -2.5670   -2.6390 ca        1 YLQ     -0.134000
     23 C23         8.9600   -1.2280   -3.0000 ca        1 YLQ     -0.080200
     24 C24         3.5120    0.3030   -1.4050 ca        1 YLQ     -0.177000
     25 C25         2.1240    0.3470   -1.2790 ca        1 YLQ     -0.098000
     26 H011       -0.2770    0.5340    1.0630 hc        1 YLQ      0.038367
     27 H012       -0.4250    0.7600   -0.7300 hc        1 YLQ      0.038367
     28 H013       -0.3880   -0.9100   -0.0270 hc        1 YLQ      0.038367
     29 H03         1.8170   -0.4150    2.0310 ha        1 YLQ      0.129500
     30 H25         1.5120    0.5930   -2.1600 ha        1 YLQ      0.129500
     31 H04         4.3100   -0.4960    1.8310 ha        1 YLQ      0.146000
     32 H24         3.9760    0.5140   -2.3790 ha        1 YLQ      0.146000
     33 H071        6.0080   -0.5620   -2.2830 h1        1 YLQ      0.059700
     34 H072        6.0320    1.2310   -1.8780 h1        1 YLQ      0.059700
     35 H081        7.9950   -0.7480   -0.5150 h1        1 YLQ      0.077200
     36 H082        8.1170    1.0760   -0.6660 h1        1 YLQ      0.077200
     37 H121        8.7040    3.5160   -5.0670 h1        1 YLQ      0.090200
     38 H122       10.4130    3.3780   -4.4690 h1        1 YLQ      0.090200
     39 H131        8.3740    5.1370   -2.9650 hc        1 YLQ      0.041700
     40 H132       10.1790    5.3120   -3.0500 hc        1 YLQ      0.041700
     41 H19        10.5340   -1.5920   -6.0680 ha        1 YLQ      0.144000
     42 H20        10.2300   -3.9820   -5.4070 ha        1 YLQ      0.120000
     43 H21         9.1520   -4.5950   -3.2700 ha        1 YLQ      0.119000
     44 H22         8.3270   -2.8480   -1.6900 ha        1 YLQ      0.129000
@<TRIPOS>BOND
     1    1    2 1   
     2    1   26 1   
     3    1   27 1   
     4    1   28 1   
     5    2    3 ar  
     6    2   25 ar  
     7    3    4 ar  
     8    3   29 1   
     9    4    5 ar  
    10    4   31 1   
    11    5    6 1   
    12    5   24 ar  
    13    6    7 1   
    14    7    8 1   
    15    7   33 1   
    16    7   34 1   
    17    8    9 1   
    18    8   35 1   
    19    8   36 1   
    20    9   10 1   
    21    9   23 1   
    22   10   11 1   
    23   10   17 2   
    24   11   12 1   
    25   12   13 1   
    26   12   37 1   
    27   12   38 1   
    28   13   14 1   
    29   13   39 1   
    30   13   40 1   
    31   14   15 1   
    32   14   16 1   
    33   17   18 1   
    34   18   19 ar  
    35   18   23 ar  
    36   19   20 ar  
    37   19   41 1   
    38   20   21 ar  
    39   20   42 1   
    40   21   22 ar  
    41   21   43 1   
    42   22   23 ar  
    43   22   44 1   
    44   24   25 ar  
    45   24   32 1   
    46   25   30 1   
@<TRIPOS>SUBSTRUCTURE
     1 YLQ         1 TEMP              0 ****  ****    0 ROOT
