@<TRIPOS>MOLECULE
YM2
   60    62     1     0     0
SMALL
bcc


@<TRIPOS>ATOM
      1 CAA        -0.0410   -0.9110    1.0270 c3        1 YM2     -0.105100
      2 CAM         1.3640   -0.7470    0.5000 c3        1 YM2      0.146400
      3 OAV         2.1940   -0.5890    1.6880 os        1 YM2     -0.200300
      4 NAT         3.4800   -0.4310    1.4170 n2        1 YM2     -0.437200
      5 CAD         4.2350   -0.2920    2.4740 ce        1 YM2      0.406800
      6 CAY         5.6850   -0.1050    2.3940 ca        1 YM2     -0.166900
      7 CAJ         6.3970    0.0530    3.5960 ca        1 YM2     -0.070000
      8 CAL         7.7710    0.2340    3.5900 ca        1 YM2     -0.189000
      9 CAI         6.3800   -0.0790    1.1800 ca        1 YM2     -0.070000
     10 CAK         7.7620    0.1020    1.1550 ca        1 YM2     -0.189000
     11 CAZ         8.4580    0.2580    2.3580 ca        1 YM2      0.140100
     12 OAW         9.8200    0.4440    2.4640 os        1 YM2     -0.330900
     13 CAN        10.5470    0.4750    1.2280 c3        1 YM2      0.129400
     14 CAO        12.0010    0.6820    1.6170 c3        1 YM2     -0.085400
     15 CBB        12.8920    0.7610    0.3840 c3        1 YM2     -0.059700
     16 CAB        12.7860    2.1240   -0.2690 c3        1 YM2     -0.096100
     17 CAP        14.3280    0.4510    0.7830 c3        1 YM2     -0.112400
     18 CAQ        15.2280    0.3210   -0.4470 c3        1 YM2      0.074000
     19 NBC        16.5760   -0.1370   -0.2200 n         1 YM2     -0.417800
     20 CAX        16.7770   -1.5120    0.1380 c         1 YM2      0.781500
     21 OAC        16.1000   -2.4540   -0.3060 o         1 YM2     -0.612500
     22 CAR        17.4820    0.6930    0.5700 c3        1 YM2      0.041000
     23 CAS        18.4130   -0.2990    1.3310 c3        1 YM2      0.065000
     24 NBD        17.8680   -1.6260    1.0540 n         1 YM2     -0.374000
     25 CBA        18.6400   -2.7750    1.2590 ca        1 YM2      0.118600
     26 CAG        18.2550   -4.0450    0.7690 ca        1 YM2     -0.290300
     27 CAE        19.0610   -5.1530    1.0650 ca        1 YM2      0.414700
     28 NAU        20.1940   -5.0970    1.7920 nb        1 YM2     -0.683000
     29 CAF        20.5540   -3.8860    2.2560 ca        1 YM2      0.414700
     30 CAH        19.8310   -2.7070    2.0260 ca        1 YM2     -0.290300
     31 HAA1       -0.3460   -0.0130    1.6160 hc        1 YM2      0.048700
     32 HAA2       -0.7400   -1.0390    0.1660 hc        1 YM2      0.048700
     33 HAA3       -0.1090   -1.8060    1.6900 hc        1 YM2      0.048700
     34 HAM1        1.4580    0.1640   -0.1460 h1        1 YM2      0.045700
     35 HAM2        1.6980   -1.6510   -0.0710 h1        1 YM2      0.045700
     36 HAD1        3.8190   -0.3070    3.5050 h4        1 YM2      0.000800
     37 HAJ         5.8590    0.0330    4.5570 ha        1 YM2      0.143000
     38 HAI         5.8410   -0.2010    0.2280 ha        1 YM2      0.143000
     39 HAL         8.3360    0.3570    4.5240 ha        1 YM2      0.145000
     40 HAK         8.2860    0.1180    0.1890 ha        1 YM2      0.145000
     41 HAN1       10.4070   -0.4970    0.6870 h1        1 YM2      0.042200
     42 HAN2       10.1670    1.3190    0.5940 h1        1 YM2      0.042200
     43 HAO1       12.3200   -0.1710    2.2710 hc        1 YM2      0.059700
     44 HAO2       12.0960    1.6200    2.2220 hc        1 YM2      0.059700
     45 HBB        12.5540   -0.0200   -0.3550 hc        1 YM2      0.055700
     46 HAB1       11.7170    2.3790   -0.4690 hc        1 YM2      0.037367
     47 HAB2       13.3340    2.1360   -1.2420 hc        1 YM2      0.037367
     48 HAB3       13.2180    2.9130    0.3920 hc        1 YM2      0.037367
     49 HAP1       14.7080    1.2590    1.4600 hc        1 YM2      0.050700
     50 HAP2       14.3480   -0.5130    1.3590 hc        1 YM2      0.050700
     51 HAQ1       15.3140    1.3250   -0.9530 h1        1 YM2      0.072200
     52 HAQ2       14.7560   -0.4070   -1.1690 h1        1 YM2      0.072200
     53 HAR1       18.0760    1.3360   -0.1310 h1        1 YM2      0.061700
     54 HAR2       16.9370    1.3530    1.2950 h1        1 YM2      0.061700
     55 HAS1       18.3870   -0.1100    2.4360 h1        1 YM2      0.062700
     56 HAS2       19.4700   -0.2030    0.9660 h1        1 YM2      0.062700
     57 HAG        17.3420   -4.1780    0.1690 ha        1 YM2      0.160500
     58 HAH        20.1940   -1.7620    2.4500 ha        1 YM2      0.160500
     59 HAE        18.7790   -6.1560    0.6930 h4        1 YM2      0.023100
     60 HAF        21.4840   -3.8570    2.8530 h4        1 YM2      0.023100
@<TRIPOS>BOND
     1    1    2 1   
     2    1   31 1   
     3    1   32 1   
     4    1   33 1   
     5    2    3 1   
     6    2   34 1   
     7    2   35 1   
     8    3    4 1   
     9    4    5 2   
    10    5    6 1   
    11    5   36 1   
    12    6    7 ar  
    13    6    9 ar  
    14    7    8 ar  
    15    7   37 1   
    16    8   11 ar  
    17    8   39 1   
    18    9   10 ar  
    19    9   38 1   
    20   10   11 ar  
    21   10   40 1   
    22   11   12 1   
    23   12   13 1   
    24   13   14 1   
    25   13   41 1   
    26   13   42 1   
    27   14   15 1   
    28   14   43 1   
    29   14   44 1   
    30   15   16 1   
    31   15   17 1   
    32   15   45 1   
    33   16   46 1   
    34   16   47 1   
    35   16   48 1   
    36   17   18 1   
    37   17   49 1   
    38   17   50 1   
    39   18   19 1   
    40   18   51 1   
    41   18   52 1   
    42   19   20 1   
    43   19   22 1   
    44   20   21 2   
    45   20   24 1   
    46   22   23 1   
    47   22   53 1   
    48   22   54 1   
    49   23   24 1   
    50   23   55 1   
    51   23   56 1   
    52   24   25 1   
    53   25   26 ar  
    54   25   30 ar  
    55   26   27 ar  
    56   26   57 1   
    57   27   28 ar  
    58   27   59 1   
    59   28   29 ar  
    60   29   30 ar  
    61   29   60 1   
    62   30   58 1   
@<TRIPOS>SUBSTRUCTURE
     1 YM2         1 TEMP              0 ****  ****    0 ROOT
