@<TRIPOS>MOLECULE
YM2
   60    62     1     0     0
SMALL
bcc


@<TRIPOS>ATOM
      1 CAA        -0.0440   -0.9070    1.0560 c3        1 YM2     -0.105100
      2 CAM         1.3590   -0.7470    0.5240 c3        1 YM2      0.146400
      3 OAV         2.1930   -0.5830    1.7080 os        1 YM2     -0.200300
      4 NAT         3.4780   -0.4280    1.4330 n2        1 YM2     -0.437200
      5 CAD         4.2370   -0.2830    2.4870 ce        1 YM2      0.406800
      6 CAY         5.6860   -0.0980    2.4010 ca        1 YM2     -0.166900
      7 CAJ         6.4020    0.0680    3.6000 ca        1 YM2     -0.070000
      8 CAL         7.7770    0.2480    3.5880 ca        1 YM2     -0.189000
      9 CAI         6.3780   -0.0810    1.1850 ca        1 YM2     -0.070000
     10 CAK         7.7600    0.0980    1.1540 ca        1 YM2     -0.189000
     11 CAZ         8.4590    0.2630    2.3550 ca        1 YM2      0.140100
     12 OAW         9.8220    0.4490    2.4550 os        1 YM2     -0.330900
     13 CAN        10.5450    0.4700    1.2170 c3        1 YM2      0.129400
     14 CAO        12.0000    0.6800    1.6000 c3        1 YM2     -0.085400
     15 CBB        12.8890    0.7480    0.3640 c3        1 YM2     -0.059700
     16 CAB        12.7790    2.1030   -0.3040 c3        1 YM2     -0.096100
     17 CAP        14.3260    0.4430    0.7630 c3        1 YM2     -0.112400
     18 CAQ        15.2210    0.2970   -0.4680 c3        1 YM2      0.074000
     19 NBC        16.5720   -0.1550   -0.2390 n         1 YM2     -0.417800
     20 CAX        16.7760   -1.5240    0.1410 c         1 YM2      0.781500
     21 OAC        16.0990   -2.4750   -0.2860 o         1 YM2     -0.612500
     22 CAR        17.4790    0.6880    0.5340 c3        1 YM2      0.041000
     23 CAS        18.4140   -0.2900    1.3080 c3        1 YM2      0.065000
     24 NBD        17.8710   -1.6210    1.0540 n         1 YM2     -0.374000
     25 CBA        18.6460   -2.7660    1.2750 ca        1 YM2      0.118600
     26 CAG        18.2610   -4.0440    0.8060 ca        1 YM2     -0.290300
     27 CAE        19.0700   -5.1460    1.1180 ca        1 YM2      0.414700
     28 NAU        20.2050   -5.0770    1.8400 nb        1 YM2     -0.683000
     29 CAF        20.5650   -3.8580    2.2830 ca        1 YM2      0.414700
     30 CAH        19.8390   -2.6840    2.0360 ca        1 YM2     -0.290300
     31 HAA1       -0.3470   -0.0070    1.6420 hc        1 YM2      0.048700
     32 HAA2       -0.7460   -1.0390    0.1990 hc        1 YM2      0.048700
     33 HAA3       -0.1110   -1.7990    1.7250 hc        1 YM2      0.048700
     34 HAM1        1.4520    0.1600   -0.1260 h1        1 YM2      0.045700
     35 HAM2        1.6910   -1.6550   -0.0430 h1        1 YM2      0.045700
     36 HAD1        3.8240   -0.2920    3.5190 h4        1 YM2      0.000800
     37 HAJ         5.8670    0.0550    4.5630 ha        1 YM2      0.143000
     38 HAI         5.8360   -0.2100    0.2350 ha        1 YM2      0.143000
     39 HAL         8.3440    0.3770    4.5210 ha        1 YM2      0.145000
     40 HAK         8.2810    0.1070    0.1870 ha        1 YM2      0.145000
     41 HAN1       10.1630    1.3090    0.5770 h1        1 YM2      0.042200
     42 HAN2       10.4030   -0.5060    0.6830 h1        1 YM2      0.042200
     43 HAO1       12.3210   -0.1670    2.2620 hc        1 YM2      0.059700
     44 HAO2       12.0980    1.6240    2.1960 hc        1 YM2      0.059700
     45 HBB        12.5500   -0.0420   -0.3660 hc        1 YM2      0.055700
     46 HAB1       13.3270    2.1050   -1.2770 hc        1 YM2      0.037367
     47 HAB2       11.7100    2.3540   -0.5050 hc        1 YM2      0.037367
     48 HAB3       13.2110    2.9000    0.3490 hc        1 YM2      0.037367
     49 HAP1       14.7080    1.2600    1.4280 hc        1 YM2      0.050700
     50 HAP2       14.3480   -0.5130    1.3520 hc        1 YM2      0.050700
     51 HAQ1       15.3040    1.2930   -0.9890 h1        1 YM2      0.072200
     52 HAQ2       14.7490   -0.4440   -1.1770 h1        1 YM2      0.072200
     53 HAR1       18.0690    1.3220   -0.1790 h1        1 YM2      0.061700
     54 HAR2       16.9350    1.3590    1.2510 h1        1 YM2      0.061700
     55 HAS1       19.4700   -0.1980    0.9380 h1        1 YM2      0.062700
     56 HAS2       18.3920   -0.0830    2.4100 h1        1 YM2      0.062700
     57 HAG        17.3460   -4.1890    0.2120 ha        1 YM2      0.160500
     58 HAH        20.2010   -1.7320    2.4430 ha        1 YM2      0.160500
     59 HAE        18.7880   -6.1550    0.7630 h4        1 YM2      0.023100
     60 HAF        21.4970   -3.8180    2.8750 h4        1 YM2      0.023100
@<TRIPOS>BOND
     1    1    2 1   
     2    1   31 1   
     3    1   32 1   
     4    1   33 1   
     5    2    3 1   
     6    2   34 1   
     7    2   35 1   
     8    3    4 1   
     9    4    5 2   
    10    5    6 1   
    11    5   36 1   
    12    6    7 ar  
    13    6    9 ar  
    14    7    8 ar  
    15    7   37 1   
    16    8   11 ar  
    17    8   39 1   
    18    9   10 ar  
    19    9   38 1   
    20   10   11 ar  
    21   10   40 1   
    22   11   12 1   
    23   12   13 1   
    24   13   14 1   
    25   13   41 1   
    26   13   42 1   
    27   14   15 1   
    28   14   43 1   
    29   14   44 1   
    30   15   16 1   
    31   15   17 1   
    32   15   45 1   
    33   16   46 1   
    34   16   47 1   
    35   16   48 1   
    36   17   18 1   
    37   17   49 1   
    38   17   50 1   
    39   18   19 1   
    40   18   51 1   
    41   18   52 1   
    42   19   20 1   
    43   19   22 1   
    44   20   21 2   
    45   20   24 1   
    46   22   23 1   
    47   22   53 1   
    48   22   54 1   
    49   23   24 1   
    50   23   55 1   
    51   23   56 1   
    52   24   25 1   
    53   25   26 ar  
    54   25   30 ar  
    55   26   27 ar  
    56   26   57 1   
    57   27   28 ar  
    58   27   59 1   
    59   28   29 ar  
    60   29   30 ar  
    61   29   60 1   
    62   30   58 1   
@<TRIPOS>SUBSTRUCTURE
     1 YM2         1 TEMP              0 ****  ****    0 ROOT
