@<TRIPOS>MOLECULE
YM3
   42    44     1     0     0
SMALL
bcc


@<TRIPOS>ATOM
      1 CAC         0.2830    0.4090    0.1240 c3        1 YM3     -0.106100
      2 CAB         1.7830    0.5120   -0.0040 c3        1 YM3      0.147400
      3 CAQ         3.6640    0.3560    1.4710 c         1 YM3      0.693700
      4 CAR         4.1050    0.1380    2.8510 ca        1 YM3     -0.314900
      5 CAG         3.0900    0.1810    3.8640 ca        1 YM3      0.496200
      6 NAN         3.2630   -0.0490    5.1600 nb        1 YM3     -0.656000
      7 CAU         4.5510   -0.3540    5.5110 ca        1 YM3      0.465800
      8 NAO         5.0810   -0.6440    6.7750 na        1 YM3     -0.095800
      9 NAM         6.3960   -0.8790    6.7130 nc        1 YM3     -0.477100
     10 CAH         6.8010   -0.7540    5.4340 cd        1 YM3      0.355800
     11 CAT         5.6740   -0.4150    4.5800 ca        1 YM3     -0.382200
     12 CAS         5.4430   -0.1500    3.2130 ca        1 YM3      0.297600
     13 NAV         6.4660   -0.2310    2.2440 nh        1 YM3     -0.666000
     14 CAL         6.9210    1.0220    1.6650 c3        1 YM3      0.175800
     15 CAK         7.5810   -1.1300    2.4870 c3        1 YM3      0.152800
     16 CAJ         8.3070   -1.4270    1.1690 c3        1 YM3      0.119400
     17 OAP         8.7100   -0.2410    0.4800 os        1 YM3     -0.435600
     18 CAW         7.7240    0.7750    0.3730 c3        1 YM3      0.124100
     19 CAI         6.7520    0.4470   -0.7740 c3        1 YM3      0.063800
     20 NAA         7.4770    0.1230   -2.0360 n4        1 YM3     -0.833600
     21 O03         2.3090    0.2920    1.3200 os        1 YM3     -0.430900
     22 O05         4.3270    0.5850    0.4460 o         1 YM3     -0.635000
     23 HAC1       -0.0120   -0.5960    0.5080 hc        1 YM3      0.058367
     24 HAC2       -0.1060    1.1830    0.8280 hc        1 YM3      0.058367
     25 HAC3       -0.1770    0.5660   -0.8810 hc        1 YM3      0.058367
     26 HAB1        2.2020   -0.2710   -0.6870 h1        1 YM3      0.046200
     27 HAB2        2.1090    1.5250   -0.3550 h1        1 YM3      0.046200
     28 HAG         2.0460    0.4200    3.5650 h4        1 YM3      0.062100
     29 HAO         4.5850   -0.6990    7.6380 hn        1 YM3      0.354700
     30 HAH         7.8460   -0.8990    5.1560 h4        1 YM3      0.059800
     31 HAL1        6.0310    1.6710    1.4300 h1        1 YM3      0.082200
     32 HAL2        7.5980    1.5790    2.3780 h1        1 YM3      0.082200
     33 HAK1        7.1970   -2.0930    2.9230 h1        1 YM3      0.072200
     34 HAK2        8.3300   -0.6810    3.2030 h1        1 YM3      0.072200
     35 HAW         8.3200    1.7040    0.1350 h1        1 YM3      0.094700
     36 HAJ1        7.6620   -2.0400    0.4850 h1        1 YM3      0.066200
     37 HAJ2        9.2750   -1.9590    1.3730 h1        1 YM3      0.066200
     38 HAI1        6.0610    1.3200   -0.9550 hx        1 YM3      0.140700
     39 HAI2        6.1150   -0.4450   -0.4920 hx        1 YM3      0.140700
     40 HAA1        7.9230    0.9620   -2.4160 hn        1 YM3      0.459133
     41 HAA2        6.8280   -0.2580   -2.7280 hn        1 YM3      0.459133
     42 HAA3        8.2100   -0.5690   -1.8280 hn        1 YM3      0.459133
@<TRIPOS>BOND
     1    1    2 1   
     2    1   23 1   
     3    1   24 1   
     4    1   25 1   
     5    2   21 1   
     6    2   26 1   
     7    2   27 1   
     8    3    4 1   
     9    3   21 1   
    10    3   22 2   
    11    4    5 ar  
    12    4   12 ar  
    13    5    6 ar  
    14    5   28 1   
    15    6    7 ar  
    16    7    8 1   
    17    7   11 ar  
    18    8    9 1   
    19    8   29 1   
    20    9   10 2   
    21   10   11 1   
    22   10   30 1   
    23   11   12 ar  
    24   12   13 1   
    25   13   14 1   
    26   13   15 1   
    27   14   18 1   
    28   14   31 1   
    29   14   32 1   
    30   15   16 1   
    31   15   33 1   
    32   15   34 1   
    33   16   17 1   
    34   16   36 1   
    35   16   37 1   
    36   17   18 1   
    37   18   19 1   
    38   18   35 1   
    39   19   20 1   
    40   19   38 1   
    41   19   39 1   
    42   20   40 1   
    43   20   41 1   
    44   20   42 1   
@<TRIPOS>SUBSTRUCTURE
     1 YM3         1 TEMP              0 ****  ****    0 ROOT
