@<TRIPOS>MOLECULE
YM3
   41    37     1     0     0
SMALL
bcc


@<TRIPOS>ATOM
      1 CAC        -1.2380    3.6470   -4.4650 c3        1 YM3     -0.219000
      2 CAB        -1.1350    2.2490   -3.9740 c3        1 YM3     -0.009000
      3 CAQ        -0.2870    0.9570   -2.0770 c1        1 YM3      0.372000
      4 CAR         0.6270    0.8210   -0.8430 c1        1 YM3     -0.226000
      5 CAG         1.5050    1.7160   -1.4200 c2        1 YM3      0.027000
      6 NAN         2.8500    1.5840   -1.2140 n1        1 YM3     -0.158000
      7 CAU         3.3300    0.5490   -0.4250 c1        1 YM3      0.065000
      8 NAO         4.5960    0.2100   -0.0230 n1        1 YM3     -0.178000
      9 NAM         4.4990   -0.9090    0.8140 n2        1 YM3     -0.041000
     10 CAH         3.2080   -1.2390    0.9150 c1        1 YM3     -0.135000
     11 CAT         2.4640   -0.3320    0.1430 c1        1 YM3     -0.232000
     12 CAS         1.1040   -0.1980   -0.0660 c1        1 YM3      0.234000
     13 NAV        -0.1650   -0.7420    0.3990 n3        1 YM3     -0.265000
     14 CAL        -0.3540   -0.4030    1.7560 c3        1 YM3     -0.073000
     15 CAK        -0.1970   -2.1320    0.1790 c3        1 YM3     -0.073000
     16 CAJ        -1.4390   -2.7840    0.7780 c3        1 YM3     -0.022000
     17 OAP        -1.6220   -2.4490    2.1220 os        1 YM3     -0.284000
     18 CAW        -1.5890   -1.0540    2.3490 c3        1 YM3      0.018000
     19 CAI        -1.6100   -0.7980    3.8660 c3        1 YM3     -0.073000
     20 NAA        -2.6860   -1.5470    4.4630 n3        1 YM3     -0.344000
     21 O03        -0.6340    2.2470   -2.5690 os        1 YM3     -0.286000
     22 O05        -0.6540   -0.0240   -2.6600 o         1 YM3     -0.361000
     23 HAC1       -2.0160    4.0780   -4.0630 hc        1 YM3      0.087667
     24 HAC2       -1.3410    3.6420   -5.4900 hc        1 YM3      0.087667
     25 HAC3       -0.4560    4.1240   -4.2280 hc        1 YM3      0.087667
     26 HAB1       -0.4770    1.7180   -4.5770 h1        1 YM3      0.091000
     27 HAB2       -1.9880    1.8420   -4.0050 h1        1 YM3      0.091000
     28 HAG         1.1760    2.4320   -1.9220 h4        1 YM3      0.184000
     29 HAO         5.3040    0.6020   -0.2410 DU        1 YM3      0.239500
     30 HAH         2.8450   -1.9770    1.4330 DU        1 YM3      0.239500
     31 HAL1       -0.4400    0.5520    1.8260 h1        1 YM3      0.089500
     32 HAL2        0.4230   -0.6860    2.2640 h1        1 YM3      0.089500
     33 HAK1       -0.1800   -2.3130   -0.8300 h1        1 YM3      0.103000
     34 HAK2        0.6440   -2.5590    0.6070 h1        1 YM3      0.103000
     35 HAW        -2.3710   -0.6580    1.9560 h1        1 YM3      0.111000
     36 HAJ1       -2.2100   -2.4980    0.2820 h1        1 YM3      0.104500
     37 HAJ2       -1.3570   -3.7060    0.7070 h1        1 YM3      0.104500
     38 HAI1       -1.7530    0.2170    4.0420 h1        1 YM3      0.074000
     39 HAI2       -0.7580   -1.0850    4.2600 h1        1 YM3      0.074000
     40 HAA1       -2.3510   -2.0990    5.1270 hn        1 YM3      0.152000
     41 HAA2       -3.2680   -0.9950    4.8090 hn        1 YM3      0.152000
@<TRIPOS>BOND
     1    1    2 1   
     2    1   23 1   
     3    1   24 1   
     4    1   25 1   
     5    2   21 1   
     6    2   26 1   
     7    2   27 1   
     8    3   21 1   
     9    3   22 1   
    10    4    5 1   
    11    4   12 1   
    12    5    6 1   
    13    5   28 1   
    14    7   11 1   
    15    8    9 1   
    16    9   10 1   
    17   10   11 1   
    18   12   13 1   
    19   13   14 1   
    20   13   15 1   
    21   14   18 1   
    22   14   31 1   
    23   14   32 1   
    24   15   16 1   
    25   15   33 1   
    26   15   34 1   
    27   16   17 1   
    28   16   36 1   
    29   16   37 1   
    30   17   18 1   
    31   18   19 1   
    32   18   35 1   
    33   19   20 1   
    34   19   38 1   
    35   19   39 1   
    36   20   40 1   
    37   20   41 1   
@<TRIPOS>SUBSTRUCTURE
     1 YM3         1 TEMP              0 ****  ****    0 ROOT
