@<TRIPOS>MOLECULE
YM3
   41    43     1     0     0
SMALL
bcc


@<TRIPOS>ATOM
      1 CAC         4.9470    2.2040    0.3000 c3        1 YM3     -0.101100
      2 CAB         3.5600    2.2580   -0.2940 c3        1 YM3      0.140400
      3 CAQ         1.7210    0.7610   -0.5910 c         1 YM3      0.671700
      4 CAR         1.2400   -0.6100   -0.3810 ca        1 YM3     -0.302900
      5 CAG         2.2110   -1.6500   -0.4940 ca        1 YM3      0.489200
      6 NAN         1.9960   -2.9490   -0.3030 nb        1 YM3     -0.680000
      7 CAU         0.7070   -3.2540    0.0400 ca        1 YM3      0.453800
      8 NAO         0.1340   -4.5100    0.2990 na        1 YM3     -0.111800
      9 NAM        -1.1660   -4.4050    0.5960 nc        1 YM3     -0.506100
     10 CAH        -1.5190   -3.1050    0.5410 cd        1 YM3      0.364800
     11 CAT        -0.3710   -2.2850    0.1890 ca        1 YM3     -0.376200
     12 CAS        -0.0980   -0.9140   -0.0340 ca        1 YM3      0.303600
     13 NAV        -1.0500    0.1070    0.1520 nh        1 YM3     -0.655000
     14 CAL        -1.6060    0.7150   -1.0500 c3        1 YM3      0.161800
     15 CAK        -2.0630   -0.0980    1.1750 c3        1 YM3      0.152800
     16 CAJ        -2.7750    1.2250    1.4940 c3        1 YM3      0.125400
     17 OAP        -3.3350    1.8080    0.3250 os        1 YM3     -0.417600
     18 CAW        -2.4020    1.9960   -0.7400 c3        1 YM3      0.135100
     19 CAI        -1.4570    3.1760   -0.4630 c3        1 YM3      0.131800
     20 NAA        -2.1540    4.4340   -0.3400 n3        1 YM3     -0.914800
     21 O03         2.9980    0.9450   -0.1210 os        1 YM3     -0.445900
     22 O05         1.1760    1.7250   -1.1350 o         1 YM3     -0.548000
     23 HAC1        4.9000    1.9270    1.3810 hc        1 YM3      0.048367
     24 HAC2        5.5720    1.4450   -0.2290 hc        1 YM3      0.048367
     25 HAC3        5.4240    3.2070    0.1990 hc        1 YM3      0.048367
     26 HAB1        2.9070    3.0020    0.2320 h1        1 YM3      0.051700
     27 HAB2        3.5810    2.4990   -1.3890 h1        1 YM3      0.051700
     28 HAG         3.2540   -1.3750   -0.7530 h4        1 YM3      0.046100
     29 HAO         0.5970   -5.3890    0.3090 hn        1 YM3      0.340700
     30 HAH        -2.5430   -2.7860    0.7380 h4        1 YM3      0.060800
     31 HAL1       -0.7680    0.9690   -1.7570 h1        1 YM3      0.065700
     32 HAL2       -2.3040   -0.0090   -1.5640 h1        1 YM3      0.065700
     33 HAK1       -2.8480   -0.8350    0.8390 h1        1 YM3      0.048700
     34 HAK2       -1.5720   -0.4920    2.1050 h1        1 YM3      0.048700
     35 HAW        -3.0670    2.2260   -1.6220 h1        1 YM3      0.091700
     36 HAJ1       -3.6580    1.0310    2.1580 h1        1 YM3      0.056700
     37 HAJ2       -2.0750    1.9490    1.9870 h1        1 YM3      0.056700
     38 HAI1       -0.8370    2.9250    0.4470 h1        1 YM3      0.048700
     39 HAI2       -0.7410    3.2600   -1.3310 h1        1 YM3      0.048700
     40 HAA1       -2.9710    4.3310    0.2310 hn        1 YM3      0.350300
     41 HAA2       -1.5530    5.1220    0.0660 hn        1 YM3      0.350300
@<TRIPOS>BOND
     1    1    2 1   
     2    1   23 1   
     3    1   24 1   
     4    1   25 1   
     5    2   21 1   
     6    2   26 1   
     7    2   27 1   
     8    3    4 1   
     9    3   21 1   
    10    3   22 2   
    11    4    5 ar  
    12    4   12 ar  
    13    5    6 ar  
    14    5   28 1   
    15    6    7 ar  
    16    7    8 1   
    17    7   11 ar  
    18    8    9 1   
    19    8   29 1   
    20    9   10 2   
    21   10   11 1   
    22   10   30 1   
    23   11   12 ar  
    24   12   13 1   
    25   13   14 1   
    26   13   15 1   
    27   14   18 1   
    28   14   31 1   
    29   14   32 1   
    30   15   16 1   
    31   15   33 1   
    32   15   34 1   
    33   16   17 1   
    34   16   36 1   
    35   16   37 1   
    36   17   18 1   
    37   18   19 1   
    38   18   35 1   
    39   19   20 1   
    40   19   38 1   
    41   19   39 1   
    42   20   40 1   
    43   20   41 1   
@<TRIPOS>SUBSTRUCTURE
     1 YM3         1 TEMP              0 ****  ****    0 ROOT
