@<TRIPOS>MOLECULE
YM3
   42    44     1     0     0
SMALL
bcc


@<TRIPOS>ATOM
      1 CAC         0.2830    0.4110    0.1230 c3        1 YM3     -0.106100
      2 CAB         1.7830    0.5120   -0.0050 c3        1 YM3      0.147400
      3 CAQ         3.6650    0.3570    1.4700 c         1 YM3      0.693700
      4 CAR         4.1050    0.1400    2.8510 ca        1 YM3     -0.314900
      5 CAG         3.0900    0.1840    3.8630 ca        1 YM3      0.496200
      6 NAN         3.2620   -0.0440    5.1590 nb        1 YM3     -0.656000
      7 CAU         4.5500   -0.3490    5.5110 ca        1 YM3      0.465800
      8 NAO         5.0800   -0.6380    6.7760 na        1 YM3     -0.095800
      9 NAM         6.3950   -0.8740    6.7140 nc        1 YM3     -0.477100
     10 CAH         6.8010   -0.7510    5.4350 cd        1 YM3      0.355800
     11 CAT         5.6730   -0.4120    4.5810 ca        1 YM3     -0.382200
     12 CAS         5.4430   -0.1490    3.2130 ca        1 YM3      0.297600
     13 NAV         6.4660   -0.2310    2.2440 nh        1 YM3     -0.666000
     14 CAL         6.9210    1.0210    1.6640 c3        1 YM3      0.175800
     15 CAK         7.5810   -1.1300    2.4880 c3        1 YM3      0.152800
     16 CAJ         8.3070   -1.4290    1.1720 c3        1 YM3      0.119400
     17 OAP         8.7100   -0.2440    0.4810 os        1 YM3     -0.435600
     18 CAW         7.7240    0.7730    0.3720 c3        1 YM3      0.124100
     19 CAI         6.7520    0.4430   -0.7740 c3        1 YM3      0.063800
     20 NAA         7.4770    0.1180   -2.0360 nz        1 YM3     -0.833600
     21 O03         2.3090    0.2930    1.3200 os        1 YM3     -0.430900
     22 O05         4.3280    0.5830    0.4450 o         1 YM3     -0.635000
     23 HAC1       -0.1060    1.1850    0.8260 hc        1 YM3      0.058367
     24 HAC2       -0.1760    0.5670   -0.8830 hc        1 YM3      0.058367
     25 HAC3       -0.0130   -0.5940    0.5090 hc        1 YM3      0.058367
     26 HAB1        2.1100    1.5250   -0.3570 h1        1 YM3      0.046200
     27 HAB2        2.2020   -0.2720   -0.6870 h1        1 YM3      0.046200
     28 HAG         2.0460    0.4230    3.5640 h4        1 YM3      0.062100
     29 HAO         4.5840   -0.6930    7.6390 hn        1 YM3      0.354700
     30 HAH         7.8460   -0.8970    5.1570 h4        1 YM3      0.059800
     31 HAL1        6.0310    1.6700    1.4280 h1        1 YM3      0.082200
     32 HAL2        7.5980    1.5790    2.3760 h1        1 YM3      0.082200
     33 HAK1        8.3300   -0.6800    3.2040 h1        1 YM3      0.072200
     34 HAK2        7.1960   -2.0920    2.9260 h1        1 YM3      0.072200
     35 HAW         8.3200    1.7010    0.1330 h1        1 YM3      0.094700
     36 HAJ1        7.6620   -2.0420    0.4880 h1        1 YM3      0.066200
     37 HAJ2        9.2750   -1.9600    1.3760 h1        1 YM3      0.066200
     38 HAI1        6.1150   -0.4480   -0.4910 hx        1 YM3      0.140700
     39 HAI2        6.0610    1.3160   -0.9570 hx        1 YM3      0.140700
     40 HAA1        6.8290   -0.2650   -2.7280 hn        1 YM3      0.459133
     41 HAA2        7.9240    0.9560   -2.4170 hn        1 YM3      0.459133
     42 HAA3        8.2100   -0.5740   -1.8270 hn        1 YM3      0.459133
@<TRIPOS>BOND
     1    1    2 1   
     2    1   23 1   
     3    1   24 1   
     4    1   25 1   
     5    2   21 1   
     6    2   26 1   
     7    2   27 1   
     8    3    4 1   
     9    3   21 1   
    10    3   22 2   
    11    4    5 ar  
    12    4   12 ar  
    13    5    6 ar  
    14    5   28 1   
    15    6    7 ar  
    16    7    8 1   
    17    7   11 ar  
    18    8    9 1   
    19    8   29 1   
    20    9   10 2   
    21   10   11 1   
    22   10   30 1   
    23   11   12 ar  
    24   12   13 1   
    25   13   14 1   
    26   13   15 1   
    27   14   18 1   
    28   14   31 1   
    29   14   32 1   
    30   15   16 1   
    31   15   33 1   
    32   15   34 1   
    33   16   17 1   
    34   16   36 1   
    35   16   37 1   
    36   17   18 1   
    37   18   19 1   
    38   18   35 1   
    39   19   20 1   
    40   19   38 1   
    41   19   39 1   
    42   20   40 1   
    43   20   41 1   
    44   20   42 1   
@<TRIPOS>SUBSTRUCTURE
     1 YM3         1 TEMP              0 ****  ****    0 ROOT
