@<TRIPOS>MOLECULE
YM4
   67    72     1     0     0
SMALL
bcc


@<TRIPOS>ATOM
      1 C01         0.2910    0.2410   -1.4230 c3        1 YM4     -0.140400
      2 C02         1.5360   -0.2320   -0.8220 cc        1 YM4      0.270000
      3 C03         2.4930    0.3010    0.0180 cd        1 YM4     -0.373600
      4 C04         3.4700   -0.7780    0.1860 cd        1 YM4      0.304600
      5 C05         4.7210   -0.6310    0.9860 c3        1 YM4      0.140500
      6 N06         5.2120   -1.8690    1.5730 n3        1 YM4     -0.709600
      7 C07         6.5800   -1.7670    2.0570 c3        1 YM4      0.161800
      8 C08         6.7400   -1.0970    3.4400 c3        1 YM4      0.152300
      9 N09         5.8420   -1.6720    4.4290 nh        1 YM4     -0.642000
     10 C10         6.0030   -1.1490    5.7430 ca        1 YM4      0.165600
     11 C11         6.5020   -1.9540    6.7800 ca        1 YM4     -0.124200
     12 Br1         6.9790   -3.7390    6.5090 br        1 YM4     -0.054100
     13 C13         6.6580   -1.4140    8.0880 ca        1 YM4      0.405200
     14 N14         6.3730   -0.1680    8.4660 nb        1 YM4     -0.598000
     15 C15         5.8860    0.6470    7.4870 ca        1 YM4      0.540300
     16 N16         5.4940    2.0050    7.5730 nc        1 YM4     -0.622700
     17 C17         5.0850    2.3430    6.3270 cd        1 YM4      0.499400
     18 C18         4.5980    3.6610    5.9220 ca        1 YM4     -0.176900
     19 C19         5.0570    4.8060    6.5860 ca        1 YM4     -0.058500
     20 C20         4.6090    6.0670    6.2190 ca        1 YM4     -0.198500
     21 C21         3.6620    6.2370    5.1770 ca        1 YM4      0.186600
     22 N22         3.1290    7.5010    4.8680 nh        1 YM4     -0.639000
     23 C23         2.4910    7.6350    3.5720 c3        1 YM4      0.160300
     24 C24         1.9340    9.0420    3.2690 c3        1 YM4      0.157800
     25 N25         2.8010   10.1520    3.6170 n3        1 YM4     -0.717600
     26 C26         3.8660   10.3860    2.6670 c3        1 YM4      0.147100
     27 C27         3.2540   10.0160    4.9890 c3        1 YM4      0.157800
     28 C28         3.8690    8.6500    5.3580 c3        1 YM4      0.160300
     29 C29         3.2150    5.0660    4.5110 ca        1 YM4     -0.198500
     30 C30         3.6690    3.8100    4.8860 ca        1 YM4     -0.058500
     31 N31         5.1840    1.2700    5.4070 na        1 YM4     -0.274300
     32 C32         5.6890    0.1810    6.1110 ca        1 YM4     -0.214500
     33 C33         4.4600   -1.7850    3.9910 c3        1 YM4      0.152300
     34 C34         4.3430   -2.4320    2.5920 c3        1 YM4      0.161800
     35 N35         3.0670   -1.8480   -0.5270 nc        1 YM4     -0.325300
     36 O36         1.9310   -1.5590   -1.1300 os        1 YM4     -0.124100
     37 H011        0.0500    1.2650   -1.0460 hc        1 YM4      0.066367
     38 H012       -0.5510   -0.4520   -1.1670 hc        1 YM4      0.066367
     39 H013        0.3890    0.2750   -2.5380 hc        1 YM4      0.066367
     40 H03         2.5420    1.2860    0.4660 ha        1 YM4      0.169000
     41 H051        5.5170   -0.2360    0.2860 h1        1 YM4      0.042700
     42 H052        4.5270    0.1640    1.7680 h1        1 YM4      0.042700
     43 H071        7.2080   -1.1960    1.3210 h1        1 YM4      0.069950
     44 H072        6.9750   -2.8210    2.1150 h1        1 YM4      0.069950
     45 H341        3.2710   -2.3500    2.2640 h1        1 YM4      0.069950
     46 H342        4.6070   -3.5240    2.6730 h1        1 YM4      0.069950
     47 H081        7.7950   -1.2600    3.7950 h1        1 YM4      0.037450
     48 H082        6.5820    0.0150    3.3240 h1        1 YM4      0.037450
     49 H331        3.9170   -2.4370    4.7300 h1        1 YM4      0.037450
     50 H332        3.9430   -0.7810    3.9710 h1        1 YM4      0.037450
     51 H13         7.0520   -2.0610    8.8980 h4        1 YM4      0.040100
     52 H31         4.9570    1.2970    4.4490 hn        1 YM4      0.307700
     53 H19         5.7830    4.7100    7.4110 ha        1 YM4      0.142500
     54 H30         3.2700    2.9280    4.3600 ha        1 YM4      0.142500
     55 H20         5.0080    6.9320    6.7700 ha        1 YM4      0.138500
     56 H29         2.4870    5.1250    3.6880 ha        1 YM4      0.138500
     57 H231        1.6130    6.9280    3.5440 h1        1 YM4      0.044200
     58 H232        3.2040    7.3410    2.7470 h1        1 YM4      0.044200
     59 H281        4.9360    8.6200    4.9900 h1        1 YM4      0.044200
     60 H282        3.8840    8.5950    6.4840 h1        1 YM4      0.044200
     61 H241        0.9760    9.1840    3.8470 h1        1 YM4      0.063700
     62 H242        1.6920    9.0830    2.1720 h1        1 YM4      0.063700
     63 H261        3.4150   10.5620    1.6560 h1        1 YM4      0.034700
     64 H262        4.5950    9.5330    2.5900 h1        1 YM4      0.034700
     65 H263        4.4270   11.3070    2.9750 h1        1 YM4      0.034700
     66 H271        4.0220   10.8060    5.2120 h1        1 YM4      0.063700
     67 H272        2.3580   10.2010    5.6470 h1        1 YM4      0.063700
@<TRIPOS>BOND
     1    1    2 1   
     2    1   37 1   
     3    1   38 1   
     4    1   39 1   
     5    2    3 2   
     6    2   36 1   
     7    3    4 1   
     8    3   40 1   
     9    4    5 1   
    10    4   35 2   
    11    5    6 1   
    12    5   41 1   
    13    5   42 1   
    14    6    7 1   
    15    6   34 1   
    16    7    8 1   
    17    7   43 1   
    18    7   44 1   
    19    8    9 1   
    20    8   47 1   
    21    8   48 1   
    22    9   10 1   
    23    9   33 1   
    24   10   11 ar  
    25   10   32 ar  
    26   11   12 1   
    27   11   13 ar  
    28   13   14 ar  
    29   13   51 1   
    30   14   15 ar  
    31   15   16 1   
    32   15   32 ar  
    33   16   17 2   
    34   17   18 1   
    35   17   31 1   
    36   18   19 ar  
    37   18   30 ar  
    38   19   20 ar  
    39   19   53 1   
    40   20   21 ar  
    41   20   55 1   
    42   21   22 1   
    43   21   29 ar  
    44   22   23 1   
    45   22   28 1   
    46   23   24 1   
    47   23   57 1   
    48   23   58 1   
    49   24   25 1   
    50   24   61 1   
    51   24   62 1   
    52   25   26 1   
    53   25   27 1   
    54   26   63 1   
    55   26   64 1   
    56   26   65 1   
    57   27   28 1   
    58   27   66 1   
    59   27   67 1   
    60   28   59 1   
    61   28   60 1   
    62   29   30 ar  
    63   29   56 1   
    64   30   54 1   
    65   31   32 1   
    66   31   52 1   
    67   33   34 1   
    68   33   49 1   
    69   33   50 1   
    70   34   45 1   
    71   34   46 1   
    72   35   36 1   
@<TRIPOS>SUBSTRUCTURE
     1 YM4         1 TEMP              0 ****  ****    0 ROOT
