@<TRIPOS>MOLECULE
YM4
   67    72     1     0     0
SMALL
bcc


@<TRIPOS>ATOM
      1 C01        -0.4630   -6.9380    1.8110 c3        1 YM4     -0.140400
      2 C02         0.3780   -6.0200    1.0480 cc        1 YM4      0.270000
      3 C03         0.2010   -4.8000    0.4280 cd        1 YM4     -0.373600
      4 C04         1.5120   -4.4890   -0.1450 cd        1 YM4      0.304600
      5 C05         1.7800   -3.2690   -0.9620 c3        1 YM4      0.140500
      6 N06         3.1530   -2.7920   -0.9040 n3        1 YM4     -0.709600
      7 C07         3.4660   -1.8240   -1.9440 c3        1 YM4      0.161800
      8 C08         2.9970   -0.3800   -1.6620 c3        1 YM4      0.152300
      9 N09         3.4030    0.0750   -0.3420 nh        1 YM4     -0.642000
     10 C10         3.0680    1.4290   -0.0580 ca        1 YM4      0.165600
     11 C11         4.0720    2.4010    0.0860 ca        1 YM4     -0.124200
     12 BR1         5.8850    1.9880   -0.0810 br        1 YM4     -0.054100
     13 C13         3.7190    3.7510    0.3680 ca        1 YM4      0.405200
     14 N14         2.4840    4.2280    0.5190 nb        1 YM4     -0.598000
     15 C15         1.4800    3.3150    0.3860 ca        1 YM4      0.540300
     16 N16         0.0800    3.5100    0.4900 nc        1 YM4     -0.622700
     17 C17        -0.4700    2.2910    0.2770 cd        1 YM4      0.499400
     18 C18        -1.9030    1.9960    0.2740 ca        1 YM4     -0.176900
     19 C19        -2.8170    2.9900   -0.1010 ca        1 YM4     -0.058500
     20 C20        -4.1810    2.7340   -0.1110 ca        1 YM4     -0.198500
     21 C21        -4.6930    1.4680    0.2730 ca        1 YM4      0.186600
     22 N22        -6.0770    1.2330    0.3610 nh        1 YM4     -0.639000
     23 C23        -6.4980   -0.1560    0.3750 c3        1 YM4      0.160300
     24 C24        -8.0250   -0.3660    0.4570 c3        1 YM4      0.157800
     25 N25        -8.8260    0.4840   -0.4030 n3        1 YM4     -0.717600
     26 C26        -8.8570    0.0610   -1.7850 c3        1 YM4      0.147100
     27 C27        -8.4450    1.8730   -0.2200 c3        1 YM4      0.157800
     28 C28        -6.9370    2.1730   -0.3360 c3        1 YM4      0.160300
     29 C29        -3.7520    0.4710    0.6410 ca        1 YM4     -0.198500
     30 C30        -2.3900    0.7390    0.6480 ca        1 YM4     -0.058500
     31 N31         0.4970    1.2850    0.0360 na        1 YM4     -0.274300
     32 C32         1.7430    1.9020    0.0970 ca        1 YM4     -0.214500
     33 C33         3.1020   -0.8580    0.7330 c3        1 YM4      0.152300
     34 C34         3.5580   -2.2970    0.4010 c3        1 YM4      0.161800
     35 N35         2.3650   -5.4910    0.1460 nc        1 YM4     -0.325300
     36 O36         1.7290   -6.4060    0.8500 os        1 YM4     -0.124100
     37 H011       -1.4870   -6.5070    1.9320 hc        1 YM4      0.066367
     38 H012       -0.5400   -7.9220    1.2820 hc        1 YM4      0.066367
     39 H013       -0.0200   -7.1200    2.8230 hc        1 YM4      0.066367
     40 H03        -0.6900   -4.1870    0.3600 ha        1 YM4      0.169000
     41 H051        1.5470   -3.5320   -2.0370 h1        1 YM4      0.042700
     42 H052        1.0400   -2.4780   -0.6350 h1        1 YM4      0.042700
     43 H071        4.5880   -1.8270   -2.0550 h1        1 YM4      0.069950
     44 H072        3.0160   -2.1500   -2.9210 h1        1 YM4      0.069950
     45 H341        3.1640   -2.9770    1.2040 h1        1 YM4      0.069950
     46 H342        4.6840   -2.3360    0.4250 h1        1 YM4      0.069950
     47 H081        3.4670    0.3030   -2.4230 h1        1 YM4      0.037450
     48 H082        1.8760   -0.3300   -1.7980 h1        1 YM4      0.037450
     49 H331        3.6520   -0.5140    1.6520 h1        1 YM4      0.037450
     50 H332        1.9990   -0.8750    0.9770 h1        1 YM4      0.037450
     51 H13         4.5210    4.5080    0.4800 h4        1 YM4      0.040100
     52 H31         0.3210    0.3360   -0.1580 hn        1 YM4      0.307700
     53 H19        -2.4530    3.9900   -0.3910 ha        1 YM4      0.142500
     54 H30        -1.7010   -0.0560    0.9710 ha        1 YM4      0.142500
     55 H20        -4.8520    3.5480   -0.4200 ha        1 YM4      0.138500
     56 H29        -4.0800   -0.5340    0.9420 ha        1 YM4      0.138500
     57 H231       -6.1050   -0.6970   -0.5340 h1        1 YM4      0.044200
     58 H232       -6.0560   -0.6420    1.2910 h1        1 YM4      0.044200
     59 H281       -6.7730    3.1920    0.1190 h1        1 YM4      0.044200
     60 H282       -6.6590    2.2280   -1.4290 h1        1 YM4      0.044200
     61 H241       -8.2320   -1.4450    0.2190 h1        1 YM4      0.063700
     62 H242       -8.3610   -0.1680    1.5150 h1        1 YM4      0.063700
     63 H261       -9.2420   -0.9920   -1.8300 h1        1 YM4      0.034700
     64 H262       -9.5630    0.7250   -2.3500 h1        1 YM4      0.034700
     65 H263       -7.8520    0.0960   -2.2880 h1        1 YM4      0.034700
     66 H271       -8.9780    2.5120   -0.9770 h1        1 YM4      0.063700
     67 H272       -8.7990    2.1750    0.8060 h1        1 YM4      0.063700
@<TRIPOS>BOND
     1    1    2 1   
     2    1   37 1   
     3    1   38 1   
     4    1   39 1   
     5    2    3 2   
     6    2   36 1   
     7    3    4 1   
     8    3   40 1   
     9    4    5 1   
    10    4   35 2   
    11    5    6 1   
    12    5   41 1   
    13    5   42 1   
    14    6    7 1   
    15    6   34 1   
    16    7    8 1   
    17    7   43 1   
    18    7   44 1   
    19    8    9 1   
    20    8   47 1   
    21    8   48 1   
    22    9   10 1   
    23    9   33 1   
    24   10   11 ar  
    25   10   32 ar  
    26   11   12 1   
    27   11   13 ar  
    28   13   14 ar  
    29   13   51 1   
    30   14   15 ar  
    31   15   16 1   
    32   15   32 ar  
    33   16   17 2   
    34   17   18 1   
    35   17   31 1   
    36   18   19 ar  
    37   18   30 ar  
    38   19   20 ar  
    39   19   53 1   
    40   20   21 ar  
    41   20   55 1   
    42   21   22 1   
    43   21   29 ar  
    44   22   23 1   
    45   22   28 1   
    46   23   24 1   
    47   23   57 1   
    48   23   58 1   
    49   24   25 1   
    50   24   61 1   
    51   24   62 1   
    52   25   26 1   
    53   25   27 1   
    54   26   63 1   
    55   26   64 1   
    56   26   65 1   
    57   27   28 1   
    58   27   66 1   
    59   27   67 1   
    60   28   59 1   
    61   28   60 1   
    62   29   30 ar  
    63   29   56 1   
    64   30   54 1   
    65   31   32 1   
    66   31   52 1   
    67   33   34 1   
    68   33   49 1   
    69   33   50 1   
    70   34   45 1   
    71   34   46 1   
    72   35   36 1   
@<TRIPOS>SUBSTRUCTURE
     1 YM4         1 TEMP              0 ****  ****    0 ROOT
