@<TRIPOS>MOLECULE
YM5
   47    50     1     0     0
SMALL
bcc


@<TRIPOS>ATOM
      1 N01         0.1050   -1.4110    0.6300 n4        1 YM5     -0.836600
      2 C02         1.5740   -1.1790    0.5510 c3        1 YM5      0.105800
      3 C03         2.1030   -0.5290    1.8380 c3        1 YM5      0.112100
      4 C04         3.6350   -0.4070    1.7440 c3        1 YM5      0.154800
      5 N05         4.1230    0.3310    2.9020 nh        1 YM5     -0.724300
      6 C06         5.5460    0.2520    3.0560 ca        1 YM5      0.664200
      7 N07         6.3500    1.2960    2.7260 nb        1 YM5     -0.747000
      8 C08         7.6950    1.1490    2.9250 ca        1 YM5      0.663900
      9 N09         8.3700    0.0810    3.3960 nb        1 YM5     -0.681000
     10 C10         7.5590   -0.9690    3.7320 ca        1 YM5      0.448800
     11 N11         7.9180   -2.2120    4.2610 na        1 YM5     -0.269100
     12 C12         6.7550   -2.9470    4.4820 cc        1 YM5     -0.070100
     13 C13         5.6290   -2.2140    4.0930 cd        1 YM5     -0.093400
     14 C14         4.2540   -2.6470    4.2430 ca        1 YM5      0.003200
     15 C15         3.5410   -2.3200    5.4060 ca        1 YM5     -0.089000
     16 C16         2.2150   -2.7220    5.5520 ca        1 YM5     -0.122000
     17 C17         1.5820   -3.4380    4.5370 ca        1 YM5     -0.130000
     18 C18         2.2800   -3.7640    3.3700 ca        1 YM5     -0.160300
     19 C19         1.6150   -4.5290    2.2730 c3        1 YM5      0.176700
     20 O20         0.3300   -3.9980    1.9590 oh        1 YM5     -0.669800
     21 C21         3.6200   -3.3870    3.2360 ca        1 YM5     -0.121000
     22 C22         6.1030   -0.9440    3.5950 ca        1 YM5     -0.293400
     23 C23         3.5250    1.6610    2.9570 c3        1 YM5      0.140800
     24 C24         1.9940    1.5600    2.9810 c3        1 YM5      0.132400
     25 O25         1.4740    0.7490    1.9210 os        1 YM5     -0.457600
     26 H011       -0.0930   -2.0980    1.3750 hn        1 YM5      0.467800
     27 H012       -0.3630   -0.5260    0.8560 hn        1 YM5      0.467800
     28 H021        2.0800   -2.1760    0.4060 hx        1 YM5      0.115200
     29 H022        1.7780   -0.5070   -0.3310 hx        1 YM5      0.115200
     30 H03         1.8250   -1.1450    2.7430 h1        1 YM5      0.085700
     31 H041        3.9040    0.1010    0.7730 h1        1 YM5      0.065200
     32 H042        4.0890   -1.4380    1.7540 h1        1 YM5      0.065200
     33 H231        3.8350    2.3030    2.0840 h1        1 YM5      0.076700
     34 H232        3.8680    2.1640    3.9030 h1        1 YM5      0.076700
     35 H15         4.0350   -1.7420    6.2040 ha        1 YM5      0.156000
     36 H21         4.1860   -3.6790    2.3370 ha        1 YM5      0.137000
     37 H16         1.6670   -2.4780    6.4760 ha        1 YM5      0.149000
     38 H17         0.5370   -3.7580    4.6640 ha        1 YM5      0.127000
     39 H191        2.1910   -4.4480    1.3100 h1        1 YM5      0.066700
     40 H192        1.5220   -5.6130    2.5530 h1        1 YM5      0.066700
     41 H20        -0.2820   -4.3010    2.6410 ho        1 YM5      0.427000
     42 H241        1.6330    1.1430    3.9580 h1        1 YM5      0.071700
     43 H242        1.5370    2.5670    2.7900 h1        1 YM5      0.071700
     44 H11         8.8420   -2.4960    4.4740 hn        1 YM5      0.327700
     45 H08         8.3130    2.0330    2.6500 h5        1 YM5      0.069100
     46 H12         6.8090   -3.9520    4.9100 h4        1 YM5      0.186000
     47 H013       -0.2460   -1.7720   -0.2580 hn        1 YM5      0.467800
@<TRIPOS>BOND
     1    1    2 1   
     2    1   26 1   
     3    1   27 1   
     4    1   47 1   
     5    2    3 1   
     6    2   28 1   
     7    2   29 1   
     8    3    4 1   
     9    3   25 1   
    10    3   30 1   
    11    4    5 1   
    12    4   31 1   
    13    4   32 1   
    14    5    6 1   
    15    5   23 1   
    16    6    7 ar  
    17    6   22 ar  
    18    7    8 ar  
    19    8    9 ar  
    20    8   45 1   
    21    9   10 ar  
    22   10   11 1   
    23   10   22 ar  
    24   11   12 1   
    25   11   44 1   
    26   12   13 2   
    27   12   46 1   
    28   13   14 1   
    29   13   22 1   
    30   14   15 ar  
    31   14   21 ar  
    32   15   16 ar  
    33   15   35 1   
    34   16   17 ar  
    35   16   37 1   
    36   17   18 ar  
    37   17   38 1   
    38   18   19 1   
    39   18   21 ar  
    40   19   20 1   
    41   19   39 1   
    42   19   40 1   
    43   20   41 1   
    44   21   36 1   
    45   23   24 1   
    46   23   33 1   
    47   23   34 1   
    48   24   25 1   
    49   24   42 1   
    50   24   43 1   
@<TRIPOS>SUBSTRUCTURE
     1 YM5         1 TEMP              0 ****  ****    0 ROOT
