@<TRIPOS>MOLECULE
YM5
   47    50     1     0     0
SMALL
bcc


@<TRIPOS>ATOM
      1 N01         0.1030   -1.4210    0.6350 nz        1 YM5     -0.836600
      2 C02         1.5710   -1.1880    0.5530 c3        1 YM5      0.105800
      3 C03         2.1010   -0.5330    1.8370 c3        1 YM5      0.112100
      4 C04         3.6330   -0.4100    1.7410 c3        1 YM5      0.154800
      5 N05         4.1220    0.3320    2.8970 nh        1 YM5     -0.724300
      6 C06         5.5450    0.2540    3.0490 ca        1 YM5      0.664200
      7 N07         6.3480    1.2980    2.7160 nb        1 YM5     -0.747000
      8 C08         7.6930    1.1530    2.9140 ca        1 YM5      0.663900
      9 N09         8.3690    0.0870    3.3870 nb        1 YM5     -0.681000
     10 C10         7.5590   -0.9630    3.7270 ca        1 YM5      0.448800
     11 N11         7.9200   -2.2040    4.2590 na        1 YM5     -0.269100
     12 C12         6.7580   -2.9400    4.4830 cc        1 YM5     -0.070100
     13 C13         5.6300   -2.2090    4.0930 cd        1 YM5     -0.093400
     14 C14         4.2560   -2.6430    4.2450 ca        1 YM5      0.003200
     15 C15         3.5440   -2.3120    5.4080 ca        1 YM5     -0.089000
     16 C16         2.2180   -2.7160    5.5570 ca        1 YM5     -0.122000
     17 C17         1.5850   -3.4340    4.5450 ca        1 YM5     -0.130000
     18 C18         2.2820   -3.7630    3.3780 ca        1 YM5     -0.160300
     19 C19         1.6170   -4.5320    2.2840 c3        1 YM5      0.176700
     20 O20         0.3310   -4.0040    1.9690 oh        1 YM5     -0.669800
     21 C21         3.6220   -3.3860    3.2410 ca        1 YM5     -0.121000
     22 C22         6.1030   -0.9400    3.5910 ca        1 YM5     -0.293400
     23 C23         3.5220    1.6610    2.9490 c3        1 YM5      0.140800
     24 C24         1.9910    1.5590    2.9740 c3        1 YM5      0.132400
     25 O25         1.4710    0.7440    1.9170 os        1 YM5     -0.457600
     26 H011       -0.0940   -2.1060    1.3820 hn        1 YM5      0.467800
     27 H012       -0.3660   -0.5350    0.8590 hn        1 YM5      0.467800
     28 H021        2.0780   -2.1850    0.4100 hx        1 YM5      0.115200
     29 H022        1.7740   -0.5180   -0.3310 hx        1 YM5      0.115200
     30 H03         1.8240   -1.1470    2.7440 h1        1 YM5      0.085700
     31 H041        4.0880   -1.4400    1.7540 h1        1 YM5      0.065200
     32 H042        3.9000    0.0950    0.7690 h1        1 YM5      0.065200
     33 H231        3.8310    2.3010    2.0730 h1        1 YM5      0.076700
     34 H232        3.8650    2.1680    3.8930 h1        1 YM5      0.076700
     35 H15         4.0380   -1.7320    6.2040 ha        1 YM5      0.156000
     36 H21         4.1880   -3.6800    2.3430 ha        1 YM5      0.137000
     37 H16         1.6710   -2.4690    6.4800 ha        1 YM5      0.149000
     38 H17         0.5410   -3.7550    4.6730 ha        1 YM5      0.127000
     39 H191        2.1920   -4.4540    1.3200 h1        1 YM5      0.066700
     40 H192        1.5260   -5.6160    2.5670 h1        1 YM5      0.066700
     41 H20        -0.2800   -4.3060    2.6530 ho        1 YM5      0.427000
     42 H241        1.5340    2.5660    2.7810 h1        1 YM5      0.071700
     43 H242        1.6320    1.1450    3.9530 h1        1 YM5      0.071700
     44 H11         8.8440   -2.4870    4.4720 hn        1 YM5      0.327700
     45 H08         8.3090    2.0360    2.6360 h5        1 YM5      0.069100
     46 H12         6.8130   -3.9440    4.9130 h4        1 YM5      0.186000
     47 H013       -0.2490   -1.7850   -0.2530 hn        1 YM5      0.467800
@<TRIPOS>BOND
     1    1    2 1   
     2    1   26 1   
     3    1   27 1   
     4    1   47 1   
     5    2    3 1   
     6    2   28 1   
     7    2   29 1   
     8    3    4 1   
     9    3   25 1   
    10    3   30 1   
    11    4    5 1   
    12    4   31 1   
    13    4   32 1   
    14    5    6 1   
    15    5   23 1   
    16    6    7 ar  
    17    6   22 ar  
    18    7    8 ar  
    19    8    9 ar  
    20    8   45 1   
    21    9   10 ar  
    22   10   11 1   
    23   10   22 ar  
    24   11   12 1   
    25   11   44 1   
    26   12   13 2   
    27   12   46 1   
    28   13   14 1   
    29   13   22 1   
    30   14   15 ar  
    31   14   21 ar  
    32   15   16 ar  
    33   15   35 1   
    34   16   17 ar  
    35   16   37 1   
    36   17   18 ar  
    37   17   38 1   
    38   18   19 1   
    39   18   21 ar  
    40   19   20 1   
    41   19   39 1   
    42   19   40 1   
    43   20   41 1   
    44   21   36 1   
    45   23   24 1   
    46   23   33 1   
    47   23   34 1   
    48   24   25 1   
    49   24   42 1   
    50   24   43 1   
@<TRIPOS>SUBSTRUCTURE
     1 YM5         1 TEMP              0 ****  ****    0 ROOT
