@<TRIPOS>MOLECULE
YM5
   46    41     1     0     0
SMALL
bcc


@<TRIPOS>ATOM
      1 N01         0.8310   -0.5400   -5.6040 n3        1 YM5     -0.327000
      2 C02        -0.0300   -0.6800   -4.4600 c3        1 YM5     -0.100000
      3 C03         0.8030   -0.8580   -3.2260 c3        1 YM5     -0.051000
      4 C04        -0.0950   -1.5250   -2.0920 c3        1 YM5     -0.079000
      5 N05         0.9930   -1.4960   -0.9630 n3        1 YM5     -0.202000
      6 C06         1.3790   -0.1250   -0.6980 c2        1 YM5      0.168000
      7 N07         2.5490   -0.0160   -1.3540 n2        1 YM5     -0.243000
      8 C08         3.6480    0.5130   -0.7190 c1        1 YM5      0.002000
      9 N09         3.5540    0.9310    0.5830 n1        1 YM5     -0.189000
     10 C10         2.3690    0.8220    1.2520 c1        1 YM5      0.056000
     11 N11         1.9940    1.1710    2.5480 n1        1 YM5     -0.191000
     12 C12         0.6750    0.8580    2.7060 c1        1 YM5     -0.081000
     13 C13         0.2210    0.3180    1.5230 c1        1 YM5     -0.071000
     14 C14        -1.0580    1.0420    1.9760 c1        1 YM5     -0.017000
     15 C15        -1.1960    2.4100    1.7600 c2        1 YM5     -0.100000
     16 C16        -2.3130    3.0840    2.2470 c1        1 YM5     -0.141000
     17 C17        -3.2940    2.3880    2.9510 c1        1 YM5     -0.099000
     18 C18        -3.1560    1.0200    3.1670 c1        1 YM5     -0.088000
     19 C19        -4.2250    0.2590    3.9570 c2        1 YM5      0.020000
     20 O20        -4.3970    0.8660    5.2250 oh        1 YM5     -0.326000
     21 C21        -2.0380    0.3460    2.6800 c2        1 YM5     -0.128000
     22 C22         1.2810    0.2990    0.6260 c1        1 YM5     -0.164000
     23 C23         2.1390   -2.2570   -1.2730 c3        1 YM5     -0.097000
     24 C24         2.2340   -2.4910   -2.6190 c3        1 YM5     -0.040000
     25 O25         1.9450   -1.6290   -3.5540 os        1 YM5     -0.274000
     26 H011        0.9410   -1.3570   -6.0070 hn        1 YM5      0.144500
     27 H012        1.6470   -0.2190   -5.3360 hn        1 YM5      0.144500
     28 H021       -0.6090   -1.4660   -4.5800 h1        1 YM5      0.093500
     29 H022       -0.5860    0.1250   -4.3670 h1        1 YM5      0.093500
     30 H03         1.0980    0.0250   -2.9150 h1        1 YM5      0.126000
     31 H041       -0.8700   -0.9670   -1.8650 h1        1 YM5      0.109500
     32 H042       -0.3540   -2.4450   -2.3250 h1        1 YM5      0.109500
     33 H231        2.0910   -3.1200   -0.7990 h1        1 YM5      0.108000
     34 H232        2.9390   -1.7710   -0.9740 h1        1 YM5      0.108000
     35 H15        -0.5060    2.9000    1.2650 ha        1 YM5      0.148000
     36 H21        -1.9410   -0.6180    2.8330 ha        1 YM5      0.130000
     37 H16        -2.4100    4.0490    2.0940 ha        1 YM5      0.135000
     38 H17        -4.0810    2.8620    3.2940 ha        1 YM5      0.154000
     39 H191       -5.0750    0.2820    3.4650 h4        1 YM5      0.070000
     40 H192       -3.9410   -0.6740    4.0770 h4        1 YM5      0.070000
     41 H20        -5.1880    0.6290    5.5630 ho        1 YM5      0.202000
     42 H241        1.6720   -3.2800   -2.7960 h1        1 YM5      0.093500
     43 H242        3.1650   -2.7640   -2.7810 h1        1 YM5      0.093500
     44 H11         2.5400    1.5460    3.1850 DU        1 YM5      0.220000
     45 H08         4.5010    0.5920   -1.2000 ha        1 YM5      0.190000
     46 H12         0.1540    0.9590    3.5310 DU        1 YM5      0.220000
@<TRIPOS>BOND
     1    1    2 1   
     2    1   26 1   
     3    1   27 1   
     4    2    3 1   
     5    2   28 1   
     6    2   29 1   
     7    3    4 1   
     8    3   25 1   
     9    3   30 1   
    10    4    5 1   
    11    4   31 1   
    12    4   32 1   
    13    5    6 1   
    14    5   23 1   
    15    6    7 1   
    16    6   22 1   
    17    7    8 1   
    18    8   45 1   
    19    9   10 1   
    20   11   12 1   
    21   12   13 1   
    22   13   22 1   
    23   14   15 1   
    24   14   21 1   
    25   15   16 1   
    26   15   35 1   
    27   16   37 1   
    28   17   18 1   
    29   17   38 1   
    30   18   21 1   
    31   19   20 1   
    32   19   39 1   
    33   19   40 1   
    34   20   41 1   
    35   21   36 1   
    36   23   24 1   
    37   23   33 1   
    38   23   34 1   
    39   24   25 1   
    40   24   42 1   
    41   24   43 1   
@<TRIPOS>SUBSTRUCTURE
     1 YM5         1 TEMP              0 ****  ****    0 ROOT
