@<TRIPOS>MOLECULE
YM5
   46    49     1     0     0
SMALL
bcc


@<TRIPOS>ATOM
      1 N01         3.6070    3.0190    0.7690 n3        1 YM5     -0.897800
      2 C02         2.2970    2.5260    1.0930 c3        1 YM5      0.159800
      3 C03         1.3820    2.1890   -0.1010 c3        1 YM5      0.089100
      4 C04         0.0410    1.6380    0.4130 c3        1 YM5      0.148800
      5 N05        -0.9240    1.4890   -0.6750 nh        1 YM5     -0.725300
      6 C06        -2.1300    0.8350   -0.2820 ca        1 YM5      0.688200
      7 N07        -3.3180    1.5050   -0.2810 nb        1 YM5     -0.766000
      8 C08        -4.4420    0.8190    0.0720 ca        1 YM5      0.661900
      9 N09        -4.5670   -0.4660    0.4590 nb        1 YM5     -0.713000
     10 C10        -3.3780   -1.1460    0.4500 ca        1 YM5      0.444800
     11 N11        -3.1520   -2.4840    0.7820 na        1 YM5     -0.277100
     12 C12        -1.7970   -2.7560    0.5950 cc        1 YM5     -0.101100
     13 C13        -1.1220   -1.6140    0.1450 cd        1 YM5     -0.052400
     14 C14         0.2850   -1.6100   -0.1910 ca        1 YM5     -0.030800
     15 C15         0.7310   -1.1330   -1.4310 ca        1 YM5     -0.098000
     16 C16         2.0870   -1.1840   -1.7520 ca        1 YM5     -0.141000
     17 C17         3.0060   -1.7170   -0.8520 ca        1 YM5     -0.130000
     18 C18         2.5700   -2.1980    0.3890 ca        1 YM5     -0.094300
     19 C19         3.5830   -2.7460    1.3400 c3        1 YM5      0.176700
     20 O20         2.9210   -3.4410    2.3870 oh        1 YM5     -0.600800
     21 C21         1.2140   -2.1440    0.7160 ca        1 YM5     -0.100000
     22 C22        -2.0990   -0.5520    0.0590 ca        1 YM5     -0.301400
     23 C23        -1.0790    2.7290   -1.4290 c3        1 YM5      0.144800
     24 C24         0.2810    3.2590   -1.9040 c3        1 YM5      0.126400
     25 O25         1.1980    3.4070   -0.8280 os        1 YM5     -0.423600
     26 H011        4.0950    2.3750    0.1780 hn        1 YM5      0.350300
     27 H012        3.5410    3.9000    0.2950 hn        1 YM5      0.350300
     28 H021        2.4100    1.5840    1.7000 h1        1 YM5      0.061200
     29 H022        1.7800    3.3000    1.7280 h1        1 YM5      0.061200
     30 H03         1.8670    1.4300   -0.7800 h1        1 YM5      0.054700
     31 H041        0.2180    0.6260    0.8730 h1        1 YM5      0.060200
     32 H042       -0.3520    2.3340    1.2100 h1        1 YM5      0.060200
     33 H231       -1.7200    2.5200   -2.3280 h1        1 YM5      0.060700
     34 H232       -1.5780    3.5340   -0.8160 h1        1 YM5      0.060700
     35 H15         0.0080   -0.7140   -2.1470 ha        1 YM5      0.149000
     36 H21         0.8750   -2.5290    1.6910 ha        1 YM5      0.153000
     37 H16         2.4300   -0.8080   -2.7280 ha        1 YM5      0.132000
     38 H17         4.0740   -1.7630   -1.1140 ha        1 YM5      0.130000
     39 H191        4.2760   -3.4500    0.8010 h1        1 YM5      0.032700
     40 H192        4.1890   -1.9010    1.7710 h1        1 YM5      0.032700
     41 H20         3.6130   -3.7410    2.9890 ho        1 YM5      0.404000
     42 H241        0.7230    2.5850   -2.6840 h1        1 YM5      0.053700
     43 H242        0.1630    4.2970   -2.3130 h1        1 YM5      0.053700
     44 H11        -3.8430   -3.1240    1.0750 hn        1 YM5      0.314700
     45 H08        -5.3820    1.4120    0.0510 h5        1 YM5      0.053100
     46 H12        -1.3970   -3.7540    0.7900 h4        1 YM5      0.180000
@<TRIPOS>BOND
     1    1    2 1   
     2    1   26 1   
     3    1   27 1   
     4    2    3 1   
     5    2   28 1   
     6    2   29 1   
     7    3    4 1   
     8    3   25 1   
     9    3   30 1   
    10    4    5 1   
    11    4   31 1   
    12    4   32 1   
    13    5    6 1   
    14    5   23 1   
    15    6    7 ar  
    16    6   22 ar  
    17    7    8 ar  
    18    8    9 ar  
    19    8   45 1   
    20    9   10 ar  
    21   10   11 1   
    22   10   22 ar  
    23   11   12 1   
    24   11   44 1   
    25   12   13 2   
    26   12   46 1   
    27   13   14 1   
    28   13   22 1   
    29   14   15 ar  
    30   14   21 ar  
    31   15   16 ar  
    32   15   35 1   
    33   16   17 ar  
    34   16   37 1   
    35   17   18 ar  
    36   17   38 1   
    37   18   19 1   
    38   18   21 ar  
    39   19   20 1   
    40   19   39 1   
    41   19   40 1   
    42   20   41 1   
    43   21   36 1   
    44   23   24 1   
    45   23   33 1   
    46   23   34 1   
    47   24   25 1   
    48   24   42 1   
    49   24   43 1   
@<TRIPOS>SUBSTRUCTURE
     1 YM5         1 TEMP              0 ****  ****    0 ROOT
