@<TRIPOS>MOLECULE
YM6
   37    40     1     0     0
SMALL
bcc


@<TRIPOS>ATOM
      1 N1          0.1080    2.8100    0.5670 nb        1 YM6     -0.764000
      2 C2          1.3270    3.4020    0.5060 ca        1 YM6      0.679900
      3 N3          2.5350    2.8490    0.2360 nb        1 YM6     -0.726000
      4 C4          2.4750    1.5030    0.0260 ca        1 YM6      0.511800
      5 C5          1.2290    0.7340    0.0840 cp        1 YM6     -0.314600
      6 C6          0.0390    1.4580    0.3480 ca        1 YM6      0.691200
      7 NAA        -3.9880   -2.7080   -0.3610 n3        1 YM6     -0.913800
      8 CAB         1.6690   -3.0220   -0.4090 ca        1 YM6      0.366200
      9 CAD         0.9170   -1.8600   -0.1600 ca        1 YM6     -0.197300
     10 CAE         3.6810   -1.8870   -0.5930 ca        1 YM6      0.384200
     11 CAG        -3.5090    0.5670    1.3060 c3        1 YM6      0.120400
     12 CAH        -2.2460    1.4280    1.2110 c3        1 YM6      0.139800
     13 CAI        -1.7020    0.3280   -0.8760 c3        1 YM6      0.141800
     14 NAJ         3.0030   -3.0440   -0.6230 nb        1 YM6     -0.643000
     15 NAM         3.5390    0.6400   -0.2630 na        1 YM6     -0.279000
     16 OAN        -3.9920    0.1980    0.0210 os        1 YM6     -0.413600
     17 CAP         3.0280   -0.6610   -0.3500 ca        1 YM6     -0.137500
     18 CAQ         1.5930   -0.6460   -0.1380 cp        1 YM6     -0.017000
     19 CAT        -3.0240   -0.4550   -0.7950 c3        1 YM6      0.130100
     20 NAU        -1.2070    0.7580    0.4310 nh        1 YM6     -0.720300
     21 H2          1.3340    4.4980    0.6930 h5        1 YM6      0.058100
     22 HNAA       -3.9040   -3.4790    0.2700 hn        1 YM6      0.355800
     23 HNAB       -4.7900   -2.1620   -0.1120 hn        1 YM6      0.355800
     24 HAB         1.1750   -4.0090   -0.4380 h4        1 YM6      0.026100
     25 HAD        -0.1650   -1.9180    0.0240 ha        1 YM6      0.158000
     26 HAE         4.7690   -1.9450   -0.7660 h4        1 YM6      0.028100
     27 HAF        -2.3060   -1.8770    0.6860 h1        1 YM6      0.037200
     28 HAFA       -2.0550   -2.3800   -1.0460 h1        1 YM6      0.037200
     29 HAG        -3.3270   -0.3520    1.9230 h1        1 YM6      0.056700
     30 HAGA       -4.3460    1.1680    1.7520 h1        1 YM6      0.056700
     31 HAH        -2.5330    2.4240    0.7660 h1        1 YM6      0.063700
     32 HAHA       -1.8450    1.6050    2.2470 h1        1 YM6      0.063700
     33 HAI        -0.9160   -0.3250   -1.3490 h1        1 YM6      0.059200
     34 HAIA       -1.8760    1.2160   -1.5510 h1        1 YM6      0.059200
     35 HAT        -3.5030   -0.4490   -1.8170 h1        1 YM6      0.093700
     36 HNAM        4.4900    0.8960   -0.3150 hn        1 YM6      0.320700
     37 CAF        -2.7890   -1.9040   -0.3350 c3        1 YM6      0.131800
@<TRIPOS>BOND
     1    1    2 ar  
     2    1    6 ar  
     3    2    3 ar  
     4    2   21 1   
     5    3    4 ar  
     6    4    5 ar  
     7    4   15 1   
     8    5    6 ar  
     9    5   18 1   
    10    6   20 1   
    11    7   22 1   
    12    7   23 1   
    13    7   37 1   
    14    8    9 ar  
    15    8   14 ar  
    16    8   24 1   
    17    9   18 ar  
    18    9   25 1   
    19   10   14 ar  
    20   10   17 ar  
    21   10   26 1   
    22   11   12 1   
    23   11   16 1   
    24   11   29 1   
    25   11   30 1   
    26   12   20 1   
    27   12   31 1   
    28   12   32 1   
    29   13   19 1   
    30   13   20 1   
    31   13   33 1   
    32   13   34 1   
    33   15   17 1   
    34   15   36 1   
    35   16   19 1   
    36   17   18 ar  
    37   19   35 1   
    38   19   37 1   
    39   27   37 1   
    40   28   37 1   
@<TRIPOS>SUBSTRUCTURE
     1 YM6         1 TEMP              0 ****  ****    0 ROOT
