@<TRIPOS>MOLECULE
YM6
   38    40     1     0     0
SMALL
bcc


@<TRIPOS>ATOM
      1 N1          0.5960    0.4830    0.1110 n7        1 YM6     -0.236000
      2 C2          1.9760    0.3210    0.2520 c1        1 YM6      0.023000
      3 N3          2.5460   -0.0710    1.4000 n2        1 YM6     -0.248000
      4 C4          1.7320   -0.2820    2.4660 c2        1 YM6      0.223000
      5 C5          0.2520   -0.1080    2.3820 c2        1 YM6     -0.277000
      6 C6         -0.3000    0.2650    1.1500 c2        1 YM6      0.191000
      7 NAA        -6.9210   -1.0460    0.8350 nz        1 YM6     -0.116000
      8 CAB        -1.3120    0.3820    5.7650 c2        1 YM6      0.092000
      9 CAD        -1.3950    0.1460    4.3460 c2        1 YM6     -0.292000
     10 CAE         0.8840   -0.3800    6.0220 c1        1 YM6      0.049000
     11 CAG        -5.9810    0.1430    0.9000 c3        1 YM6      0.012000
     12 CAH        -2.1480    1.3390   -0.0240 c3        1 YM6     -0.125000
     13 CAI        -2.4370   -0.8470    1.0220 c3        1 YM6     -0.008000
     14 NAJ        -0.2180    0.2130    6.4980 n2        1 YM6     -0.241000
     15 NAM         2.0780   -0.6780    3.7380 n7        1 YM6     -0.254000
     16 OAN        -4.6940   -0.2750    0.5510 os        1 YM6     -0.201000
     17 CAP         0.8890   -0.8120    4.5560 c3        1 YM6     -0.092000
     18 CAQ        -0.2620   -0.2740    3.7130 c2        1 YM6      0.046000
     19 CAT        -3.8400   -0.7220    1.5710 c2        1 YM6      0.007000
     20 NAU        -1.7180    0.4190    1.0050 n3        1 YM6     -0.250000
     21 H2          0.2710    0.7870   -0.7820 hn        1 YM6      0.256000
     22 HNAA       -5.2510   -0.9860    3.1810 ha        1 YM6      0.146500
     23 HNAB       -7.8890   -0.7280    0.9310 hn        1 YM6      0.260667
     24 HAB        -2.2850    0.4830    3.8010 ha        1 YM6      0.144000
     25 HAD        -2.2010    0.8010    6.2790 h4        1 YM6      0.159000
     26 HAE         0.7000   -1.9330    4.7280 h1        1 YM6      0.174000
     27 HAF        -3.4880   -1.4070    3.5440 ha        1 YM6      0.146500
     28 HAFA       -6.7060   -1.7140    1.5820 hn        1 YM6      0.260667
     29 HAG        -6.0510    0.5960    1.9290 hx        1 YM6      0.173000
     30 HAGA       -6.2880    0.8720    0.0880 hx        1 YM6      0.173000
     31 HAH        -3.2400    1.5460    0.1340 h1        1 YM6      0.092667
     32 HAHA       -1.5810    2.3020    0.0800 h1        1 YM6      0.092667
     33 HAI        -2.0150    0.9380   -1.0660 h1        1 YM6      0.092667
     34 HAIA       -1.8850   -1.5750    1.6860 h1        1 YM6      0.122000
     35 HAT        -2.5140   -1.2900   -0.0160 h1        1 YM6      0.122000
     36 HNAM        2.9950   -0.7120    4.1100 hn        1 YM6      0.294000
     37 HAA3       -6.8080   -1.5260   -0.0650 hn        1 YM6      0.260667
     38 CAF        -4.2250   -1.0540    2.8040 c2        1 YM6     -0.272000
@<TRIPOS>BOND
     1    1    2 1   
     2    1    6 1   
     3    1   21 1   
     4    2    3 1   
     5    3    4 1   
     6    4    5 1   
     7    4   15 1   
     8    5    6 1   
     9    5   18 1   
    10    6   20 1   
    11    7   11 1   
    12    7   23 1   
    13    7   28 1   
    14    7   37 1   
    15    8    9 1   
    16    8   14 1   
    17    8   25 1   
    18    9   18 1   
    19    9   24 1   
    20   10   14 1   
    21   10   17 1   
    22   11   16 1   
    23   11   29 1   
    24   11   30 1   
    25   12   20 1   
    26   12   31 1   
    27   12   32 1   
    28   12   33 1   
    29   13   19 1   
    30   13   20 1   
    31   13   34 1   
    32   13   35 1   
    33   15   17 1   
    34   15   36 1   
    35   16   19 1   
    36   17   18 1   
    37   17   26 1   
    38   19   38 1   
    39   22   38 1   
    40   27   38 1   
@<TRIPOS>SUBSTRUCTURE
     1 YM6         1 TEMP              0 ****  ****    0 ROOT
