@<TRIPOS>MOLECULE
YM7
   41    39     1     0     0
SMALL
bcc


@<TRIPOS>ATOM
      1 CAI         4.0710   -2.1430   -0.3670 c3        1 YM7     -0.154500
      2 CAG         5.5560   -2.1070   -0.1210 c3        1 YM7     -0.072500
      3 NAP         5.8920   -2.2050    1.3200 n3        1 YM7     -0.299000
      4 CAH         5.1590   -1.2030    2.1550 c3        1 YM7     -0.072500
      5 CAJ         3.6710   -1.2280    1.9130 c3        1 YM7     -0.154500
      6 CAW         3.3280   -1.1310    0.4710 c3        1 YM7     -0.120000
      7 CAK         1.7670   -1.3670    0.3070 c3        1 YM7     -0.028000
      8 NAQ         1.1270   -0.1240    0.0300 n3        1 YM7     -0.296000
      9 C6         -0.2930   -0.0090    0.1450 c2        1 YM7      0.186000
     10 C5         -0.9110    1.1300   -0.2470 c1        1 YM7     -0.344000
     11 N1         -1.0400   -1.0970    0.5290 n2        1 YM7     -0.244000
     12 C2         -2.3930   -1.0290    0.5160 c1        1 YM7      0.034000
     13 N3         -3.0150    0.1150    0.1220 n1        1 YM7     -0.253000
     14 C4         -2.2790    1.1950   -0.2590 c1        1 YM7      0.165000
     15 NAR        -2.9610    2.4590   -0.6570 n3        1 YM7     -0.224000
     16 CAT        -4.3660    2.4440   -1.0100 c2        1 YM7      0.083000
     17 CAE        -5.2750    3.2540   -0.3090 c2        1 YM7     -0.089000
     18 NAN        -6.5720    3.2620   -0.6530 n1        1 YM7     -0.058000
     19 CAS        -7.0040    2.4930   -1.6710 c1        1 YM7     -0.026000
     20 CAB        -8.5060    2.3930   -1.9660 c1        1 YM7     -0.079000
     21 NAA        -9.6190    2.3180   -2.1840 n1        1 YM7     -0.014000
     22 CAD        -6.0950    1.6830   -2.3750 c1        1 YM7     -0.051000
     23 NAO        -4.7970    1.6750   -2.0300 n1        1 YM7     -0.159000
     24 HAI1        3.8910   -1.9500   -1.3680 hc        1 YM7      0.089500
     25 HAI2        3.7540   -2.9920   -0.1630 hc        1 YM7      0.089500
     26 HAG1        5.8990   -1.2890   -0.4580 h1        1 YM7      0.068750
     27 HAG2        5.9900   -2.8710   -0.6150 h1        1 YM7      0.068750
     28 HAW         3.5340   -0.2900    0.1730 hc        1 YM7      0.097000
     29 HAP         6.7850   -2.0950    1.4300 hn        1 YM7      0.161000
     30 HAH1        5.3350   -1.4060    3.1430 h1        1 YM7      0.068750
     31 HAH2        5.5020   -0.3040    1.9480 h1        1 YM7      0.068750
     32 HAJ1        3.2710   -2.1280    2.3030 hc        1 YM7      0.089500
     33 HAJ2        3.2600   -0.4580    2.3890 hc        1 YM7      0.089500
     34 HAK1        1.3770   -1.7700    1.2030 h1        1 YM7      0.098000
     35 HAK2        1.6040   -1.9900   -0.4290 h1        1 YM7      0.098000
     36 HAQ         1.6070    0.5710   -0.2230 hn        1 YM7      0.221000
     37 H5         -0.3800    1.9060   -0.5200 ha        1 YM7      0.152000
     38 H2         -2.9500   -1.8430    0.8030 ha        1 YM7      0.194000
     39 HAR        -2.5570    3.1850   -0.6000 hn        1 YM7      0.237000
     40 HAE        -4.9590    3.8190    0.4410 h4        1 YM7      0.199000
     41 HAD        -6.4070    1.1260   -3.1140 ha        1 YM7      0.182000
@<TRIPOS>BOND
     1    1    2 1   
     2    1    6 1   
     3    1   24 1   
     4    1   25 1   
     5    2    3 1   
     6    2   26 1   
     7    2   27 1   
     8    3    4 1   
     9    3   29 1   
    10    4    5 1   
    11    4   30 1   
    12    4   31 1   
    13    5    6 1   
    14    5   32 1   
    15    5   33 1   
    16    6    7 1   
    17    6   28 1   
    18    7    8 1   
    19    7   34 1   
    20    7   35 1   
    21    8    9 1   
    22    8   36 1   
    23    9   10 1   
    24    9   11 1   
    25   10   37 1   
    26   11   12 1   
    27   12   38 1   
    28   13   14 1   
    29   14   15 1   
    30   15   16 1   
    31   15   39 1   
    32   16   17 1   
    33   16   23 1   
    34   17   18 1   
    35   17   40 1   
    36   19   20 1   
    37   19   22 1   
    38   20   21 1   
    39   22   41 1   
@<TRIPOS>SUBSTRUCTURE
     1 YM7         1 TEMP              0 ****  ****    0 ROOT
