@<TRIPOS>MOLECULE
YM7
   41    43     1     0     0
SMALL
bcc


@<TRIPOS>ATOM
      1 CAI        -5.2750   -1.5980    0.6110 c3        1 YM7     -0.114900
      2 CAG        -6.8040   -1.6280    0.5610 c3        1 YM7      0.150800
      3 NAP        -7.3990   -0.9650   -0.5830 n3        1 YM7     -0.796200
      4 CAH        -6.8720    0.3700   -0.7850 c3        1 YM7      0.150800
      5 CAJ        -5.3450    0.4780   -0.7840 c3        1 YM7     -0.114900
      6 CAW        -4.7620   -0.1720    0.4610 c3        1 YM7     -0.076700
      7 CAK        -3.2280   -0.2060    0.4100 c3        1 YM7      0.206800
      8 NAQ        -2.6190    1.0940    0.5350 nh        1 YM7     -0.853900
      9 C6         -1.2880    1.2760    0.1770 ca        1 YM7      0.703200
     10 C5         -0.3840    0.1730    0.1270 ca        1 YM7     -0.478600
     11 N1         -0.8420    2.5620   -0.0650 nb        1 YM7     -0.774000
     12 C2          0.4750    2.6870   -0.3250 ca        1 YM7      0.690900
     13 N3          1.4260    1.7240   -0.3970 nb        1 YM7     -0.735000
     14 C4          0.9850    0.4480   -0.1570 ca        1 YM7      0.713200
     15 NAR         1.8660   -0.6420   -0.2340 nh        1 YM7     -0.853600
     16 CAT         3.2510   -0.6020   -0.0940 ca        1 YM7      0.579900
     17 CAE         4.0170   -1.7410   -0.5640 ca        1 YM7      0.230900
     18 NAN         5.3460   -1.8000   -0.4750 nb        1 YM7     -0.566000
     19 CAS         5.9720   -0.7290    0.0900 ca        1 YM7      0.317000
     20 CAB         7.3930   -0.7210    0.2060 cg        1 YM7      0.142800
     21 NAA         8.5500   -0.7020    0.3070 n1        1 YM7     -0.344800
     22 CAD         5.2290    0.3850    0.5700 ca        1 YM7      0.364900
     23 NAO         3.8910    0.4590    0.4930 nb        1 YM7     -0.644000
     24 HAI1       -4.9330   -2.0240    1.5880 hc        1 YM7      0.046950
     25 HAI2       -4.8530   -2.2390   -0.2060 hc        1 YM7      0.046950
     26 HAG1       -7.1510   -2.6980    0.5720 h1        1 YM7      0.055950
     27 HAG2       -7.2040   -1.1250    1.4870 h1        1 YM7      0.055950
     28 HAW        -5.0940    0.4170    1.3620 hc        1 YM7      0.065700
     29 HAP        -7.2530   -1.5170   -1.4090 hn        1 YM7      0.350800
     30 HAH1       -7.2670    0.7630   -1.7620 h1        1 YM7      0.055950
     31 HAH2       -7.2790    1.0200    0.0400 h1        1 YM7      0.055950
     32 HAJ1       -4.9270   -0.0170   -1.7000 hc        1 YM7      0.046950
     33 HAJ2       -5.0630    1.5610   -0.8270 hc        1 YM7      0.046950
     34 HAK1       -2.8550   -0.8440    1.2640 h1        1 YM7      0.043200
     35 HAK2       -2.9090   -0.7060   -0.5520 h1        1 YM7      0.043200
     36 HAQ        -3.2260    1.8790    0.4350 hn        1 YM7      0.437800
     37 H5         -0.7290   -0.8480    0.3240 ha        1 YM7      0.149000
     38 H2          0.8340    3.7230   -0.5160 h5        1 YM7      0.057100
     39 HAR         1.4540   -1.5420   -0.3410 hn        1 YM7      0.455800
     40 HAE         3.5240   -2.6150   -1.0250 h4        1 YM7      0.037100
     41 HAD         5.7310    1.2500    1.0420 h4        1 YM7      0.048100
@<TRIPOS>BOND
     1    1    2 1   
     2    1    6 1   
     3    1   24 1   
     4    1   25 1   
     5    2    3 1   
     6    2   26 1   
     7    2   27 1   
     8    3    4 1   
     9    3   29 1   
    10    4    5 1   
    11    4   30 1   
    12    4   31 1   
    13    5    6 1   
    14    5   32 1   
    15    5   33 1   
    16    6    7 1   
    17    6   28 1   
    18    7    8 1   
    19    7   34 1   
    20    7   35 1   
    21    8    9 1   
    22    8   36 1   
    23    9   10 ar  
    24    9   11 ar  
    25   10   14 ar  
    26   10   37 1   
    27   11   12 ar  
    28   12   13 ar  
    29   12   38 1   
    30   13   14 ar  
    31   14   15 1   
    32   15   16 1   
    33   15   39 1   
    34   16   17 ar  
    35   16   23 ar  
    36   17   18 ar  
    37   17   40 1   
    38   18   19 ar  
    39   19   20 1   
    40   19   22 ar  
    41   20   21 3   
    42   22   23 ar  
    43   22   41 1   
@<TRIPOS>SUBSTRUCTURE
     1 YM7         1 TEMP              0 ****  ****    0 ROOT
