@<TRIPOS>MOLECULE
YM7
   41    43     1     0     0
SMALL
bcc


@<TRIPOS>ATOM
      1 CAI         0.4170    0.9690    0.1750 c3        1 YM7     -0.188000
      2 CAG         1.1090   -0.0330    1.0980 c3        1 YM7     -0.089500
      3 NAP         0.2530   -1.0750    1.6350 n7        1 YM7     -0.274000
      4 CAH        -0.9620   -0.5400    2.2210 c3        1 YM7     -0.089500
      5 CAJ        -1.7300    0.4490    1.3450 c3        1 YM7     -0.188000
      6 CAW        -0.8160    1.5690    0.8490 c3        1 YM7      0.014000
      7 CAK        -1.4900    2.4680   -0.1110 c2        1 YM7     -0.675000
      8 NAQ        -2.0230    3.6980    0.2590 ny        1 YM7      0.203000
      9 C6         -3.4940    3.7490    0.6750 c2        1 YM7     -0.078000
     10 C5         -4.2760    2.5880    0.5610 c2        1 YM7     -0.247000
     11 N1         -4.0010    4.9280    1.1380 n2        1 YM7     -0.209000
     12 C2         -5.3130    4.9040    1.4750 c2        1 YM7      0.006000
     13 N3         -6.1780    3.8620    1.4060 n2        1 YM7     -0.171000
     14 C4         -5.6520    2.6810    0.9500 c2        1 YM7      0.169000
     15 NAR        -6.4540    1.5440    0.7960 nu        1 YM7     -0.259000
     16 CAT        -7.6540    1.2820    1.4590 c2        1 YM7      0.113000
     17 CAE        -8.5190    0.2510    0.9180 c2        1 YM7     -0.158000
     18 NAN        -9.6900   -0.0670    1.4720 n2        1 YM7     -0.040000
     19 CAS       -10.0490    0.6250    2.5900 c2        1 YM7     -0.041000
     20 CAB       -11.2940    0.3440    3.2250 c1        1 YM7     -0.079000
     21 NAA       -12.3060    0.1240    3.7530 n1        1 YM7     -0.011000
     22 CAD        -9.1990    1.6250    3.1390 c2        1 YM7     -0.038000
     23 NAO        -8.0160    1.9540    2.5970 n2        1 YM7     -0.118000
     24 HAI1        0.1130    0.4680   -0.7800 hc        1 YM7      0.077000
     25 HAI2        1.1330    1.7880   -0.0870 hc        1 YM7      0.077000
     26 HAG1        1.9550   -0.5250    0.5440 h1        1 YM7      0.085750
     27 HAG2        1.5470    0.5230    1.9740 h1        1 YM7      0.085750
     28 HAW        -0.4630    2.1400    1.7580 hc        1 YM7      0.060000
     29 HAP         0.0130   -1.7200    0.9020 hn        1 YM7      0.140000
     30 HAH1       -1.6350   -1.4030    2.4870 h1        1 YM7      0.085750
     31 HAH2       -0.6710   -0.0230    3.1790 h1        1 YM7      0.085750
     32 HAJ1       -2.5710    0.8850    1.9400 hc        1 YM7      0.077000
     33 HAJ2       -2.1750   -0.0830    0.4650 hc        1 YM7      0.077000
     34 HAK1       -1.8090    2.0670   -1.0760 hx        1 YM7      0.140000
     35 HAK2       -1.4990    4.0860    1.0490 hn        1 YM7      0.226500
     36 HAQ        -1.9680    4.3380   -0.5380 hn        1 YM7      0.226500
     37 H5         -3.8300    1.6490    0.1970 ha        1 YM7      0.183000
     38 H2         -5.7420    5.8580    1.8530 h5        1 YM7      0.201000
     39 HAR        -6.0630    0.7910    0.2740 hn        1 YM7      0.256000
     40 HAE        -8.2410   -0.3170    0.0130 h4        1 YM7      0.178000
     41 HAD        -9.4800    2.1780    4.0550 h4        1 YM7      0.187000
@<TRIPOS>BOND
     1    1    2 1   
     2    1    6 1   
     3    1   24 1   
     4    1   25 1   
     5    2    3 1   
     6    2   26 1   
     7    2   27 1   
     8    3    4 1   
     9    3   29 1   
    10    4    5 1   
    11    4   30 1   
    12    4   31 1   
    13    5    6 1   
    14    5   32 1   
    15    5   33 1   
    16    6    7 1   
    17    6   28 1   
    18    7    8 1   
    19    7   34 1   
    20    8    9 1   
    21    8   35 1   
    22    8   36 1   
    23    9   10 1   
    24    9   11 1   
    25   10   14 1   
    26   10   37 1   
    27   11   12 1   
    28   12   13 1   
    29   12   38 1   
    30   13   14 1   
    31   14   15 1   
    32   15   16 1   
    33   15   39 1   
    34   16   17 1   
    35   16   23 1   
    36   17   18 1   
    37   17   40 1   
    38   18   19 1   
    39   19   20 1   
    40   19   22 1   
    41   20   21 1   
    42   22   23 1   
    43   22   41 1   
@<TRIPOS>SUBSTRUCTURE
     1 YM7         1 TEMP              0 ****  ****    0 ROOT
