@<TRIPOS>MOLECULE
YM7
   43    45     1     0     0
SMALL
bcc


@<TRIPOS>ATOM
      1 CAI         0.3650    0.3610    0.3510 c3        1 YM7     -0.086400
      2 CAG         1.6980    1.0510    0.0500 c3        1 YM7      0.171300
      3 NAP         2.1780    1.8150    1.1800 n3        1 YM7     -0.830200
      4 CAH         1.2360    2.8120    1.6370 c3        1 YM7      0.171300
      5 CAJ        -0.1210    2.1950    1.9970 c3        1 YM7     -0.086400
      6 CAW        -0.6660    1.3790    0.8350 c3        1 YM7     -0.091700
      7 CAK        -1.9180    0.5910    1.2360 c3        1 YM7      0.109800
      8 NAQ        -3.0500    1.5020    1.6390 n4        1 YM7     -0.760700
      9 C6         -4.2810    0.7560    1.9750 ca        1 YM7      0.543200
     10 C5         -5.4050    0.8270    1.1090 ca        1 YM7     -0.297600
     11 N1         -4.2790    0.0250    3.1230 nb        1 YM7     -0.624000
     12 C2         -5.4240   -0.6470    3.4110 ca        1 YM7      0.726900
     13 N3         -6.5620   -0.6600    2.6650 nb        1 YM7     -0.630000
     14 C4         -6.5370    0.0760    1.5240 ca        1 YM7      0.551200
     15 NAR        -7.7670    0.0790    0.6920 n4        1 YM7     -0.723400
     16 CAT        -8.6080    1.2660    0.9600 ca        1 YM7      0.290900
     17 CAE        -9.9290    1.1090    1.4620 ca        1 YM7      0.385900
     18 NAN       -10.7210    2.1820    1.6710 nb        1 YM7     -0.552000
     19 CAS       -10.2070    3.4010    1.3880 ca        1 YM7      0.509000
     20 CAB       -10.9910    4.5740    1.5810 cg        1 YM7      0.060800
     21 NAA       -11.6300    5.5340    1.7370 n1        1 YM7     -0.173800
     22 CAD        -8.8580    3.5480    0.8890 ca        1 YM7      0.350900
     23 NAO        -8.0660    2.4960    0.6840 nb        1 YM7     -0.636000
     24 HAI1        0.5200   -0.4260    1.1350 hc        1 YM7      0.055450
     25 HAI2        0.0010   -0.1390   -0.5840 hc        1 YM7      0.055450
     26 HAG1        1.5660    1.6840   -0.8770 h1        1 YM7      0.053700
     27 HAG2        2.4660    0.2580   -0.1800 h1        1 YM7      0.053700
     28 HAW        -0.9070    2.0710   -0.0210 hc        1 YM7      0.069700
     29 HAP         3.0760    2.2190    0.9950 hn        1 YM7      0.405800
     30 HAH1        1.0570    3.6240    0.8720 h1        1 YM7      0.053700
     31 HAH2        1.6670    3.2950    2.5600 h1        1 YM7      0.053700
     32 HAJ1       -0.0030    1.5410    2.9010 hc        1 YM7      0.055450
     33 HAJ2       -0.8170    3.0350    2.2550 hc        1 YM7      0.055450
     34 HAK1       -2.2730   -0.0390    0.3730 hx        1 YM7      0.117200
     35 HAK2       -1.6830   -0.0770    2.1170 hx        1 YM7      0.117200
     36 HAQ        -3.2510    2.1590    0.8740 hn        1 YM7      0.479800
     37 H5         -5.4130    1.4360    0.1900 ha        1 YM7      0.208000
     38 H2         -5.4320   -1.2520    4.3570 h5        1 YM7      0.141100
     39 HAR        -7.4890    0.0720   -0.3030 hn        1 YM7      0.495800
     40 HAE       -10.3860    0.1270    1.7040 h4        1 YM7      0.083100
     41 HAD        -8.4410    4.5510    0.6580 h4        1 YM7      0.092100
     42 HAQ2       -2.7400    2.0490    2.4650 hn        1 YM7      0.479800
     43 HAR2       -8.3340   -0.7660    0.8910 hn        1 YM7      0.495800
@<TRIPOS>BOND
     1    1    2 1   
     2    1    6 1   
     3    1   24 1   
     4    1   25 1   
     5    2    3 1   
     6    2   26 1   
     7    2   27 1   
     8    3    4 1   
     9    3   29 1   
    10    4    5 1   
    11    4   30 1   
    12    4   31 1   
    13    5    6 1   
    14    5   32 1   
    15    5   33 1   
    16    6    7 1   
    17    6   28 1   
    18    7    8 1   
    19    7   34 1   
    20    7   35 1   
    21    8    9 1   
    22    8   36 1   
    23    8   42 1   
    24    9   10 ar  
    25    9   11 ar  
    26   10   14 ar  
    27   10   37 1   
    28   11   12 ar  
    29   12   13 ar  
    30   12   38 1   
    31   13   14 ar  
    32   14   15 1   
    33   15   16 1   
    34   15   39 1   
    35   15   43 1   
    36   16   17 ar  
    37   16   23 ar  
    38   17   18 ar  
    39   17   40 1   
    40   18   19 ar  
    41   19   20 1   
    42   19   22 ar  
    43   20   21 3   
    44   22   23 ar  
    45   22   41 1   
@<TRIPOS>SUBSTRUCTURE
     1 YM7         1 TEMP              0 ****  ****    0 ROOT
