@<TRIPOS>MOLECULE
YM8
   46    48     1     0     0
SMALL
bcc


@<TRIPOS>ATOM
      1 CAA        -0.7860    0.9680    2.1340 c3        1 YM8     -0.122100
      2 CAB        -3.7300    4.0080   -0.3600 c3        1 YM8      0.163100
      3 CAC        -1.3640    4.1020   -0.8380 c3        1 YM8      0.163100
      4 NAD        -5.9290   -0.5490    0.5170 n1        1 YM8     -0.357800
      5 CAG         4.7310    0.1620    1.2130 ca        1 YM8     -0.103000
      6 CAH         5.4970    0.2300    0.0270 ca        1 YM8     -0.129000
      7 CAI         3.5110   -0.4680    1.2250 ca        1 YM8     -0.125000
      8 CAJ        -2.3650   -3.1790   -1.1580 ca        1 YM8      0.197900
      9 CAK         3.2020   -1.6250   -2.3210 ca        1 YM8      0.453200
     10 CAL         1.7460   -1.7270    0.0180 ca        1 YM8     -0.204300
     11 CAM        -2.1690    2.7280    0.9850 c3        1 YM8      0.170800
     12 NAN        -3.5710   -2.7300   -0.8120 nb        1 YM8     -0.543000
     13 NAO         2.0380   -2.2380   -2.3530 nb        1 YM8     -0.690000
     14 NAP        -1.2090   -1.2070   -0.2930 nb        1 YM8     -0.764000
     15 OAR        -2.6370    0.4420    0.6680 os        1 YM8     -0.423100
     16 CAS         5.0220   -0.3420   -1.1360 ca        1 YM8      0.047400
     17 CAT        -3.6430   -1.5200   -0.2010 ca        1 YM8      0.298000
     18 CAU        -1.1510   -2.4310   -0.8970 ca        1 YM8      0.587900
     19 CAV         1.2930   -2.2960   -1.1730 ca        1 YM8      0.597200
     20 CAW        -2.4450   -0.7610    0.0510 ca        1 YM8      0.613300
     21 CAX         3.0020   -1.0630    0.0390 ca        1 YM8      0.003000
     22 CAY         3.7650   -1.0020   -1.1550 ca        1 YM8     -0.167300
     23 CAZ        -1.5120    1.3340    0.8550 c3        1 YM8      0.147100
     24 NBA        -2.4590    3.3270   -0.3040 n3        1 YM8     -0.751600
     25 HAA         0.0460    1.6910    2.3110 hc        1 YM8      0.049033
     26 HAAA       -1.4850    0.9980    3.0030 hc        1 YM8      0.049033
     27 HAAB       -0.3560   -0.0590    2.0580 hc        1 YM8      0.049033
     28 HAB        -3.7830    4.9040    0.3170 h1        1 YM8      0.032867
     29 HABA       -3.9090    4.3500   -1.4140 h1        1 YM8      0.032867
     30 HABB       -4.5430    3.2910   -0.0730 h1        1 YM8      0.032867
     31 HAC        -0.4380    3.4690   -0.8460 h1        1 YM8      0.032867
     32 HACA       -1.6080    4.3960   -1.8920 h1        1 YM8      0.032867
     33 HACB       -1.1510    5.0360   -0.2470 h1        1 YM8      0.032867
     34 HAG         5.1330    0.6250    2.1280 ha        1 YM8      0.143000
     35 HAH         6.4720    0.7430    0.0470 ha        1 YM8      0.153000
     36 HAI         2.9100   -0.5250    2.1460 ha        1 YM8      0.143000
     37 HAJ        -2.3370   -4.1640   -1.6530 h4        1 YM8      0.043100
     38 HAK         3.7610   -1.6030   -3.2770 h4        1 YM8      0.039100
     39 HAL         1.1520   -1.7730    0.9430 ha        1 YM8      0.162000
     40 HAM        -3.1230    2.5990    1.5720 h1        1 YM8      0.051700
     41 HAMA       -1.4700    3.3680    1.5980 h1        1 YM8      0.051700
     42 HNAQ        0.0050   -3.6860   -1.9720 hn        1 YM8      0.442800
     43 HAZ        -0.8230    1.2890   -0.0290 h1        1 YM8      0.084700
     44 NAQ         0.0750   -3.0350   -1.2110 nh        1 YM8     -0.804600
     45 CAF        -4.9070   -0.9940    0.1910 cg        1 YM8      0.164800
     46 CL          5.9600   -0.2490   -2.5520 cl        1 YM8     -0.082400
@<TRIPOS>BOND
     1    1   23 1   
     2    1   25 1   
     3    1   26 1   
     4    1   27 1   
     5    2   24 1   
     6    2   28 1   
     7    2   29 1   
     8    2   30 1   
     9    3   24 1   
    10    3   31 1   
    11    3   32 1   
    12    3   33 1   
    13    4   45 3   
    14    5    6 ar  
    15    5    7 ar  
    16    5   34 1   
    17    6   16 ar  
    18    6   35 1   
    19    7   21 ar  
    20    7   36 1   
    21    8   12 ar  
    22    8   18 ar  
    23    8   37 1   
    24    9   13 ar  
    25    9   22 ar  
    26    9   38 1   
    27   10   19 ar  
    28   10   21 ar  
    29   10   39 1   
    30   11   23 1   
    31   11   24 1   
    32   11   40 1   
    33   11   41 1   
    34   12   17 ar  
    35   13   19 ar  
    36   14   18 ar  
    37   14   20 ar  
    38   15   20 1   
    39   15   23 1   
    40   16   22 ar  
    41   16   46 1   
    42   17   20 ar  
    43   17   45 1   
    44   18   44 1   
    45   19   44 1   
    46   21   22 ar  
    47   23   43 1   
    48   42   44 1   
@<TRIPOS>SUBSTRUCTURE
     1 YM8         1 TEMP              0 ****  ****    0 ROOT
