@<TRIPOS>MOLECULE
YM8
   46    40     1     0     0
SMALL
bcc


@<TRIPOS>ATOM
      1 CAA        -3.6460   -2.7320   -0.8300 c3        1 YM8     -0.241000
      2 CAB        -0.4770   -5.7690   -1.1580 c3        1 YM8     -0.112000
      3 CAC         0.2760   -4.4200   -2.9610 c3        1 YM8     -0.112000
      4 NAD        -1.8060   -3.8440    2.9500 n1        1 YM8     -0.030000
      5 CL          3.7540    6.4330    3.6330 cl        1 YM8     -0.003000
      6 CAF        -1.6790   -2.8220    2.4970 c1        1 YM8     -0.056000
      7 CAG         4.1720    5.8420   -0.2290 c1        1 YM8     -0.114000
      8 CAH         4.1640    6.3700    1.0530 c1        1 YM8     -0.134000
      9 CAI         3.2510    4.8380   -0.5810 c1        1 YM8     -0.114000
     10 CAJ        -1.0740    0.8200    2.1300 c1        1 YM8     -0.137000
     11 CAK         1.3120    4.4890    2.5820 c1        1 YM8      0.000000
     12 CAL         1.3690    3.4570   -0.0050 c1        1 YM8     -0.206000
     13 CAM        -1.8890   -4.0700   -1.9550 c3        1 YM8     -0.066000
     14 NAN        -1.3360   -0.3940    2.6780 n1        1 YM8     -0.035000
     15 NAO         0.3680    3.5860    2.2130 n1        1 YM8     -0.201000
     16 NAP        -1.1570   -0.0950   -0.0460 n1        1 YM8     -0.201000
     17 NAQ        -0.7160    2.3900    0.3720 n3        1 YM8     -0.217000
     18 OAR        -1.3680   -2.6440   -0.1080 os        1 YM8     -0.184000
     19 CAS         3.2490    5.9070    1.9890 c2        1 YM8     -0.025000
     20 CAT        -1.5090   -1.4590    1.8900 c1        1 YM8     -0.049000
     21 CAU        -0.9850    0.9570    0.7280 c1        1 YM8      0.108000
     22 CAV         0.3710    3.0580    0.9390 c1        1 YM8      0.108000
     23 CAW        -1.4220   -1.3240    0.5110 c1        1 YM8      0.165000
     24 CAX         2.3330    4.3750    0.3600 c1        1 YM8      0.022000
     25 CAY         2.3280    4.9020    1.6370 c2        1 YM8     -0.116000
     26 CAZ        -2.1850   -2.7640   -1.2510 c3        1 YM8      0.037000
     27 NBA        -0.5080   -4.4590   -1.6960 n3        1 YM8     -0.277000
     28 HAA        -3.7810   -3.3390    0.0350 hc        1 YM8      0.089333
     29 HAAA       -3.8940   -1.8450   -0.6310 hc        1 YM8      0.089333
     30 HAAB       -4.2200   -3.0820   -1.5790 hc        1 YM8      0.089333
     31 HAB         0.5030   -6.0590   -1.0190 h1        1 YM8      0.071833
     32 HABA       -0.9360   -6.4100   -1.7990 h1        1 YM8      0.071833
     33 HABB       -0.9670   -5.7780   -0.2580 h1        1 YM8      0.071833
     34 HAC         1.2370   -4.6070   -2.7600 h1        1 YM8      0.071833
     35 HACA       -0.0710   -5.1040   -3.5850 h1        1 YM8      0.071833
     36 HACB        0.2010   -3.6100   -3.3340 h1        1 YM8      0.071833
     37 HAG         4.7870    6.1540   -0.8570 ha        1 YM8      0.143000
     38 HAH         4.7500    7.0090    1.2780 ha        1 YM8      0.153000
     39 HAI         3.2560    4.4460   -1.5320 ha        1 YM8      0.143000
     40 HAJ        -0.9430    1.6190    2.7230 ha        1 YM8      0.193000
     41 HAK         1.3030    4.8760    3.5240 ha        1 YM8      0.179000
     42 HAL         1.3660    3.0780   -0.9070 ha        1 YM8      0.151000
     43 HAM        -2.0280   -3.9500   -2.9670 h1        1 YM8      0.091000
     44 HAMA       -2.5320   -4.8080   -1.6040 h1        1 YM8      0.091000
     45 HNAQ       -1.2190    2.7960   -0.2050 hn        1 YM8      0.228000
     46 HAZ        -2.0020   -2.0140   -1.8630 h1        1 YM8      0.121000
@<TRIPOS>BOND
     1    1   26 1   
     2    1   28 1   
     3    1   29 1   
     4    1   30 1   
     5    2   27 1   
     6    2   31 1   
     7    2   32 1   
     8    2   33 1   
     9    3   27 1   
    10    3   34 1   
    11    3   35 1   
    12    3   36 1   
    13    4    6 1   
    14    5   19 1   
    15    7    9 1   
    16    7   37 1   
    17    8   19 1   
    18    8   38 1   
    19    9   39 1   
    20   10   14 1   
    21   10   40 1   
    22   11   25 1   
    23   11   41 1   
    24   12   24 1   
    25   12   42 1   
    26   13   26 1   
    27   13   27 1   
    28   13   43 1   
    29   13   44 1   
    30   15   22 1   
    31   16   21 1   
    32   17   21 1   
    33   17   22 1   
    34   17   45 1   
    35   18   23 1   
    36   18   26 1   
    37   19   25 1   
    38   20   23 1   
    39   24   25 1   
    40   26   46 1   
@<TRIPOS>SUBSTRUCTURE
     1 YM8         1 TEMP              0 ****  ****    0 ROOT
