@<TRIPOS>MOLECULE
YM8
   47    48     1     0     0
SMALL
bcc


@<TRIPOS>ATOM
      1 CAA         3.4730    1.0070   -1.1510 c3        1 YM8     -0.318000
      2 CAB         3.0730   -3.4040    0.6500 c3        1 YM8     -0.155667
      3 CAC         3.6100   -3.1180   -1.6830 c3        1 YM8     -0.155667
      4 NAD         4.2010   -0.3360    4.2400 n1        1 YM8      0.044000
      5 CAG        -1.2060    7.2810   -3.8920 ca        1 YM8     -0.085000
      6 CAH        -0.4960    6.5490   -4.8700 ca        1 YM8     -0.108000
      7 CAI        -0.9260    7.1240   -2.5550 ca        1 YM8     -0.124000
      8 CAJ         2.7370    3.9840    2.9500 c2        1 YM8     -0.135000
      9 CAK         1.8190    4.5830   -2.6400 c2        1 YM8     -0.012000
     10 CAL         0.4080    6.0300   -0.7720 c2        1 YM8     -0.161000
     11 CAM         1.3190   -2.9670   -0.9460 c3        1 YM8     -0.155667
     12 NAN         3.2180    2.9580    3.6330 n2        1 YM8     -0.005000
     13 NAO         2.1290    4.3980   -1.3710 n2        1 YM8     -0.165000
     14 NAP         2.2840    2.6530    0.9460 n2        1 YM8     -0.192000
     15 OAR         2.7470    0.3360    1.1150 os        1 YM8     -0.031000
     16 CAS         0.4920    5.6620   -4.4910 ca        1 YM8     -0.039000
     17 CAT         3.2650    1.7360    3.0110 c2        1 YM8      0.010000
     18 CAU         2.2540    3.8760    1.5660 c2        1 YM8      0.175000
     19 CAV         1.4200    5.1300   -0.4230 c2        1 YM8      0.079000
     20 CAW         2.7880    1.6390    1.6820 c2        1 YM8      0.045000
     21 CAX         0.0880    6.2200   -2.1430 ca        1 YM8      0.008000
     22 CAY         0.8060    5.4800   -3.1170 ca        1 YM8     -0.096000
     23 CAZ         3.0310    0.0750   -0.1280 c2        1 YM8      0.218000
     24 NBA         2.7160   -2.7420   -0.5980 n3        1 YM8     -0.278000
     25 HAA         4.1980    1.7720   -0.7600 hc        1 YM8      0.173667
     26 HAAA        3.9410    0.4550   -2.0080 hc        1 YM8      0.173667
     27 HAAB        2.5880    1.5900   -1.5480 hc        1 YM8      0.173667
     28 HAB         2.9640   -4.5200    0.5900 h1        1 YM8      0.094556
     29 HABA        4.1380   -3.1620    0.9030 h1        1 YM8      0.094556
     30 HABB        2.4070   -3.0230    1.4690 h1        1 YM8      0.094556
     31 HAC         3.3420   -2.5280   -2.5990 h1        1 YM8      0.094556
     32 HACA        4.6660   -2.8820   -1.3890 h1        1 YM8      0.094556
     33 HACB        3.5470   -4.2120   -1.9330 h1        1 YM8      0.094556
     34 HAG        -1.9910    7.9820   -4.2210 ha        1 YM8      0.158000
     35 HAH        -0.7430    6.6970   -5.9350 ha        1 YM8      0.166000
     36 HAI        -1.4770    7.6930   -1.7900 ha        1 YM8      0.152000
     37 HAJ         2.7140    4.9550    3.4820 h4        1 YM8      0.204000
     38 HAK         2.4120    3.9950   -3.3690 h4        1 YM8      0.174000
     39 HAL        -0.1490    6.6030   -0.0150 ha        1 YM8      0.158000
     40 HAM         0.6700   -2.6040   -0.1070 h1        1 YM8      0.094556
     41 HAMA        1.0920   -4.0510   -1.1300 h1        1 YM8      0.094556
     42 HNAQ        1.7060    5.8330    1.4940 hn        1 YM8      0.269000
     43 HAZ         1.0760   -2.3890   -1.8760 h1        1 YM8      0.094556
     44 CAF         3.7820    0.6000    3.6920 c1        1 YM8     -0.101000
     45 HBA1        2.8940   -1.0860   -0.3340 h4        1 YM8      0.309000
     46 NAQ         1.7550    4.9970    0.9510 nu        1 YM8     -0.233000
     47 Cl          1.3340    4.7890   -5.6810 cl        1 YM8      0.008000
@<TRIPOS>BOND
     1    1   23 1   
     2    1   25 1   
     3    1   26 1   
     4    1   27 1   
     5    2   24 1   
     6    2   28 1   
     7    2   29 1   
     8    2   30 1   
     9    3   24 1   
    10    3   31 1   
    11    3   32 1   
    12    3   33 1   
    13    4   44 1   
    14    5    6 1   
    15    5    7 1   
    16    5   34 1   
    17    6   16 1   
    18    6   35 1   
    19    7   21 1   
    20    7   36 1   
    21    8   12 1   
    22    8   18 1   
    23    8   37 1   
    24    9   13 1   
    25    9   22 1   
    26    9   38 1   
    27   10   19 1   
    28   10   21 1   
    29   10   39 1   
    30   11   24 1   
    31   11   40 1   
    32   11   41 1   
    33   11   43 1   
    34   12   17 1   
    35   13   19 1   
    36   14   18 1   
    37   14   20 1   
    38   15   20 1   
    39   15   23 1   
    40   16   22 1   
    41   16   47 1   
    42   17   20 1   
    43   17   44 1   
    44   18   46 1   
    45   19   46 1   
    46   21   22 1   
    47   23   45 1   
    48   42   46 1   
@<TRIPOS>SUBSTRUCTURE
     1 YM8         1 TEMP              0 ****  ****    0 ROOT
