@<TRIPOS>MOLECULE
YM8
   48    50     1     0     0
SMALL
bcc


@<TRIPOS>ATOM
      1 CAA         2.3270    0.0390   -1.8720 c3        1 YM8     -0.128100
      2 CAB         3.5210   -4.0000    0.6170 c3        1 YM8      0.081600
      3 CAC         5.2210   -2.2530    0.8180 c3        1 YM8      0.081600
      4 NAD         4.1310   -0.6860    3.4900 n1        1 YM8     -0.342800
      5 CAG        -0.0970    8.2750   -4.2140 ca        1 YM8     -0.152000
      6 CAH        -1.2780    7.5790   -4.4980 ca        1 YM8      0.070000
      7 CAI         0.8200    7.7660   -3.3120 ca        1 YM8      0.036000
      8 CAJ         2.2230    3.5180    2.3670 ca        1 YM8      0.279900
      9 CAK        -0.8740    4.5430   -2.2440 ce        1 YM8      0.057000
     10 CAL         1.4440    6.0020   -1.7290 c2        1 YM8      0.127800
     11 CAM         3.2860   -1.9130   -0.6750 c3        1 YM8      0.091800
     12 NAN         2.7450    2.5020    3.0510 nb        1 YM8     -0.524000
     13 NAO        -0.0670    4.0130   -1.3940 n2        1 YM8     -0.373200
     14 NAP         2.4080    2.3740    0.2100 nb        1 YM8     -0.708000
     15 OAR         3.4830    0.2510    0.2770 os        1 YM8     -0.479100
     16 CAS        -1.5610    6.3420   -3.8710 ca        1 YM8     -0.009600
     17 CAT         3.1180    1.4000    2.3440 ca        1 YM8      0.353000
     18 CAU         2.0550    3.4820    0.9240 ca        1 YM8      0.548900
     19 CAV         1.2230    4.6380   -1.1140 c3        1 YM8      0.361900
     20 CAW         2.9520    1.3570    0.9250 ca        1 YM8      0.558300
     21 CAX         0.5650    6.5180   -2.6600 ca        1 YM8     -0.162000
     22 CAY        -0.6570    5.8080   -2.9600 ca        1 YM8      0.015000
     23 CAZ         2.5730   -0.5530   -0.5000 c3        1 YM8      0.143100
     24 NBA         3.7730   -2.5340    0.6000 n4        1 YM8     -0.671400
     25 HAA         1.5710    0.8580   -1.8100 hc        1 YM8      0.073033
     26 HAAA        1.9370   -0.7450   -2.5670 hc        1 YM8      0.073033
     27 HAAB        3.2750    0.4580   -2.2900 hc        1 YM8      0.073033
     28 HAB         2.4170   -4.1940    0.5490 hx        1 YM8      0.111200
     29 HABA        4.0460   -4.4830   -0.2500 hx        1 YM8      0.111200
     30 HABB        3.9170   -4.4290    1.5790 hx        1 YM8      0.111200
     31 HAC         5.3870   -1.1420    0.7640 hx        1 YM8      0.111200
     32 HACA        5.5200   -2.6320    1.8330 hx        1 YM8      0.111200
     33 HACB        5.8280   -2.7700    0.0280 hx        1 YM8      0.111200
     34 HAG         0.0980    9.2400   -4.7200 ha        1 YM8      0.202000
     35 HAH        -2.0040    8.0010   -5.2240 ha        1 YM8      0.206000
     36 HAI         1.7550    8.3130   -3.0890 ha        1 YM8      0.185000
     37 HAJ         1.9290    4.4040    2.9640 h4        1 YM8      0.072100
     38 HAK        -1.8230    3.9940   -2.4460 h4        1 YM8      0.217000
     39 HAL         2.3630    6.5500   -1.4360 ha        1 YM8      0.200000
     40 HAM         2.5500   -2.6150   -1.1650 hx        1 YM8      0.118700
     41 HAMA        4.1700   -1.7790   -1.3640 hx        1 YM8      0.118700
     42 HNAQ        1.9890    3.9760   -1.6760 h2        1 YM8      0.177700
     43 HAZ         1.6110   -0.6790    0.0680 h1        1 YM8      0.075700
     44 CAF         3.6770    0.2670    3.0030 cg        1 YM8      0.154800
     45 HBA1        3.2520   -2.1090    1.3800 hn        1 YM8      0.454800
     46 HAQ2        0.9540    5.1640    0.8720 hn        1 YM8      0.433800
     47 NAQ         1.6110    4.6670    0.2950 nh        1 YM8     -0.787900
     48 CL         -3.0030    5.5600   -4.2560 cl        1 YM8      0.025600
@<TRIPOS>BOND
     1    1   23 1   
     2    1   25 1   
     3    1   26 1   
     4    1   27 1   
     5    2   24 1   
     6    2   28 1   
     7    2   29 1   
     8    2   30 1   
     9    3   24 1   
    10    3   31 1   
    11    3   32 1   
    12    3   33 1   
    13    4   44 3   
    14    5    6 ar  
    15    5    7 ar  
    16    5   34 1   
    17    6   16 ar  
    18    6   35 1   
    19    7   21 ar  
    20    7   36 1   
    21    8   12 ar  
    22    8   18 ar  
    23    8   37 1   
    24    9   13 1   
    25    9   22 2   
    26    9   38 1   
    27   10   19 1   
    28   10   21 2   
    29   10   39 1   
    30   11   23 1   
    31   11   24 1   
    32   11   40 1   
    33   11   41 1   
    34   12   17 ar  
    35   13   19 1   
    36   14   18 ar  
    37   14   20 ar  
    38   15   20 1   
    39   15   23 1   
    40   16   22 ar  
    41   16   48 1   
    42   17   20 ar  
    43   17   44 1   
    44   18   47 1   
    45   19   42 1   
    46   19   47 1   
    47   21   22 ar  
    48   23   43 1   
    49   24   45 1   
    50   46   47 1   
@<TRIPOS>SUBSTRUCTURE
     1 YM8         1 TEMP              0 ****  ****    0 ROOT
