@<TRIPOS>MOLECULE
YMA
   68    67     1     0     0
SMALL
bcc


@<TRIPOS>ATOM
      1 O8         -1.6610   -1.3980   -1.4760 o         1 YMA     -0.791300
      2 C2         -0.6670   -1.4280   -0.6960 c         1 YMA      0.907600
      3 O7         -0.6370   -1.9580    0.4360 o         1 YMA     -0.791300
      4 C1          0.6880   -0.8900   -1.2720 c3        1 YMA     -0.057200
      5 N1          0.7620   -1.2000   -2.7350 nx        1 YMA     -0.666400
      6 C10         1.7750   -0.3700   -3.4500 c3        1 YMA      0.084300
      7 C11         1.2500    1.0420   -3.7900 c3        1 YMA      0.079300
      8 N3          2.3060    1.8950   -4.4080 nx        1 YMA     -0.661900
      9 C14         1.7830    3.2830   -4.6700 c3        1 YMA      0.037300
     10 C15         2.8650    4.3460   -4.4180 c         1 YMA      0.525100
     11 N5          3.3500    5.1680   -5.5530 ny        1 YMA     -0.665300
     12 C16         3.3020    6.6430   -5.2870 c3        1 YMA      0.103300
     13 C18         4.0910    7.4400   -6.3130 c3        1 YMA     -0.058800
     14 S2          4.0690    9.1150   -5.7900 sh        1 YMA     -0.256900
     15 O6          3.3240    4.5240   -3.2960 o         1 YMA     -0.386600
     16 C12         2.8440    1.3100   -5.6910 c3        1 YMA     -0.073200
     17 C13         3.7020    2.4460   -6.3400 c         1 YMA      0.913600
     18 O4          3.2080    3.0350   -7.3290 o         1 YMA     -0.761300
     19 O3          4.6930    2.8250   -5.6570 o         1 YMA     -0.761300
     20 C3          1.0620   -2.6510   -2.9840 c3        1 YMA      0.084300
     21 C4          0.1170   -3.5800   -2.1960 c3        1 YMA      0.079300
     22 N2          0.1580   -5.0080   -2.6320 nx        1 YMA     -0.661900
     23 C5          1.5550   -5.5450   -2.6550 c3        1 YMA     -0.073200
     24 C6          2.2970   -4.9060   -3.9210 c         1 YMA      0.913600
     25 O2          1.5420   -4.7140   -4.9110 o         1 YMA     -0.761300
     26 O1          3.4730   -4.5690   -3.7240 o         1 YMA     -0.761300
     27 C7         -0.7370   -5.8180   -1.7590 c3        1 YMA      0.037300
     28 C8         -2.1790   -5.3230   -1.7860 c         1 YMA      0.525100
     29 O5         -2.7730   -4.9790   -2.7980 o         1 YMA     -0.386600
     30 N4         -2.9290   -5.2740   -0.4980 ny        1 YMA     -0.665300
     31 C9         -2.4320   -4.1730    0.4080 c3        1 YMA      0.103300
     32 C17        -3.2620   -4.0240    1.6710 c3        1 YMA     -0.058800
     33 S1         -2.2190   -3.5020    2.9800 sh        1 YMA     -0.256900
     34 H11         1.5530   -1.3650   -0.7370 hx        1 YMA      0.106200
     35 H12         0.7180    0.2210   -1.1240 hx        1 YMA      0.106200
     36 H101        2.6940   -0.3090   -2.7940 hx        1 YMA      0.145450
     37 H102        2.0640   -0.9030   -4.4090 hx        1 YMA      0.145450
     38 H111        0.3930    0.9680   -4.5220 hx        1 YMA      0.121950
     39 H112        0.8820    1.5550   -2.8530 hx        1 YMA      0.121950
     40 H141        1.3900    3.3190   -5.7330 hx        1 YMA      0.150200
     41 H142        0.9360    3.5140   -3.9560 hx        1 YMA      0.150200
     42 HN5         4.3460    4.8670   -5.7240 hn        1 YMA      0.492300
     43 H161        3.7330    6.8210   -4.2560 hx        1 YMA      0.125950
     44 H162        2.2200    6.9580   -5.2920 hx        1 YMA      0.125950
     45 H181        3.6850    7.3010   -7.3450 h1        1 YMA      0.107950
     46 H182        5.1680    7.1220   -6.3270 h1        1 YMA      0.107950
     47 HS2         3.1250    9.5940   -6.5860 hs        1 YMA      0.232300
     48 H121        3.4950    0.4290   -5.4490 hx        1 YMA      0.113200
     49 H122        1.9960    1.0190   -6.3640 hx        1 YMA      0.113200
     50 H31         2.1370   -2.8530   -2.6850 hx        1 YMA      0.145450
     51 H32         0.9650   -2.8450   -4.1020 hx        1 YMA      0.145450
     52 H41         0.3930   -3.5440   -1.0980 hx        1 YMA      0.121950
     53 H42        -0.9540   -3.2240   -2.3260 hx        1 YMA      0.121950
     54 H51         1.5290   -6.6570   -2.7970 hx        1 YMA      0.113200
     55 H52         2.0900   -5.2820   -1.7090 hx        1 YMA      0.113200
     56 H71        -0.7390   -6.8850   -2.1480 hx        1 YMA      0.150200
     57 H72        -0.3080   -5.8190   -0.7140 hx        1 YMA      0.150200
     58 HN4        -2.8490   -6.1750   -0.0100 hn        1 YMA      0.492300
     59 H91        -1.3600   -4.4040    0.6830 hx        1 YMA      0.125950
     60 H92        -2.4450   -3.1970   -0.1790 hx        1 YMA      0.125950
     61 H171       -4.1080   -3.3130    1.4910 h1        1 YMA      0.107950
     62 H172       -3.7010   -4.9930    2.0270 h1        1 YMA      0.107950
     63 HS1        -1.8420   -2.3090    2.5170 hs        1 YMA      0.232300
     64 H113       -0.1920   -1.0080   -3.1070 hn        1 YMA      0.475800
     65 H311        3.1100    1.9720   -3.7580 hn        1 YMA      0.490800
     66 H521        2.8440    4.9250   -6.4250 hn        1 YMA      0.492300
     67 H21        -0.1580   -5.0560   -3.6340 hn        1 YMA      0.490800
     68 H421       -3.9290   -5.1050   -0.7000 hn        1 YMA      0.492300
@<TRIPOS>BOND
     1    1    2 1   
     2    2    3 1   
     3    2    4 1   
     4    4    5 1   
     5    4   34 1   
     6    4   35 1   
     7    5    6 1   
     8    5   20 1   
     9    5   64 1   
    10    6    7 1   
    11    6   36 1   
    12    6   37 1   
    13    7    8 1   
    14    7   38 1   
    15    7   39 1   
    16    8    9 1   
    17    8   16 1   
    18    8   65 1   
    19    9   10 1   
    20    9   40 1   
    21    9   41 1   
    22   10   11 1   
    23   10   15 2   
    24   11   12 1   
    25   11   42 1   
    26   11   66 1   
    27   12   13 1   
    28   12   43 1   
    29   12   44 1   
    30   13   14 1   
    31   13   45 1   
    32   13   46 1   
    33   14   47 1   
    34   16   17 1   
    35   16   48 1   
    36   16   49 1   
    37   17   18 1   
    38   17   19 1   
    39   20   21 1   
    40   20   50 1   
    41   20   51 1   
    42   21   22 1   
    43   21   52 1   
    44   21   53 1   
    45   22   23 1   
    46   22   27 1   
    47   22   67 1   
    48   23   24 1   
    49   23   54 1   
    50   23   55 1   
    51   24   25 1   
    52   24   26 1   
    53   27   28 1   
    54   27   56 1   
    55   27   57 1   
    56   28   29 2   
    57   28   30 1   
    58   30   31 1   
    59   30   58 1   
    60   30   68 1   
    61   31   32 1   
    62   31   59 1   
    63   31   60 1   
    64   32   33 1   
    65   32   61 1   
    66   32   62 1   
    67   33   63 1   
@<TRIPOS>SUBSTRUCTURE
     1 YMA         1 TEMP              0 ****  ****    0 ROOT
