@<TRIPOS>MOLECULE
YMA
   63    62     1     0     0
SMALL
bcc


@<TRIPOS>ATOM
      1 O8          4.8080   -0.6250    0.5280 o         1 YMA     -0.858800
      2 C2          4.0390   -0.5040   -0.4690 c         1 YMA      0.919600
      3 O7          4.3860    0.0290   -1.5630 o         1 YMA     -0.858800
      4 C1          2.6260   -1.1410   -0.3760 c3        1 YMA      0.050800
      5 N1          1.5710   -0.2010   -0.0170 n3        1 YMA     -0.723600
      6 C10         0.6640    0.0990   -1.1200 c3        1 YMA      0.185300
      7 C11         1.3620    0.8690   -2.2650 c3        1 YMA      0.160300
      8 N3          0.5150    0.9980   -3.4500 n3        1 YMA     -0.741100
      9 C14         1.2660    1.3590   -4.6350 c3        1 YMA      0.114800
     10 C15         0.9290    0.5560   -5.9010 c         1 YMA      0.659600
     11 N5         -0.2380   -0.1890   -5.9710 n         1 YMA     -0.524900
     12 C16        -0.7880   -0.5590   -7.2450 c3        1 YMA      0.093500
     13 C18        -1.7540    0.4680   -7.8300 c3        1 YMA     -0.008800
     14 S2         -2.5550   -0.1370   -9.2950 sh        1 YMA     -0.458900
     15 O6          1.7350    0.5790   -6.8640 o         1 YMA     -0.692100
     16 C12        -0.6640    1.8170   -3.2120 c3        1 YMA      0.055800
     17 C13        -1.4360    2.2830   -4.4690 c         1 YMA      0.901600
     18 O4         -1.1590    3.4100   -4.9670 o         1 YMA     -0.862050
     19 O3         -2.3480    1.5310   -4.9360 o         1 YMA     -0.862050
     20 C3          0.8390   -0.5960    1.1840 c3        1 YMA      0.185300
     21 C4          1.6970   -0.4210    2.4600 c3        1 YMA      0.160300
     22 N2          0.9970   -0.8240    3.6820 n3        1 YMA     -0.741100
     23 C5          0.9540   -2.2670    3.8550 c3        1 YMA      0.055800
     24 C6          0.0940   -2.8200    5.0140 c         1 YMA      0.901600
     25 O2         -0.5320   -3.8960    4.7970 o         1 YMA     -0.862050
     26 O1          0.0710   -2.2410    6.1460 o         1 YMA     -0.862050
     27 C7          1.4720   -0.1080    4.8490 c3        1 YMA      0.114800
     28 C8          0.4370    0.8440    5.4690 c         1 YMA      0.659600
     29 O5          0.7850    1.9740    5.8870 o         1 YMA     -0.692100
     30 N4         -0.8710    0.4070    5.5800 n         1 YMA     -0.524900
     31 C9         -1.8180    1.1060    6.3940 c3        1 YMA      0.093500
     32 C17        -1.8320    0.6890    7.8640 c3        1 YMA     -0.008800
     33 S1         -2.9610    1.6630    8.8300 sh        1 YMA     -0.458900
     34 H11         2.4110   -1.6230   -1.3730 h1        1 YMA      0.014700
     35 H12         2.6890   -1.9710    0.3850 h1        1 YMA      0.014700
     36 H101        0.1950   -0.8400   -1.5390 h1        1 YMA      0.016950
     37 H102       -0.1720    0.7430   -0.7230 h1        1 YMA      0.016950
     38 H111        1.6650    1.8820   -1.8710 h1        1 YMA      0.059700
     39 H112        2.3150    0.3230   -2.5410 h1        1 YMA      0.059700
     40 H141        2.3730    1.2190   -4.4710 h1        1 YMA      0.073950
     41 H142        1.0840    2.4370   -4.9350 h1        1 YMA      0.073950
     42 HN5        -0.9320   -0.0020   -5.2640 hn        1 YMA      0.359500
     43 H161       -1.3410   -1.5320   -7.1050 h1        1 YMA      0.044200
     44 H162        0.0550   -0.7310   -7.9730 h1        1 YMA      0.044200
     45 H181       -1.2190    1.4220   -8.0530 h1        1 YMA      0.100950
     46 H182       -2.5710    0.7080   -7.0940 h1        1 YMA      0.100950
     47 HS2        -1.4900   -0.4030  -10.0280 hs        1 YMA      0.195800
     48 H121       -1.3630    1.1900   -2.5910 h1        1 YMA      0.026450
     49 H122       -0.4050    2.7430   -2.6200 h1        1 YMA      0.026450
     50 H31         0.4780   -1.6640    1.1170 h1        1 YMA      0.016950
     51 H32        -0.0730    0.0570    1.2860 h1        1 YMA      0.016950
     52 H41         1.9580    0.6730    2.5380 h1        1 YMA      0.059700
     53 H42         2.6670   -0.9870    2.3330 h1        1 YMA      0.059700
     54 H51         1.9900   -2.6940    4.0020 h1        1 YMA      0.026450
     55 H52         0.5410   -2.7030    2.9020 h1        1 YMA      0.026450
     56 H71         2.3780    0.5270    4.6250 h1        1 YMA      0.073950
     57 H72         1.7360   -0.8240    5.6840 h1        1 YMA      0.073950
     58 HN4        -1.0140   -0.5840    5.4710 hn        1 YMA      0.359500
     59 H91        -2.8450    0.9260    5.9630 h1        1 YMA      0.044200
     60 H92        -1.5960    2.2110    6.3370 h1        1 YMA      0.044200
     61 H171       -0.8060    0.7630    8.2970 h1        1 YMA      0.100950
     62 H172       -2.1840   -0.3670    7.9730 h1        1 YMA      0.100950
     63 HS1        -2.5310    2.8720    8.5120 hs        1 YMA      0.195800
@<TRIPOS>BOND
     1    1    2 1   
     2    2    3 1   
     3    2    4 1   
     4    4    5 1   
     5    4   34 1   
     6    4   35 1   
     7    5    6 1   
     8    5   20 1   
     9    6    7 1   
    10    6   36 1   
    11    6   37 1   
    12    7    8 1   
    13    7   38 1   
    14    7   39 1   
    15    8    9 1   
    16    8   16 1   
    17    9   10 1   
    18    9   40 1   
    19    9   41 1   
    20   10   11 1   
    21   10   15 2   
    22   11   12 1   
    23   11   42 1   
    24   12   13 1   
    25   12   43 1   
    26   12   44 1   
    27   13   14 1   
    28   13   45 1   
    29   13   46 1   
    30   14   47 1   
    31   16   17 1   
    32   16   48 1   
    33   16   49 1   
    34   17   18 1   
    35   17   19 1   
    36   20   21 1   
    37   20   50 1   
    38   20   51 1   
    39   21   22 1   
    40   21   52 1   
    41   21   53 1   
    42   22   23 1   
    43   22   27 1   
    44   23   24 1   
    45   23   54 1   
    46   23   55 1   
    47   24   25 1   
    48   24   26 1   
    49   27   28 1   
    50   27   56 1   
    51   27   57 1   
    52   28   29 2   
    53   28   30 1   
    54   30   31 1   
    55   30   58 1   
    56   31   32 1   
    57   31   59 1   
    58   31   60 1   
    59   32   33 1   
    60   32   61 1   
    61   32   62 1   
    62   33   63 1   
@<TRIPOS>SUBSTRUCTURE
     1 YMA         1 TEMP              0 ****  ****    0 ROOT
