@<TRIPOS>MOLECULE
YMA
   68    67     1     0     0
SMALL
bcc


@<TRIPOS>ATOM
      1 O8         -1.7630   -1.4760   -1.7310 o         1 YMA     -0.791300
      2 C2         -0.8830   -1.3710   -0.8300 c         1 YMA      0.906600
      3 O7         -0.9710   -1.8090    0.3370 o         1 YMA     -0.791300
      4 C1          0.4980   -0.7750   -1.2710 c3        1 YMA     -0.057200
      5 N1          0.7880   -1.1870   -2.6810 n4        1 YMA     -0.666400
      6 C10         1.8310   -0.3380   -3.3270 c3        1 YMA      0.084300
      7 C11         1.2640    1.0020   -3.8460 c3        1 YMA      0.079800
      8 N3          2.3320    1.8770   -4.4100 n4        1 YMA     -0.662400
      9 C14         1.7580    3.1990   -4.8490 c3        1 YMA      0.038300
     10 C15         2.7540    4.3470   -4.6100 c         1 YMA      0.527100
     11 N5          3.2540    5.1200   -5.7730 n4        1 YMA     -0.663800
     12 C16         3.0450    6.5980   -5.6350 c3        1 YMA      0.101800
     13 C18         3.6690    7.3800   -6.7800 c3        1 YMA     -0.057800
     14 S2          3.1180    9.0390   -6.6370 sh        1 YMA     -0.261900
     15 O6          3.1240    4.6380   -3.4790 o         1 YMA     -0.387600
     16 C12         3.0540    1.2350   -5.5690 c3        1 YMA     -0.073200
     17 C13         3.9010    2.3780   -6.2200 c         1 YMA      0.913100
     18 O4          3.5080    2.8230   -7.3210 o         1 YMA     -0.760800
     19 O3          4.7560    2.9090   -5.4570 o         1 YMA     -0.760800
     20 C3          1.2140   -2.6250   -2.7660 c3        1 YMA      0.084300
     21 C4          0.2340   -3.5630   -2.0320 c3        1 YMA      0.079800
     22 N2          0.4260   -5.0120   -2.3390 n4        1 YMA     -0.662400
     23 C5          1.8450   -5.4420   -2.1340 c3        1 YMA     -0.073200
     24 C6          2.7110   -4.8430   -3.3400 c         1 YMA      0.913100
     25 O2          2.0880   -4.7820   -4.4330 o         1 YMA     -0.760800
     26 O1          3.8240   -4.4050   -3.0190 o         1 YMA     -0.760800
     27 C7         -0.5250   -5.8200   -1.5260 c3        1 YMA      0.038300
     28 C8         -1.9780   -5.4380   -1.7820 c         1 YMA      0.527100
     29 O5         -2.4510   -5.2160   -2.8890 o         1 YMA     -0.387600
     30 N4         -2.8980   -5.3490   -0.6110 n4        1 YMA     -0.663800
     31 C9         -2.6010   -4.1490    0.2560 c3        1 YMA      0.101800
     32 C17        -3.6020   -3.9700    1.3840 c3        1 YMA     -0.057800
     33 S1         -2.7800   -3.2800    2.7710 sh        1 YMA     -0.261900
     34 H11         1.3140   -1.1420   -0.5910 hx        1 YMA      0.105700
     35 H12         0.4350    0.3430   -1.2140 hx        1 YMA      0.105700
     36 H101        2.6490   -0.1590   -2.5680 hx        1 YMA      0.145450
     37 H102        2.2780   -0.9160   -4.1940 hx        1 YMA      0.145450
     38 H111        0.5070    0.8100   -4.6630 hx        1 YMA      0.121950
     39 H112        0.7560    1.5600   -3.0050 hx        1 YMA      0.121950
     40 H141        1.4640    3.1110   -5.9400 hx        1 YMA      0.149450
     41 H142        0.8390    3.4400   -4.2350 hx        1 YMA      0.149450
     42 HN5         4.2830    4.9050   -5.8450 hn        1 YMA      0.491550
     43 H161        3.4980    6.9140   -4.6500 hx        1 YMA      0.125950
     44 H162        1.9330    6.7890   -5.6040 hx        1 YMA      0.125950
     45 H181        3.3030    7.0080   -7.7740 h1        1 YMA      0.107950
     46 H182        4.7830    7.2890   -6.7750 h1        1 YMA      0.107950
     47 HS2         4.1590    9.5800   -6.0200 hs        1 YMA      0.236300
     48 H121        3.7330    0.4300   -5.1810 hx        1 YMA      0.113200
     49 H122        2.3120    0.8240   -6.3030 hx        1 YMA      0.113200
     50 H31         2.2490   -2.7220   -2.3140 hx        1 YMA      0.145450
     51 H32         1.2820   -2.9090   -3.8670 hx        1 YMA      0.145450
     52 H41         0.3560   -3.4240   -0.9150 hx        1 YMA      0.121950
     53 H42        -0.8300   -3.2990   -2.3290 hx        1 YMA      0.121950
     54 H51         1.9110   -6.5600   -2.1850 hx        1 YMA      0.113200
     55 H52         2.2270   -5.0700   -1.1510 hx        1 YMA      0.113200
     56 H71        -0.4060   -6.9100   -1.8210 hx        1 YMA      0.149450
     57 H72        -0.2440   -5.7110   -0.4370 hx        1 YMA      0.149450
     58 HN4        -2.8280   -6.2030   -0.0440 hn        1 YMA      0.491550
     59 H91        -1.5630   -4.2780    0.6860 hx        1 YMA      0.125950
     60 H92        -2.5980   -3.2230   -0.4070 hx        1 YMA      0.125950
     61 H171       -4.4580   -3.3390    1.0380 h1        1 YMA      0.107950
     62 H172       -4.0230   -4.9400    1.7580 h1        1 YMA      0.107950
     63 HS1        -2.4210   -2.0980    2.2640 hs        1 YMA      0.236300
     64 H113       -0.1180   -1.0960   -3.1870 hn        1 YMA      0.475800
     65 H311        3.0470    2.0640   -3.6830 hn        1 YMA      0.491300
     66 H521        2.8430    4.7630   -6.6550 hn        1 YMA      0.491550
     67 H21         0.2540   -5.1570   -3.3660 hn        1 YMA      0.491300
     68 H421       -3.8700   -5.2700   -0.9560 hn        1 YMA      0.491550
@<TRIPOS>BOND
     1    1    2 1   
     2    2    3 1   
     3    2    4 1   
     4    4    5 1   
     5    4   34 1   
     6    4   35 1   
     7    5    6 1   
     8    5   20 1   
     9    5   64 1   
    10    6    7 1   
    11    6   36 1   
    12    6   37 1   
    13    7    8 1   
    14    7   38 1   
    15    7   39 1   
    16    8    9 1   
    17    8   16 1   
    18    8   65 1   
    19    9   10 1   
    20    9   40 1   
    21    9   41 1   
    22   10   11 1   
    23   10   15 2   
    24   11   12 1   
    25   11   42 1   
    26   11   66 1   
    27   12   13 1   
    28   12   43 1   
    29   12   44 1   
    30   13   14 1   
    31   13   45 1   
    32   13   46 1   
    33   14   47 1   
    34   16   17 1   
    35   16   48 1   
    36   16   49 1   
    37   17   18 1   
    38   17   19 1   
    39   20   21 1   
    40   20   50 1   
    41   20   51 1   
    42   21   22 1   
    43   21   52 1   
    44   21   53 1   
    45   22   23 1   
    46   22   27 1   
    47   22   67 1   
    48   23   24 1   
    49   23   54 1   
    50   23   55 1   
    51   24   25 1   
    52   24   26 1   
    53   27   28 1   
    54   27   56 1   
    55   27   57 1   
    56   28   29 2   
    57   28   30 1   
    58   30   31 1   
    59   30   58 1   
    60   30   68 1   
    61   31   32 1   
    62   31   59 1   
    63   31   60 1   
    64   32   33 1   
    65   32   61 1   
    66   32   62 1   
    67   33   63 1   
@<TRIPOS>SUBSTRUCTURE
     1 YMA         1 TEMP              0 ****  ****    0 ROOT
