@<TRIPOS>MOLECULE
YML
   40    39     1     0     0
SMALL
bcc


@<TRIPOS>ATOM
      1 C8          4.2660    0.3900   -0.0780 c3        1 YML     -0.069700
      2 C4         -0.4850   -1.1530   -0.7860 c3        1 YML     -0.183700
      3 C3         -1.8900   -0.6200   -0.8420 c         1 YML      0.604100
      4 C7          2.8430    0.8210   -0.3990 c3        1 YML     -0.084400
      5 C6          1.9460   -0.3570   -0.7670 c3        1 YML     -0.092700
      6 C2         -2.5950   -0.2280    0.4110 c3        1 YML     -0.512600
      7 C5          0.4850   -0.0060   -0.4450 c3        1 YML      0.145100
      8 C9          4.3570   -0.0920    1.3700 c3        1 YML      0.134400
      9 P1         -4.0420    0.4600   -0.0030 p5        1 YML      1.469300
     10 O1P        -4.8770    0.4460    1.3760 oh        1 YML     -0.804400
     11 O2P        -4.0540    1.8480   -0.4400 o         1 YML     -0.847300
     12 OC3        -2.5090   -0.4610   -1.9030 o         1 YML     -0.553100
     13 OC5         0.3410    0.3880    0.9110 oh        1 YML     -0.599800
     14 CAB         2.1220   -0.7160   -2.2270 c3        1 YML     -0.094100
     15 CAA         5.2350    1.5310   -0.3070 c3        1 YML     -0.090100
     16 OC9         5.5140   -0.9080    1.4720 oh        1 YML     -0.600800
     17 H8          4.5610   -0.4680   -0.7470 hc        1 YML      0.068700
     18 H4         -0.2280   -1.5210   -1.8220 hc        1 YML      0.094700
     19 H71         2.4130    1.3660    0.4830 hc        1 YML      0.057200
     20 H72         2.8600    1.5460   -1.2560 hc        1 YML      0.057200
     21 H6          2.2380   -1.2450   -0.1380 hc        1 YML      0.050700
     22 H21        -2.7070   -1.1210    1.0800 hc        1 YML      0.148700
     23 H22        -1.9260    0.4770    0.9840 hc        1 YML      0.148700
     24 H5          0.1850    0.9140   -1.0260 h1        1 YML      0.090700
     25 H91         4.4310    0.7810    2.0720 h1        1 YML      0.019200
     26 H92         3.4500   -0.6980    1.6420 h1        1 YML      0.019200
     27 HP1        -4.6480   -0.4350   -0.6850 hp        1 YML     -0.143400
     28 HO1P       -5.2170    1.2910    1.6610 ho        1 YML      0.476000
     29 HOC5        0.7690   -0.2840    1.4580 ho        1 YML      0.402000
     30 HAB1        3.2060   -0.6900   -2.4990 hc        1 YML      0.042700
     31 HAB2        1.7410   -1.7440   -2.4360 hc        1 YML      0.042700
     32 HAB3        1.5790    0.0080   -2.8820 hc        1 YML      0.042700
     33 HAA1        6.2600    1.2240    0.0160 hc        1 YML      0.039700
     34 HAA2        5.2660    1.8030   -1.3890 hc        1 YML      0.039700
     35 HAA3        4.9300    2.4320    0.2760 hc        1 YML      0.039700
     36 HOC9        5.6390   -1.0940    2.4090 ho        1 YML      0.400000
     37 CAC        -0.3840   -2.3130    0.1800 c3        1 YML     -0.095100
     38 HAC1       -0.6160   -1.9870    1.2230 hc        1 YML      0.046700
     39 HAC2       -1.1010   -3.1200   -0.1060 hc        1 YML      0.046700
     40 HAC3        0.6500   -2.7360    0.1600 hc        1 YML      0.046700
@<TRIPOS>BOND
     1    1    4 1   
     2    1    8 1   
     3    1   15 1   
     4    1   17 1   
     5    2    3 1   
     6    2    7 1   
     7    2   18 1   
     8    2   37 1   
     9    3    6 1   
    10    3   12 2   
    11    4    5 1   
    12    4   19 1   
    13    4   20 1   
    14    5    7 1   
    15    5   14 1   
    16    5   21 1   
    17    6    9 1   
    18    6   22 1   
    19    6   23 1   
    20    7   13 1   
    21    7   24 1   
    22    8   16 1   
    23    8   25 1   
    24    8   26 1   
    25    9   10 1   
    26    9   11 2   
    27    9   27 1   
    28   10   28 1   
    29   13   29 1   
    30   14   30 1   
    31   14   31 1   
    32   14   32 1   
    33   15   33 1   
    34   15   34 1   
    35   15   35 1   
    36   16   36 1   
    37   37   38 1   
    38   37   39 1   
    39   37   40 1   
@<TRIPOS>SUBSTRUCTURE
     1 YML         1 TEMP              0 ****  ****    0 ROOT
