@<TRIPOS>MOLECULE
YML
   39    35     1     0     0
SMALL
bcc


@<TRIPOS>ATOM
      1 C8          2.0550    0.1360   -0.6050 c3        1 YML     -0.195000
      2 C4         -3.7670   -3.3350    4.6400 c2        1 YML     -0.363000
      3 C3         -3.4080   -2.5620    5.6340 c1        1 YML      0.229000
      4 C7          0.6850    0.6780   -0.9490 c3        1 YML     -0.177000
      5 C6         -0.7820   -2.7270   -1.3540 c2        1 YML     -0.296000
      6 C2         -4.6520   -2.1220    1.4560 c2        1 YML     -1.553000
      7 C5         -1.8360   -2.4690   -0.5590 c2        1 YML      0.010000
      8 C9          2.3910    0.2380    0.8740 c3        1 YML     -0.023000
      9 P1         -6.0130   -2.2580    0.8200 p3        1 YML      2.666000
     10 O1P        -6.3570   -3.4750    0.0690 o         1 YML     -1.160000
     11 O2P        -7.0100   -1.1850    0.9300 o         1 YML     -1.160000
     12 OC3        -3.0820   -1.8370    6.5280 o         1 YML     -0.204000
     13 OC5        -1.8520   -1.3060    0.1670 oh        1 YML     -0.304000
     14 CAB        -0.6790   -3.9500   -2.1670 c3        1 YML     -0.153000
     15 CAA         0.5450    2.1510   -0.6670 c3        1 YML     -0.210000
     16 OC9         3.1460    1.4000    1.1760 oh        1 YML     -0.343000
     17 H8          2.0920   -0.9450   -0.9040 hc        1 YML      0.084500
     18 H4          0.0530   -2.0140   -1.4270 ha        1 YML      0.120000
     19 H71        -0.1010    0.1090   -0.3780 hc        1 YML      0.103000
     20 H72         0.5660    2.3460    0.4330 hc        1 YML      0.067667
     21 H6          0.4920    0.4900   -2.0390 hc        1 YML      0.103000
     22 H21        -4.0370   -2.8710    3.6640 ha        1 YML      0.237000
     23 H22        -3.9010   -2.9080    1.4400 ha        1 YML      0.114000
     24 H5         -2.7080   -3.1360   -0.4430 h4        1 YML      0.150000
     25 H91         1.4570    0.2180    1.4970 h1        1 YML      0.087000
     26 H92         3.0610   -0.6080    1.1880 h1        1 YML      0.087000
     27 HP1        -4.3430   -1.2520    2.0310 ha        1 YML      0.114000
     28 HOC5       -2.6940   -1.2840    0.6640 ho        1 YML      0.266000
     29 HAB1        0.2310   -4.5340   -1.8760 hc        1 YML      0.064667
     30 HAB2       -1.5730   -4.6100   -2.0430 hc        1 YML      0.064667
     31 HAB3       -0.5860   -3.6880   -3.2520 hc        1 YML      0.064667
     32 HAA1        2.8400    0.6770   -1.1960 hc        1 YML      0.084500
     33 HAA2       -0.4270    2.5280   -1.0660 hc        1 YML      0.067667
     34 HAA3        1.3730    2.7310   -1.1450 hc        1 YML      0.067667
     35 HOC9        2.6340    2.1580    0.8690 ho        1 YML      0.196000
     36 CAC        -3.8420   -4.8040    4.7210 c3        1 YML     -0.124000
     37 HAC1       -4.8850   -5.1410    4.4920 hc        1 YML      0.072333
     38 HAC2       -3.5600   -5.1880    5.7320 hc        1 YML      0.072333
     39 HAC3       -3.1550   -5.2590    3.9640 hc        1 YML      0.072333
@<TRIPOS>BOND
     1    1    4 1   
     2    1    8 1   
     3    1   17 1   
     4    1   32 1   
     5    2    3 1   
     6    2   22 1   
     7    2   36 1   
     8    3   12 1   
     9    4   15 1   
    10    4   19 1   
    11    4   21 1   
    12    5    7 1   
    13    5   14 1   
    14    5   18 1   
    15    6    9 1   
    16    6   23 1   
    17    6   27 1   
    18    7   13 1   
    19    7   24 1   
    20    8   16 1   
    21    8   25 1   
    22    8   26 1   
    23    9   10 1   
    24    9   11 1   
    25   13   28 1   
    26   14   29 1   
    27   14   30 1   
    28   14   31 1   
    29   15   20 1   
    30   15   33 1   
    31   15   34 1   
    32   16   35 1   
    33   36   37 1   
    34   36   38 1   
    35   36   39 1   
@<TRIPOS>SUBSTRUCTURE
     1 YML         1 TEMP              0 ****  ****    0 ROOT
