@<TRIPOS>MOLECULE
YMP
   58    61     1     0     0
SMALL
bcc


@<TRIPOS>ATOM
      1 N           5.2150    1.9880    1.0930 n3        1 YMP     -0.888800
      2 CA          4.3140    1.1550    0.3190 c3        1 YMP      0.097500
      3 CB          4.5830   -0.3490    0.5100 c3        1 YMP     -0.029100
      4 CG          5.8790   -0.7700   -0.0860 ca        1 YMP     -0.097300
      5 CD1         7.0810   -0.5500    0.5970 ca        1 YMP     -0.082000
      6 CE1         8.2950   -0.9560    0.0480 ca        1 YMP     -0.188500
      7 CZ          8.3040   -1.5910   -1.2010 ca        1 YMP      0.111100
      8 OH          9.4670   -2.0240   -1.8040 oh        1 YMP     -0.506100
      9 CE2         7.1090   -1.8210   -1.9000 ca        1 YMP     -0.188500
     10 CD2         5.9080   -1.4070   -1.3340 ca        1 YMP     -0.082000
     11 C           2.8280    1.4040    0.6460 c         1 YMP      0.610100
     12 O           2.4690    1.9120    1.7280 o         1 YMP     -0.598100
     13 N3P         1.8440    1.0880   -0.2450 n         1 YMP     -0.657900
     14 P           0.3010    1.4800    0.1600 p5        1 YMP      1.419800
     15 O1P        -0.5810    0.7730   -0.8260 o         1 YMP     -0.842500
     16 O2P         0.1060    2.9130    0.4420 o         1 YMP     -0.842500
     17 O5'        -0.0130    0.5890    1.5450 os        1 YMP     -0.573200
     18 C5'        -1.3490    0.2800    1.7650 c3        1 YMP      0.197400
     19 C4'        -1.5930   -1.2370    1.6600 c3        1 YMP      0.081100
     20 O4'        -3.0040   -1.4880    1.5400 os        1 YMP     -0.426600
     21 C1'        -3.3650   -1.7800    0.1810 c3        1 YMP      0.252800
     22 C2'        -2.0440   -2.0690   -0.5960 c3        1 YMP      0.077100
     23 C3'        -0.9150   -1.8790    0.4400 c3        1 YMP      0.088100
     24 O3'        -0.2940   -3.1140    0.7340 oh        1 YMP     -0.602800
     25 O2'        -2.1350   -3.4100   -1.0450 oh        1 YMP     -0.610800
     26 N9         -4.1590   -0.7230   -0.4000 na        1 YMP     -0.277000
     27 C4         -5.5600   -0.6450   -0.3430 ca        1 YMP      0.449800
     28 N3         -6.4960   -1.5110    0.1510 nb        1 YMP     -0.719000
     29 C5         -5.9010    0.6270   -0.9760 ca        1 YMP     -0.209200
     30 N7         -4.7290    1.2900   -1.3750 nc        1 YMP     -0.575100
     31 C8         -3.7220    0.4840   -1.0120 cd        1 YMP      0.441700
     32 C6         -7.2870    0.9640   -1.0700 ca        1 YMP      0.715200
     33 N6         -7.6760    2.1170   -1.7390 nh        1 YMP     -0.936500
     34 N1         -8.2190    0.1030   -0.5470 nb        1 YMP     -0.797000
     35 C2         -7.7600   -1.0530    0.0050 ca        1 YMP      0.656900
     36 HN1         4.9980    2.9530    0.9230 hn        1 YMP      0.354300
     37 HN2         5.0790    1.8110    2.0730 hn        1 YMP      0.354300
     38 HA          4.4870    1.4110   -0.7700 h1        1 YMP      0.071700
     39 HB1         4.5690   -0.5980    1.6050 hc        1 YMP      0.061700
     40 HB2         3.7440   -0.9200    0.0290 hc        1 YMP      0.061700
     41 HD1         7.0660   -0.0410    1.5730 ha        1 YMP      0.139500
     42 HE1         9.2350   -0.7770    0.5870 ha        1 YMP      0.134500
     43 HOH        10.2040   -1.7800   -1.2270 ho        1 YMP      0.412000
     44 HE2         7.1370   -2.3200   -2.8770 ha        1 YMP      0.134500
     45 HD2         4.9660   -1.5840   -1.8770 ha        1 YMP      0.139500
     46 H3P         2.0810    0.6200   -1.0810 hn        1 YMP      0.310500
     47 H5'1       -1.6200    0.5990    2.8110 h1        1 YMP      0.036700
     48 H5'2       -2.0150    0.8130    1.0300 h1        1 YMP      0.036700
     49 H4'        -1.2840   -1.7480    2.6100 h1        1 YMP      0.071700
     50 H1'        -4.0140   -2.7050    0.2410 h2        1 YMP      0.112700
     51 H2'        -1.8820   -1.3780   -1.4680 h1        1 YMP      0.108700
     52 H3'        -0.1020   -1.2090    0.0370 h1        1 YMP      0.140700
     53 H2         -0.9610   -3.6760    1.1500 ho        1 YMP      0.399000
     54 H1         -1.2310   -3.6950   -1.2390 ho        1 YMP      0.417000
     55 H8         -2.6370    0.6940   -1.1670 h5        1 YMP      0.157800
     56 HN61       -6.9650    2.8020   -1.8530 hn        1 YMP      0.420300
     57 HN62       -8.5920    2.4580   -1.5670 hn        1 YMP      0.420300
     58 H3         -8.5530   -1.7200    0.4030 h5        1 YMP      0.037100
@<TRIPOS>BOND
     1    1    2 1   
     2    1   36 1   
     3    1   37 1   
     4    2    3 1   
     5    2   11 1   
     6    2   38 1   
     7    3    4 1   
     8    3   39 1   
     9    3   40 1   
    10    4    5 ar  
    11    4   10 ar  
    12    5    6 ar  
    13    5   41 1   
    14    6    7 ar  
    15    6   42 1   
    16    7    8 1   
    17    7    9 ar  
    18    8   43 1   
    19    9   10 ar  
    20    9   44 1   
    21   10   45 1   
    22   11   12 2   
    23   11   13 1   
    24   13   14 1   
    25   13   46 1   
    26   14   15 1   
    27   14   16 1   
    28   14   17 1   
    29   17   18 1   
    30   18   19 1   
    31   18   47 1   
    32   18   48 1   
    33   19   20 1   
    34   19   23 1   
    35   19   49 1   
    36   20   21 1   
    37   21   22 1   
    38   21   26 1   
    39   21   50 1   
    40   22   23 1   
    41   22   25 1   
    42   22   51 1   
    43   23   24 1   
    44   23   52 1   
    45   24   53 1   
    46   25   54 1   
    47   26   27 1   
    48   26   31 1   
    49   27   28 ar  
    50   27   29 ar  
    51   28   35 ar  
    52   29   30 1   
    53   29   32 ar  
    54   30   31 2   
    55   31   55 1   
    56   32   33 1   
    57   32   34 ar  
    58   33   56 1   
    59   33   57 1   
    60   34   35 ar  
    61   35   58 1   
@<TRIPOS>SUBSTRUCTURE
     1 YMP         1 TEMP              0 ****  ****    0 ROOT
