@<TRIPOS>MOLECULE
YMP
   60    62     1     0     0
SMALL
bcc


@<TRIPOS>ATOM
      1 N           0.8620    1.9770   -0.8140 nz        1 YMP     -0.836600
      2 CA          0.7030    0.5710   -0.3110 c3        1 YMP      0.026500
      3 CB          0.1650    0.5420    1.1270 c3        1 YMP     -0.039100
      4 CG          0.9510    1.4210    2.0290 ca        1 YMP     -0.205300
      5 CD1         0.4510    2.6810    2.3970 ca        1 YMP     -0.090500
      6 CE1         1.1600    3.5020    3.2620 ca        1 YMP     -0.180500
      7 CZ          2.3920    3.0530    3.7790 ca        1 YMP      0.162100
      8 OH          3.0460    3.9130    4.6170 oh        1 YMP     -0.474100
      9 CE2         2.8970    1.7910    3.4280 ca        1 YMP     -0.180500
     10 CD2         2.1700    0.9830    2.5600 ca        1 YMP     -0.090500
     11 C          -0.2910   -0.1860   -1.2300 c         1 YMP      0.648100
     12 O          -1.1000    0.4790   -1.9150 o         1 YMP     -0.626100
     13 N3P        -0.2510   -1.5380   -1.2090 nt        1 YMP     -0.613000
     14 P           3.8750   -2.7130   -0.6750 p4        1 YMP      1.669200
     15 O1P         5.2850   -2.4230   -0.6460 o         1 YMP     -0.695000
     16 O2P         2.6930   -1.8650   -0.6300 o         1 YMP     -0.743800
     17 O5'         3.5100   -4.2410   -0.8290 os        1 YMP     -0.560200
     18 C5'         4.5320   -5.2250   -0.7510 c3        1 YMP      0.150400
     19 C4'         4.4080   -5.9710    0.5820 c3        1 YMP      0.077100
     20 O4'         4.8360   -7.3200    0.3730 os        1 YMP     -0.404600
     21 C1'         5.7930   -7.7240    1.3690 c3        1 YMP      0.238800
     22 C2'         5.9410   -6.5520    2.3950 c3        1 YMP      0.089100
     23 C3'         5.2520   -5.3530    1.7150 c3        1 YMP      0.110100
     24 O3'         4.4510   -4.5620    2.5590 oh        1 YMP     -0.609800
     25 O2'         5.2190   -6.8750    3.5640 oh        1 YMP     -0.603800
     26 N9          7.0300   -8.0920    0.7280 na        1 YMP     -0.304000
     27 C4          8.1880   -8.5210    1.4000 ca        1 YMP      0.457800
     28 N3          8.4870   -8.5450    2.7330 nb        1 YMP     -0.772000
     29 C5          9.0940   -8.9680    0.3520 ca        1 YMP     -0.232200
     30 N7          8.4820   -8.8300   -0.9040 nc        1 YMP     -0.531100
     31 C8          7.2670   -8.3290   -0.6520 cd        1 YMP      0.417700
     32 C6         10.3810   -9.4560    0.7640 ca        1 YMP      0.772200
     33 N6         11.2940   -9.8700   -0.1630 nv        1 YMP     -0.948500
     34 N1         10.6760   -9.4820    2.1120 nb        1 YMP     -0.787000
     35 C2          9.7290   -9.0350    2.9740 ca        1 YMP      0.700900
     36 HN1         1.1110    2.5950   -0.0300 hn        1 YMP      0.467133
     37 HN2         1.5890    2.0100   -1.5300 hn        1 YMP      0.467133
     38 HA          1.7250    0.0780   -0.3410 hx        1 YMP      0.159700
     39 HB1         0.2260   -0.5270    1.4740 hc        1 YMP      0.093700
     40 HB2        -0.9200    0.8360    1.1340 hc        1 YMP      0.093700
     41 HD1        -0.5320    3.0120    2.0260 ha        1 YMP      0.140000
     42 HE1         0.7740    4.4870    3.5660 ha        1 YMP      0.164000
     43 HOH         3.8410    3.4730    4.9570 ho        1 YMP      0.438000
     44 HE2         3.8520    1.4390    3.8470 ha        1 YMP      0.164000
     45 HD2         2.5540   -0.0150    2.2970 ha        1 YMP      0.140000
     46 H3P        -0.8790   -2.0480   -1.7880 hn        1 YMP      0.349500
     47 H5'1        4.3400   -5.9460   -1.5960 h1        1 YMP      0.088200
     48 H5'2        5.5360   -4.7350   -0.8730 h1        1 YMP      0.088200
     49 H4'         3.3230   -6.0240    0.8810 h1        1 YMP      0.092700
     50 H1'         5.3430   -8.6350    1.8710 h2        1 YMP      0.107700
     51 H2'         7.0100   -6.3130    2.6360 h1        1 YMP      0.103700
     52 H3'         6.0350   -4.6500    1.3130 h1        1 YMP      0.097700
     53 H2          4.0320   -5.1360    3.2180 ho        1 YMP      0.444000
     54 H1          5.8140   -7.3810    4.1350 ho        1 YMP      0.446000
     55 H8          6.4920   -8.1070   -1.3970 h5        1 YMP      0.079800
     56 HN61       12.1670  -10.2440    0.1170 hn        1 YMP      0.455300
     57 HN62       11.0330   -9.8910   -1.1180 hn        1 YMP      0.455300
     58 H3         10.0210   -9.0820    4.0470 h5        1 YMP      0.057100
     59 HN3        -0.0310    2.2850   -1.2330 hn        1 YMP      0.467133
     60 H3P2        0.4890   -2.0190   -0.7510 hn        1 YMP      0.349500
@<TRIPOS>BOND
     1    1    2 1   
     2    1   36 1   
     3    1   37 1   
     4    1   59 1   
     5    2    3 1   
     6    2   11 1   
     7    2   38 1   
     8    3    4 1   
     9    3   39 1   
    10    3   40 1   
    11    4    5 ar  
    12    4   10 ar  
    13    5    6 ar  
    14    5   41 1   
    15    6    7 ar  
    16    6   42 1   
    17    7    8 1   
    18    7    9 ar  
    19    8   43 1   
    20    9   10 ar  
    21    9   44 1   
    22   10   45 1   
    23   11   12 2   
    24   11   13 1   
    25   13   46 1   
    26   13   60 1   
    27   14   15 1   
    28   14   16 2   
    29   14   17 1   
    30   17   18 1   
    31   18   19 1   
    32   18   47 1   
    33   18   48 1   
    34   19   20 1   
    35   19   23 1   
    36   19   49 1   
    37   20   21 1   
    38   21   22 1   
    39   21   26 1   
    40   21   50 1   
    41   22   23 1   
    42   22   25 1   
    43   22   51 1   
    44   23   24 1   
    45   23   52 1   
    46   24   53 1   
    47   25   54 1   
    48   26   27 1   
    49   26   31 1   
    50   27   28 ar  
    51   27   29 ar  
    52   28   35 ar  
    53   29   30 1   
    54   29   32 ar  
    55   30   31 2   
    56   31   55 1   
    57   32   33 1   
    58   32   34 ar  
    59   33   56 1   
    60   33   57 1   
    61   34   35 ar  
    62   35   58 1   
@<TRIPOS>SUBSTRUCTURE
     1 YMP         1 TEMP              0 ****  ****    0 ROOT
