@<TRIPOS>MOLECULE
YMP
   61    63     1     0     0
SMALL
bcc


@<TRIPOS>ATOM
      1 N          -1.2020    1.6820    0.4260 n4        1 YMP     -0.835600
      2 CA          0.2860    1.5110    0.3400 c3        1 YMP      0.031500
      3 CB          1.0080    2.2610    1.4710 c3        1 YMP     -0.039100
      4 CG          0.5630    3.6750    1.5660 ca        1 YMP     -0.218300
      5 CD1        -0.3620    4.0560    2.5510 ca        1 YMP     -0.089500
      6 CE1        -0.7630    5.3780    2.6770 ca        1 YMP     -0.178500
      7 CZ         -0.2210    6.3460    1.8060 ca        1 YMP      0.170100
      8 OH         -0.6630    7.6260    1.9770 oh        1 YMP     -0.469100
      9 CE2         0.7160    5.9790    0.8250 ca        1 YMP     -0.178500
     10 CD2         1.1040    4.6480    0.7170 ca        1 YMP     -0.089500
     11 C           0.6380    0.0000    0.4170 c         1 YMP      0.641100
     12 O          -0.2490   -0.7990    0.7950 o         1 YMP     -0.619100
     13 N3P         1.8850   -0.3790    0.0620 n         1 YMP     -0.609000
     14 P           4.9970   -3.4760    0.0510 p4        1 YMP      1.665200
     15 O1P         6.4280   -3.5250    0.2250 o         1 YMP     -0.677500
     16 O2P         3.9810   -2.4480    0.0320 o         1 YMP     -0.726300
     17 O5'         4.4150   -4.9330   -0.2140 os        1 YMP     -0.555200
     18 C5'         5.2900   -6.0400   -0.2980 c3        1 YMP      0.159400
     19 C4'         5.1220   -6.9140    0.9490 c3        1 YMP      0.075100
     20 O4'         5.3840   -8.2770    0.5700 os        1 YMP     -0.410600
     21 C1'         6.2760   -8.9140    1.4870 c3        1 YMP      0.248800
     22 C2'         6.6840   -7.8760    2.5770 c3        1 YMP      0.086100
     23 C3'         6.0630   -6.5410    2.1100 c3        1 YMP      0.084100
     24 O3'         5.3730   -5.8740    3.1360 oh        1 YMP     -0.584800
     25 O2'         6.0580   -8.3070    3.7680 oh        1 YMP     -0.584800
     26 N9          7.3950   -9.4590    0.7260 na        1 YMP     -0.273000
     27 C4          8.5270  -10.0980    1.2550 ca        1 YMP      0.455800
     28 N3          8.9910  -10.2390    2.5210 nb        1 YMP     -0.627000
     29 C5          9.2230  -10.6610    0.0730 ca        1 YMP     -0.134200
     30 N7          8.5120  -10.3620   -1.0910 nc        1 YMP     -0.582100
     31 C8          7.4370   -9.6660   -0.6700 cd        1 YMP      0.517700
     32 C6         10.4080  -11.3690    0.3480 ca        1 YMP      0.525200
     33 N6         11.1470  -11.9700   -0.7770 n4        1 YMP     -0.816300
     34 N1         10.8790  -11.5180    1.6110 nb        1 YMP     -0.671000
     35 C2         10.1470  -10.9470    2.6120 ca        1 YMP      0.677900
     36 HN1        -1.4220    2.5940    0.8480 hn        1 YMP      0.472133
     37 HN2        -1.6180    1.6190   -0.5060 hn        1 YMP      0.472133
     38 HA          0.6080    1.9390   -0.6560 hx        1 YMP      0.117700
     39 HB1         2.1090    2.2160    1.2490 hc        1 YMP      0.091200
     40 HB2         0.8400    1.7280    2.4460 hc        1 YMP      0.091200
     41 HD1        -0.7500    3.3080    3.2610 ha        1 YMP      0.138500
     42 HE1        -1.4800    5.6910    3.4520 ha        1 YMP      0.167500
     43 HOH        -0.1800    8.2100    1.3710 ho        1 YMP      0.441000
     44 HE2         1.1490    6.7410    0.1590 ha        1 YMP      0.167500
     45 HD2         1.8540    4.3640   -0.0380 ha        1 YMP      0.138500
     46 H3P         2.1520   -1.3410    0.1340 hn        1 YMP      0.354500
     47 H5'1        4.9680   -6.6300   -1.2030 h1        1 YMP      0.081200
     48 H5'2        6.3490   -5.6840   -0.4160 h1        1 YMP      0.081200
     49 H4'         4.0450   -6.8860    1.2830 h1        1 YMP      0.106700
     50 H1'         5.7080   -9.7820    1.9490 h2        1 YMP      0.132700
     51 H2'         7.7930   -7.7810    2.7060 h1        1 YMP      0.090700
     52 H3'         6.8670   -5.8200    1.7880 h1        1 YMP      0.117700
     53 H2          4.7990   -6.5150    3.5860 ho        1 YMP      0.433000
     54 H1          6.5930   -7.9920    4.5090 ho        1 YMP      0.441000
     55 H8          6.6350   -9.2770   -1.3220 h5        1 YMP      0.116800
     56 HN61       10.5500  -12.6830   -1.2160 hn        1 YMP      0.481133
     57 HN62       11.3550  -11.2340   -1.4640 hn        1 YMP      0.481133
     58 H3         10.5580  -11.0890    3.6400 h5        1 YMP      0.105100
     59 HN3        -1.5930    0.9210    1.0090 hn        1 YMP      0.472133
     60 H3P2        2.5820    0.2790   -0.1840 hn        1 YMP      0.354500
     61 H63        12.0250  -12.4050   -0.4580 hn        1 YMP      0.481133
@<TRIPOS>BOND
     1    1    2 1   
     2    1   36 1   
     3    1   37 1   
     4    1   59 1   
     5    2    3 1   
     6    2   11 1   
     7    2   38 1   
     8    3    4 1   
     9    3   39 1   
    10    3   40 1   
    11    4    5 ar  
    12    4   10 ar  
    13    5    6 ar  
    14    5   41 1   
    15    6    7 ar  
    16    6   42 1   
    17    7    8 1   
    18    7    9 ar  
    19    8   43 1   
    20    9   10 ar  
    21    9   44 1   
    22   10   45 1   
    23   11   12 2   
    24   11   13 1   
    25   13   46 1   
    26   13   60 1   
    27   14   15 1   
    28   14   16 2   
    29   14   17 1   
    30   17   18 1   
    31   18   19 1   
    32   18   47 1   
    33   18   48 1   
    34   19   20 1   
    35   19   23 1   
    36   19   49 1   
    37   20   21 1   
    38   21   22 1   
    39   21   26 1   
    40   21   50 1   
    41   22   23 1   
    42   22   25 1   
    43   22   51 1   
    44   23   24 1   
    45   23   52 1   
    46   24   53 1   
    47   25   54 1   
    48   26   27 1   
    49   26   31 1   
    50   27   28 ar  
    51   27   29 ar  
    52   28   35 ar  
    53   29   30 1   
    54   29   32 ar  
    55   30   31 2   
    56   31   55 1   
    57   32   33 1   
    58   32   34 ar  
    59   33   56 1   
    60   33   57 1   
    61   33   61 1   
    62   34   35 ar  
    63   35   58 1   
@<TRIPOS>SUBSTRUCTURE
     1 YMP         1 TEMP              0 ****  ****    0 ROOT
