@<TRIPOS>MOLECULE
YNE
   55    59     1     0     0
SMALL
bcc


@<TRIPOS>ATOM
      1 C4          0.7490    1.6030    0.5220 c3        1 YNE     -0.041800
      2 C3          1.8820    0.7060    0.2480 cc        1 YNE     -0.071600
      3 N1          3.0050    0.5590    1.0800 na        1 YNE      0.092400
      4 C2          3.2270    1.3320    2.2760 c3        1 YNE      0.039600
      5 N           3.8900   -0.3200    0.5810 nc        1 YNE     -0.508800
      6 C5          2.0840   -0.1670   -0.8390 cd        1 YNE     -0.279600
      7 C1          3.3700   -0.7930   -0.5870 cd        1 YNE      0.335600
      8 C           4.0170   -1.7870   -1.4640 c3        1 YNE     -0.127400
      9 C6          1.1890   -0.4300   -1.9710 c3        1 YNE     -0.010400
     10 C7          1.2010    0.6670   -2.9690 cc        1 YNE      0.465700
     11 O           0.1900    1.6380   -2.8770 os        1 YNE     -0.399800
     12 C8          0.4730    2.5140   -3.9470 cc        1 YNE      0.547200
     13 N3          1.5690    2.0660   -4.5980 nd        1 YNE     -0.329000
     14 N2          2.0020    0.9630   -4.0110 nd        1 YNE     -0.348000
     15 C9         -0.3770    3.6460   -4.1510 cc        1 YNE     -0.197200
     16 S          -2.0640    3.5750   -3.9730 ss        1 YNE      0.084500
     17 C21        -2.2900    5.1830   -4.4100 ca        1 YNE     -0.068100
     18 C20        -3.4900    5.9020   -4.5020 ca        1 YNE     -0.103000
     19 C19        -3.4510    7.2400   -4.8570 ca        1 YNE     -0.107000
     20 C18        -2.2260    7.8830   -5.1200 ca        1 YNE     -0.138000
     21 C17        -1.0320    7.1880   -5.0370 ca        1 YNE     -0.077000
     22 C16        -1.0540    5.8280   -4.6910 ca        1 YNE     -0.115800
     23 C10         0.0510    4.9070   -4.5350 cd        1 YNE      0.167900
     24 O1          1.3690    5.2620   -4.6180 os        1 YNE     -0.309900
     25 C11         1.7980    5.7280   -5.9230 c3        1 YNE      0.145100
     26 C15         2.7790    6.8630   -5.6560 c3        1 YNE     -0.092900
     27 C14         3.4350    7.3060   -6.9620 c3        1 YNE      0.166800
     28 N4          4.0450    6.2150   -7.6930 n7        1 YNE     -0.821200
     29 C13         3.1590    5.0900   -7.9230 c3        1 YNE      0.166800
     30 C12         2.4830    4.5810   -6.6530 c3        1 YNE     -0.092900
     31 H41C        0.1080    1.6770   -0.3940 hc        1 YNE      0.058033
     32 H42C        1.1030    2.6290    0.7940 hc        1 YNE      0.058033
     33 H43C        0.1290    1.2080    1.3660 hc        1 YNE      0.058033
     34 H21C        2.2520    1.4300    2.8240 h1        1 YNE      0.058367
     35 H22C        3.6010    2.3550    2.0010 h1        1 YNE      0.058367
     36 H23C        3.9820    0.8290    2.9360 h1        1 YNE      0.058367
     37 H61C        0.1320   -0.5610   -1.6060 hc        1 YNE      0.079200
     38 H62C        1.5050   -1.3800   -2.4880 hc        1 YNE      0.079200
     39 HC1         3.3610   -2.6890   -1.5540 hc        1 YNE      0.054033
     40 HC2         5.0120   -2.1080   -1.0700 hc        1 YNE      0.054033
     41 HC3         4.1610   -1.3460   -2.4830 hc        1 YNE      0.054033
     42 H20        -4.4470    5.4040   -4.2910 ha        1 YNE      0.141000
     43 H19        -4.3860    7.8140   -4.9340 ha        1 YNE      0.137000
     44 H18        -2.2260    8.9490   -5.3890 ha        1 YNE      0.137000
     45 H17        -0.0680    7.6840   -5.2270 ha        1 YNE      0.143000
     46 H11         0.9150    6.0990   -6.5110 h1        1 YNE      0.049700
     47 H151        2.2440    7.7340   -5.1990 hc        1 YNE      0.068200
     48 H152        3.5550    6.5140   -4.9270 hc        1 YNE      0.068200
     49 H121        3.2360    4.1060   -5.9700 hc        1 YNE      0.068200
     50 H122        1.7330    3.7960   -6.9260 hc        1 YNE      0.068200
     51 H141        2.6560    7.8480   -7.5790 h1        1 YNE      0.028450
     52 H142        4.2500    8.0460   -6.7230 h1        1 YNE      0.028450
     53 H4          4.4100    6.5480   -8.5650 hn        1 YNE      0.364800
     54 H131        2.3530    5.3370   -8.6770 h1        1 YNE      0.028450
     55 H132        3.7840    4.2580   -8.3560 h1        1 YNE      0.028450
@<TRIPOS>BOND
     1    1    2 1   
     2    1   31 1   
     3    1   32 1   
     4    1   33 1   
     5    2    3 1   
     6    2    6 2   
     7    3    4 1   
     8    3    5 1   
     9    4   34 1   
    10    4   35 1   
    11    4   36 1   
    12    5    7 2   
    13    6    7 1   
    14    6    9 1   
    15    7    8 1   
    16    8   39 1   
    17    8   40 1   
    18    8   41 1   
    19    9   10 1   
    20    9   37 1   
    21    9   38 1   
    22   10   11 1   
    23   10   14 2   
    24   11   12 1   
    25   12   13 2   
    26   12   15 1   
    27   13   14 1   
    28   15   16 1   
    29   15   23 2   
    30   16   17 1   
    31   17   18 ar  
    32   17   22 ar  
    33   18   19 ar  
    34   18   42 1   
    35   19   20 ar  
    36   19   43 1   
    37   20   21 ar  
    38   20   44 1   
    39   21   22 ar  
    40   21   45 1   
    41   22   23 1   
    42   23   24 1   
    43   24   25 1   
    44   25   26 1   
    45   25   30 1   
    46   25   46 1   
    47   26   27 1   
    48   26   47 1   
    49   26   48 1   
    50   27   28 1   
    51   27   51 1   
    52   27   52 1   
    53   28   29 1   
    54   28   53 1   
    55   29   30 1   
    56   29   54 1   
    57   29   55 1   
    58   30   49 1   
    59   30   50 1   
@<TRIPOS>SUBSTRUCTURE
     1 YNE         1 TEMP              0 ****  ****    0 ROOT
