@<TRIPOS>MOLECULE
YNE
   55    59     1     0     0
SMALL
bcc


@<TRIPOS>ATOM
      1 C4         -3.7780    2.1900    0.6460 c3        1 YNE     -0.041800
      2 C3         -4.5900    0.9650    0.5840 cc        1 YNE     -0.071600
      3 N1         -5.4940    0.5530    1.5780 na        1 YNE      0.092400
      4 C2         -5.6820    1.2430    2.8300 c3        1 YNE      0.039600
      5 N          -6.0930   -0.6080    1.2650 nc        1 YNE     -0.508800
      6 C5         -4.6530   -0.0100   -0.4310 cd        1 YNE     -0.279600
      7 C1         -5.6150   -0.9890    0.0460 cd        1 YNE      0.335600
      8 C          -6.0130   -2.2100   -0.6780 c3        1 YNE     -0.127400
      9 C6         -3.9420   -0.0350   -1.7120 c3        1 YNE     -0.010400
     10 C7         -2.5160   -0.4190   -1.5610 cc        1 YNE      0.465700
     11 O          -1.5710    0.6170   -1.4800 os        1 YNE     -0.399800
     12 C8         -0.3420   -0.0650   -1.3510 cc        1 YNE      0.547200
     13 N3         -0.5790   -1.3950   -1.3590 nd        1 YNE     -0.329000
     14 N2         -1.8790   -1.6040   -1.4830 nd        1 YNE     -0.348000
     15 C9          0.8600    0.7010   -1.2390 cc        1 YNE     -0.197200
     16 S           1.1420    2.1090   -2.1450 ss        1 YNE      0.084500
     17 C21         2.6810    2.3450   -1.5090 ca        1 YNE     -0.068100
     18 C20         3.5950    3.3690   -1.7920 ca        1 YNE     -0.103000
     19 C19         4.8100    3.3940   -1.1290 ca        1 YNE     -0.107000
     20 C18         5.1320    2.4100   -0.1740 ca        1 YNE     -0.138000
     21 C17         4.2430    1.3900    0.1160 ca        1 YNE     -0.077000
     22 C16         3.0130    1.3430   -0.5570 ca        1 YNE     -0.115800
     23 C10         1.9320    0.3900   -0.4180 cd        1 YNE      0.167900
     24 O1          1.9040   -0.6160    0.5070 os        1 YNE     -0.309900
     25 C11         2.9260   -1.6330    0.3380 c3        1 YNE      0.145100
     26 C15         3.3680   -2.0140    1.7460 c3        1 YNE     -0.092900
     27 C14         4.3120   -3.2130    1.6910 c3        1 YNE      0.166800
     28 N4          3.7630   -4.3400    0.9650 n3        1 YNE     -0.821200
     29 C13         3.2820   -4.0090   -0.3620 c3        1 YNE      0.166800
     30 C12         2.3140   -2.8280   -0.3790 c3        1 YNE     -0.092900
     31 H41C       -3.2560    2.2780    1.6330 hc        1 YNE      0.058033
     32 H42C       -3.0060    2.1610   -0.1650 hc        1 YNE      0.058033
     33 H43C       -4.4190    3.0960    0.5030 hc        1 YNE      0.058033
     34 H21C       -5.6800    2.3480    2.6330 h1        1 YNE      0.058367
     35 H22C       -6.6560    0.9460    3.3010 h1        1 YNE      0.058367
     36 H23C       -4.8410    0.9910    3.5310 h1        1 YNE      0.058367
     37 H61C       -4.4340   -0.7770   -2.4030 hc        1 YNE      0.079200
     38 H62C       -3.9810    0.9800   -2.1970 hc        1 YNE      0.079200
     39 HC1        -6.4700   -1.9320   -1.6600 hc        1 YNE      0.054033
     40 HC2        -5.1080   -2.8400   -0.8710 hc        1 YNE      0.054033
     41 HC3        -6.7540   -2.8170   -0.1000 hc        1 YNE      0.054033
     42 H20         3.3430    4.1420   -2.5330 ha        1 YNE      0.141000
     43 H19         5.5370    4.1920   -1.3440 ha        1 YNE      0.137000
     44 H18         6.1010    2.4620    0.3450 ha        1 YNE      0.137000
     45 H17         4.4790    0.6240    0.8700 ha        1 YNE      0.143000
     46 H11         3.7900   -1.2190   -0.2490 h1        1 YNE      0.049700
     47 H151        3.8930   -1.1530    2.2300 hc        1 YNE      0.068200
     48 H152        2.4630   -2.2560    2.3620 hc        1 YNE      0.068200
     49 H121        1.3490   -3.1040    0.1200 hc        1 YNE      0.068200
     50 H122        2.0800   -2.5610   -1.4410 hc        1 YNE      0.068200
     51 H141        5.2960   -2.8640    1.2540 h1        1 YNE      0.028450
     52 H142        4.5150   -3.5600    2.7440 h1        1 YNE      0.028450
     53 H4          4.4420   -5.0760    0.9100 hn        1 YNE      0.364800
     54 H131        4.1320   -3.7780   -1.0720 h1        1 YNE      0.028450
     55 H132        2.7470   -4.9180   -0.7580 h1        1 YNE      0.028450
@<TRIPOS>BOND
     1    1    2 1   
     2    1   31 1   
     3    1   32 1   
     4    1   33 1   
     5    2    3 1   
     6    2    6 2   
     7    3    4 1   
     8    3    5 1   
     9    4   34 1   
    10    4   35 1   
    11    4   36 1   
    12    5    7 2   
    13    6    7 1   
    14    6    9 1   
    15    7    8 1   
    16    8   39 1   
    17    8   40 1   
    18    8   41 1   
    19    9   10 1   
    20    9   37 1   
    21    9   38 1   
    22   10   11 1   
    23   10   14 2   
    24   11   12 1   
    25   12   13 2   
    26   12   15 1   
    27   13   14 1   
    28   15   16 1   
    29   15   23 2   
    30   16   17 1   
    31   17   18 ar  
    32   17   22 ar  
    33   18   19 ar  
    34   18   42 1   
    35   19   20 ar  
    36   19   43 1   
    37   20   21 ar  
    38   20   44 1   
    39   21   22 ar  
    40   21   45 1   
    41   22   23 1   
    42   23   24 1   
    43   24   25 1   
    44   25   26 1   
    45   25   30 1   
    46   25   46 1   
    47   26   27 1   
    48   26   47 1   
    49   26   48 1   
    50   27   28 1   
    51   27   51 1   
    52   27   52 1   
    53   28   29 1   
    54   28   53 1   
    55   29   30 1   
    56   29   54 1   
    57   29   55 1   
    58   30   49 1   
    59   30   50 1   
@<TRIPOS>SUBSTRUCTURE
     1 YNE         1 TEMP              0 ****  ****    0 ROOT
