@<TRIPOS>MOLECULE
YNM
   26    26     1     0     0
SMALL
bcc


@<TRIPOS>ATOM
      1 N          -1.4960    1.5130    0.1530 n3        1 YNM     -0.811200
      2 CA         -1.5960    0.1030   -0.2240 c3        1 YNM      0.030500
      3 C          -3.0460   -0.4890   -0.1400 c         1 YNM      0.892600
      4 O          -3.9280    0.1690    0.4810 o         1 YNM     -0.839300
      5 CB         -0.7020   -0.7860    0.6540 c3        1 YNM     -0.025100
      6 CG          0.7500   -0.5920    0.3960 ca        1 YNM     -0.066300
      7 CD1         1.4410    0.4780    0.9800 ca        1 YNM     -0.094500
      8 CD2         1.4480   -1.4810   -0.4320 ca        1 YNM     -0.094500
      9 CE1         2.8040    0.6550    0.7530 ca        1 YNM     -0.192000
     10 CE2         2.8100   -1.3220   -0.6720 ca        1 YNM     -0.192000
     11 CZ          3.4840   -0.2490   -0.0720 ca        1 YNM      0.087100
     12 CM         -1.8880    2.4040   -0.9110 c3        1 YNM      0.158100
     13 H          -2.1180    1.6540    0.9360 hn        1 YNM      0.360800
     14 HA         -1.2550   -0.0120   -1.2920 h1        1 YNM      0.045700
     15 HM1C       -1.1650    2.3030   -1.7630 h1        1 YNM      0.014367
     16 HM2C       -2.9240    2.2110   -1.3040 h1        1 YNM      0.014367
     17 HM3C       -1.8450    3.4580   -0.5290 h1        1 YNM      0.014367
     18 HB1C       -0.9200   -0.5920    1.7370 hc        1 YNM      0.056200
     19 HB2C       -0.9940   -1.8490    0.4320 hc        1 YNM      0.056200
     20 HD1         0.8910    1.1930    1.6100 ha        1 YNM      0.143000
     21 HD2         0.9070   -2.3150   -0.9050 ha        1 YNM      0.143000
     22 HE1         3.3390    1.4980    1.2100 ha        1 YNM      0.124000
     23 HE2         3.3600   -2.0170   -1.3200 ha        1 YNM      0.124000
     24 HH          5.1490    0.6670    0.0990 ho        1 YNM      0.405000
     25 OXT        -3.2400   -1.5990   -0.7060 o         1 YNM     -0.839300
     26 OH          4.8380   -0.1400   -0.3330 oh        1 YNM     -0.517100
@<TRIPOS>BOND
     1    1    2 1   
     2    1   12 1   
     3    1   13 1   
     4    2    3 1   
     5    2    5 1   
     6    2   14 1   
     7    3    4 1   
     8    3   25 1   
     9    5    6 1   
    10    5   18 1   
    11    5   19 1   
    12    6    7 ar  
    13    6    8 ar  
    14    7    9 ar  
    15    7   20 1   
    16    8   10 ar  
    17    8   21 1   
    18    9   11 ar  
    19    9   22 1   
    20   10   11 ar  
    21   10   23 1   
    22   11   26 1   
    23   12   15 1   
    24   12   16 1   
    25   12   17 1   
    26   24   26 1   
@<TRIPOS>SUBSTRUCTURE
     1 YNM         1 TEMP              0 ****  ****    0 ROOT
