@<TRIPOS>MOLECULE
YOF
   23    23     1     0     0
SMALL
bcc


@<TRIPOS>ATOM
      1 N           1.6020    0.8710    2.0010 n3        1 YOF     -0.889800
      2 CA          0.2160    0.4190    1.9900 c3        1 YOF      0.020500
      3 C          -0.3840    0.1410    3.4120 c         1 YOF      0.887600
      4 O           0.3380    0.3960    4.4170 o         1 YOF     -0.839300
      5 OXT        -1.5630   -0.3030    3.4670 o         1 YOF     -0.839300
      6 CB          0.0040   -0.8360    1.1360 c3        1 YOF     -0.033100
      7 CG          0.1410   -0.5780   -0.3230 ca        1 YOF     -0.043300
      8 CD1        -1.0000   -0.4280   -1.1160 ca        1 YOF     -0.130000
      9 CD2         1.4100   -0.4910   -0.9170 ca        1 YOF     -0.096000
     10 CE1        -0.8720   -0.2020   -2.4950 ca        1 YOF      0.024900
     11 CE2         1.5520   -0.2650   -2.2810 ca        1 YOF     -0.146000
     12 CZ          0.4110   -0.1220   -3.0800 ca        1 YOF      0.063100
     13 OH          0.5980    0.0870   -4.4310 oh        1 YOF     -0.508100
     14 F          -1.9730   -0.0560   -3.2810 f         1 YOF     -0.164900
     15 H           2.1650    0.1430    2.4090 hn        1 YOF      0.331800
     16 H2          1.6530    1.6500    2.6360 hn        1 YOF      0.331800
     17 HA         -0.3980    1.2550    1.5450 h1        1 YOF      0.046700
     18 HB2         0.7320   -1.6340    1.4420 hc        1 YOF      0.062200
     19 HB3        -1.0310   -1.2140    1.3690 hc        1 YOF      0.062200
     20 HD1        -2.0020   -0.4790   -0.6640 ha        1 YOF      0.155000
     21 HD2         2.3050   -0.5830   -0.2820 ha        1 YOF      0.150000
     22 HE2         2.5450   -0.1910   -2.7460 ha        1 YOF      0.138000
     23 HH         -0.2770    0.2190   -4.8260 ho        1 YOF      0.417000
@<TRIPOS>BOND
     1    1    2 1   
     2    1   15 1   
     3    1   16 1   
     4    2    3 1   
     5    2    6 1   
     6    2   17 1   
     7    3    4 1   
     8    3    5 1   
     9    6    7 1   
    10    6   18 1   
    11    6   19 1   
    12    7    8 ar  
    13    7    9 ar  
    14    8   10 ar  
    15    8   20 1   
    16    9   11 ar  
    17    9   21 1   
    18   10   12 ar  
    19   10   14 1   
    20   11   12 ar  
    21   11   22 1   
    22   12   13 1   
    23   13   23 1   
@<TRIPOS>SUBSTRUCTURE
     1 YOF         1 TEMP              0 ****  ****    0 ROOT
