@<TRIPOS>MOLECULE
YPA
   54    57     1     0     0
SMALL
bcc


@<TRIPOS>ATOM
      1 C1          3.2290   -1.2840    5.0390 ca        1 YPA     -0.165500
      2 C2          2.0260   -1.5310    5.7000 ca        1 YPA     -0.080000
      3 C3          0.8910   -0.8340    5.3110 cp        1 YPA     -0.079000
      4 C4          0.9720    0.1380    4.2420 ca        1 YPA     -0.002700
      5 C5          2.1850    0.3710    3.5860 ca        1 YPA     -0.151500
      6 C6          3.3020   -0.3510    3.9990 ca        1 YPA     -0.103000
      7 C11        -0.4900   -0.8460    5.7540 cp        1 YPA     -0.079000
      8 C12        -1.1940    0.1190    4.9370 ca        1 YPA     -0.002700
      9 N13        -0.2840    0.7610    4.0700 na        1 YPA     -0.068300
     10 C14        -1.1730   -1.5570    6.7310 ca        1 YPA     -0.080000
     11 C15        -2.5390   -1.3300    6.9000 ca        1 YPA     -0.165500
     12 C16        -3.2180   -0.4020    6.1040 ca        1 YPA     -0.103000
     13 C17        -2.5650    0.3330    5.1180 ca        1 YPA     -0.151500
     14 C22        -0.6580    1.5110    2.9080 c3        1 YPA      0.029300
     15 C23        -0.8960    0.6770    1.6350 c3        1 YPA      0.102400
     16 O26        -1.4230    1.6090    0.6890 os        1 YPA     -0.350900
     17 C29        -1.1790    1.2870   -0.6430 ca        1 YPA      0.079100
     18 C30        -1.1070    2.3740   -1.5250 ca        1 YPA     -0.177000
     19 C31        -0.9270    2.1290   -2.8850 ca        1 YPA     -0.105500
     20 C32        -0.8090    0.8220   -3.3680 ca        1 YPA     -0.066300
     21 C33        -0.8800   -0.2540   -2.4700 ca        1 YPA     -0.105500
     22 C34        -1.0680   -0.0290   -1.1090 ca        1 YPA     -0.177000
     23 C39        -0.6310    0.5520   -4.8200 c3        1 YPA     -0.037100
     24 C40         0.7650    0.0180   -5.1410 c3        1 YPA      0.029100
     25 C43         0.8700   -1.5270   -5.0090 c         1 YPA      0.894600
     26 O44        -0.1800   -2.1960   -4.7930 o         1 YPA     -0.836300
     27 O45         2.0240   -2.0330   -5.0890 o         1 YPA     -0.836300
     28 O47         1.0320    0.4860   -6.4710 os        1 YPA     -0.448600
     29 C49         2.2000   -0.0900   -7.0500 c3        1 YPA      0.133400
     30 C50         2.5590    0.7580   -8.2510 c3        1 YPA     -0.095100
     31 H1          4.1330   -1.8350    5.3340 ha        1 YPA      0.127000
     32 H2          1.9730   -2.2680    6.5130 ha        1 YPA      0.130500
     33 H5          2.2550    1.0940    2.7610 ha        1 YPA      0.142000
     34 H6          4.2630   -0.1870    3.4890 ha        1 YPA      0.130000
     35 H14        -0.6430   -2.2880    7.3560 ha        1 YPA      0.130500
     36 H15        -3.0910   -1.8910    7.6670 ha        1 YPA      0.127000
     37 H16        -4.2970   -0.2500    6.2570 ha        1 YPA      0.130000
     38 H17        -3.1150    1.0550    4.4990 ha        1 YPA      0.142000
     39 H221        0.1620    2.2550    2.6960 h1        1 YPA      0.070200
     40 H222       -1.6010    2.0820    3.1440 h1        1 YPA      0.070200
     41 H231       -1.6570   -0.1270    1.8050 h1        1 YPA      0.052700
     42 H232        0.0610    0.2210    1.2700 h1        1 YPA      0.052700
     43 H30        -1.2000    3.3970   -1.1400 ha        1 YPA      0.128000
     44 H31        -0.8710    2.9770   -3.5830 ha        1 YPA      0.164000
     45 H33        -0.7710   -1.2820   -2.8750 ha        1 YPA      0.164000
     46 H34        -1.1280   -0.8770   -0.4140 ha        1 YPA      0.128000
     47 H391       -0.8150    1.4860   -5.4140 hc        1 YPA      0.060700
     48 H392       -1.3780   -0.2250   -5.1460 hc        1 YPA      0.060700
     49 H40         1.5330    0.4780   -4.4580 h1        1 YPA      0.021700
     50 H491        1.9740   -1.1480   -7.3500 h1        1 YPA      0.049700
     51 H492        3.0340   -0.1100   -6.2990 h1        1 YPA      0.049700
     52 H501        3.4490    0.3200   -8.7610 hc        1 YPA      0.023367
     53 H502        1.7070    0.7940   -8.9710 hc        1 YPA      0.023367
     54 H503        2.7960    1.8030   -7.9390 hc        1 YPA      0.023367
@<TRIPOS>BOND
     1    1    2 ar  
     2    1    6 ar  
     3    1   31 1   
     4    2    3 ar  
     5    2   32 1   
     6    3    4 ar  
     7    3    7 1   
     8    4    5 ar  
     9    4    9 1   
    10    5    6 ar  
    11    5   33 1   
    12    6   34 1   
    13    7    8 ar  
    14    7   10 ar  
    15    8    9 1   
    16    8   13 ar  
    17    9   14 1   
    18   10   11 ar  
    19   10   35 1   
    20   11   12 ar  
    21   11   36 1   
    22   12   13 ar  
    23   12   37 1   
    24   13   38 1   
    25   14   15 1   
    26   14   39 1   
    27   14   40 1   
    28   15   16 1   
    29   15   41 1   
    30   15   42 1   
    31   16   17 1   
    32   17   18 ar  
    33   17   22 ar  
    34   18   19 ar  
    35   18   43 1   
    36   19   20 ar  
    37   19   44 1   
    38   20   21 ar  
    39   20   23 1   
    40   21   22 ar  
    41   21   45 1   
    42   22   46 1   
    43   23   24 1   
    44   23   47 1   
    45   23   48 1   
    46   24   25 1   
    47   24   28 1   
    48   24   49 1   
    49   25   26 1   
    50   25   27 1   
    51   28   29 1   
    52   29   30 1   
    53   29   50 1   
    54   29   51 1   
    55   30   52 1   
    56   30   53 1   
    57   30   54 1   
@<TRIPOS>SUBSTRUCTURE
     1 YPA         1 TEMP              0 ****  ****    0 ROOT
