@<TRIPOS>MOLECULE
YPA
   54    57     1     0     0
SMALL
bcc


@<TRIPOS>ATOM
      1 C1          0.1060   -0.0900    0.1100 ca        1 YPA     -0.165500
      2 C2          1.4800    0.0480   -0.0800 ca        1 YPA     -0.080000
      3 C3          2.3070    0.1250    1.0310 cp        1 YPA     -0.079000
      4 C4          1.7380    0.0700    2.3600 ca        1 YPA     -0.002700
      5 C5          0.3570   -0.0740    2.5350 ca        1 YPA     -0.151500
      6 C6         -0.4410   -0.1530    1.3960 ca        1 YPA     -0.103000
      7 C11         3.7420    0.2550    1.2020 cp        1 YPA     -0.079000
      8 C12         3.9880    0.2730    2.6290 ca        1 YPA     -0.002700
      9 N13         2.7590    0.2310    3.3220 na        1 YPA     -0.068300
     10 C14         4.8040    0.3530    0.3150 ca        1 YPA     -0.080000
     11 C15         6.0990    0.4610    0.8210 ca        1 YPA     -0.165500
     12 C16         6.3350    0.4720    2.1990 ca        1 YPA     -0.103000
     13 C17         5.2930    0.3800    3.1200 ca        1 YPA     -0.151500
     14 C22         2.6180   -0.1000    4.7090 c3        1 YPA      0.029300
     15 C23         2.5490   -1.6060    5.0220 c3        1 YPA      0.102400
     16 O26         2.5960   -1.6810    6.4480 os        1 YPA     -0.350900
     17 C29         1.9630   -2.7940    6.9930 ca        1 YPA      0.078100
     18 C30         1.4390   -2.6220    8.2810 ca        1 YPA     -0.177000
     19 C31         0.8460   -3.7100    8.9190 ca        1 YPA     -0.105500
     20 C32         0.7620   -4.9540    8.2850 ca        1 YPA     -0.065300
     21 C33         1.2900   -5.1060    6.9940 ca        1 YPA     -0.105500
     22 C34         1.8930   -4.0330    6.3450 ca        1 YPA     -0.177000
     23 C39         0.1430   -6.1230    8.9650 c3        1 YPA     -0.037100
     24 C40        -1.1860   -6.5250    8.3260 c3        1 YPA      0.029100
     25 C43        -1.0160   -7.5130    7.1390 c         1 YPA      0.894600
     26 O44         0.1310   -7.9880    6.8970 o         1 YPA     -0.836300
     27 O45        -2.0420   -7.7620    6.4470 o         1 YPA     -0.836300
     28 O47        -1.9540   -7.0740    9.4070 os        1 YPA     -0.448600
     29 C49        -3.1520   -7.7170    8.9800 c3        1 YPA      0.133400
     30 C50        -4.0160   -7.8950   10.2100 c3        1 YPA     -0.095100
     31 H1         -0.5590   -0.1590   -0.7630 ha        1 YPA      0.127000
     32 H2          1.9060    0.0920   -1.0930 ha        1 YPA      0.130500
     33 H5         -0.0850   -0.1340    3.5390 ha        1 YPA      0.142000
     34 H6         -1.5290   -0.2760    1.5140 ha        1 YPA      0.130000
     35 H14         4.6230    0.3430   -0.7690 ha        1 YPA      0.130500
     36 H15         6.9480    0.5350    0.1270 ha        1 YPA      0.127000
     37 H16         7.3680    0.5510    2.5690 ha        1 YPA      0.130000
     38 H17         5.4960    0.3860    4.2000 ha        1 YPA      0.142000
     39 H221        1.6730    0.3840    5.0870 h1        1 YPA      0.070200
     40 H222        3.4900    0.3430    5.2690 h1        1 YPA      0.070200
     41 H231        1.6060   -2.0560    4.6180 h1        1 YPA      0.052700
     42 H232        3.4360   -2.1550    4.6090 h1        1 YPA      0.052700
     43 H30         1.5070   -1.6440    8.7740 ha        1 YPA      0.128000
     44 H31         0.4330   -3.5840    9.9310 ha        1 YPA      0.164000
     45 H33         1.2010   -6.1000    6.5060 ha        1 YPA      0.164000
     46 H34         2.3090   -4.1620    5.3360 ha        1 YPA      0.128000
     47 H391       -0.0230   -5.8970   10.0520 hc        1 YPA      0.060700
     48 H392        0.8380   -7.0050    8.8910 hc        1 YPA      0.060700
     49 H40        -1.7350   -5.6180    7.9460 h1        1 YPA      0.021700
     50 H491       -3.6700   -7.0940    8.2030 h1        1 YPA      0.049700
     51 H492       -2.8910   -8.7060    8.5180 h1        1 YPA      0.049700
     52 H501       -3.4750   -8.4880   10.9850 hc        1 YPA      0.023367
     53 H502       -4.2820   -6.9050   10.6510 hc        1 YPA      0.023367
     54 H503       -4.9530   -8.4320    9.9290 hc        1 YPA      0.023367
@<TRIPOS>BOND
     1    1    2 ar  
     2    1    6 ar  
     3    1   31 1   
     4    2    3 ar  
     5    2   32 1   
     6    3    4 ar  
     7    3    7 1   
     8    4    5 ar  
     9    4    9 1   
    10    5    6 ar  
    11    5   33 1   
    12    6   34 1   
    13    7    8 ar  
    14    7   10 ar  
    15    8    9 1   
    16    8   13 ar  
    17    9   14 1   
    18   10   11 ar  
    19   10   35 1   
    20   11   12 ar  
    21   11   36 1   
    22   12   13 ar  
    23   12   37 1   
    24   13   38 1   
    25   14   15 1   
    26   14   39 1   
    27   14   40 1   
    28   15   16 1   
    29   15   41 1   
    30   15   42 1   
    31   16   17 1   
    32   17   18 ar  
    33   17   22 ar  
    34   18   19 ar  
    35   18   43 1   
    36   19   20 ar  
    37   19   44 1   
    38   20   21 ar  
    39   20   23 1   
    40   21   22 ar  
    41   21   45 1   
    42   22   46 1   
    43   23   24 1   
    44   23   47 1   
    45   23   48 1   
    46   24   25 1   
    47   24   28 1   
    48   24   49 1   
    49   25   26 1   
    50   25   27 1   
    51   28   29 1   
    52   29   30 1   
    53   29   50 1   
    54   29   51 1   
    55   30   52 1   
    56   30   53 1   
    57   30   54 1   
@<TRIPOS>SUBSTRUCTURE
     1 YPA         1 TEMP              0 ****  ****    0 ROOT
