@<TRIPOS>MOLECULE
YPH
   80    85     1     0     0
SMALL
bcc


@<TRIPOS>ATOM
      1 C38        11.6710   -1.5780    1.6190 c3        1 YPH      0.178800
      2 C39        12.2410   -2.7370    0.8060 c3        1 YPH     -0.095900
      3 C40        13.2220   -2.2250   -0.2420 c3        1 YPH      0.141100
      4 O43        13.6220   -3.3510   -1.0120 oh        1 YPH     -0.596800
      5 C41        12.5550   -1.1650   -1.1110 c3        1 YPH     -0.095900
      6 C42        11.9800   -0.0480   -0.2460 c3        1 YPH      0.178800
      7 N35        11.0850   -0.5310    0.7950 n3        1 YPH     -0.739600
      8 C36        10.5010    0.5460    1.5760 c3        1 YPH      0.173800
      9 C37         9.2490    1.1520    0.9230 c3        1 YPH      0.127400
     10 O34         8.1490    0.3680    1.4020 os        1 YPH     -0.321900
     11 C9          6.9150    0.6680    0.8670 ca        1 YPH      0.145100
     12 C8          6.6540    1.7530    0.0210 ca        1 YPH     -0.185500
     13 C7          5.3580    1.9640   -0.4410 ca        1 YPH     -0.068500
     14 C10         5.8780   -0.2060    1.2500 ca        1 YPH     -0.185500
     15 C11         4.5910    0.0180    0.7840 ca        1 YPH     -0.068500
     16 C6          4.3160    1.1040   -0.0660 ca        1 YPH     -0.080800
     17 C2          2.9710    1.3170   -0.5390 cc        1 YPH      0.092900
     18 O3          2.7870    2.4420   -1.3900 os        1 YPH     -0.301400
     19 C1          1.7860    0.6390   -0.3370 cd        1 YPH     -0.144200
     20 C5          0.7700    1.3390   -1.0810 ca        1 YPH     -0.395400
     21 C4          1.4310    2.4460   -1.7170 ca        1 YPH      0.613600
     22 N12         0.8310    3.3630   -2.5160 nb        1 YPH     -0.706000
     23 C13        -0.5010    3.1180   -2.6530 ca        1 YPH      0.678900
     24 N14        -1.2640    2.1290   -2.1210 nb        1 YPH     -0.772000
     25 C15        -0.6310    1.2010   -1.3220 ca        1 YPH      0.729200
     26 N44        -1.3100    0.1130   -0.8000 nh        1 YPH     -0.849900
     27 C16        -2.7510    0.0420   -0.8290 c3        1 YPH      0.207800
     28 C17        -3.2850   -1.2460   -0.1930 c3        1 YPH     -0.044100
     29 C18        -4.7680   -1.2910   -0.2940 ca        1 YPH     -0.107300
     30 C19        -5.3860   -1.5170   -1.5290 ca        1 YPH     -0.101000
     31 C20        -6.7690   -1.5700   -1.6350 ca        1 YPH     -0.156000
     32 C23        -5.5690   -1.1240    0.8390 ca        1 YPH     -0.101000
     33 C22        -6.9560   -1.1830    0.7570 ca        1 YPH     -0.156000
     34 C21        -7.5820   -1.4060   -0.4870 ca        1 YPH      0.065600
     35 N24        -8.9780   -1.5430   -0.6230 n         1 YPH     -0.463100
     36 C25        -9.9050   -0.8420    0.1840 c         1 YPH      0.768100
     37 O33        -9.5500   -0.2260    1.2110 o         1 YPH     -0.606100
     38 N26       -11.2540   -0.8750   -0.2370 n         1 YPH     -0.462100
     39 C27       -12.3220   -0.4470    0.5800 ca        1 YPH      0.058600
     40 C28       -12.2060    0.6450    1.4650 ca        1 YPH     -0.155500
     41 C29       -13.3130    1.0690    2.1960 ca        1 YPH     -0.108500
     42 C30       -14.5450    0.4310    2.0630 ca        1 YPH     -0.149000
     43 C31       -14.6680   -0.6480    1.1900 ca        1 YPH     -0.108500
     44 C32       -13.5750   -1.0930    0.4560 ca        1 YPH     -0.155500
     45 H1         10.8570   -1.9800    2.2860 h1        1 YPH      0.030950
     46 H2         12.4900   -1.1690    2.2830 h1        1 YPH      0.030950
     47 H3         12.7630   -3.4460    1.4980 hc        1 YPH      0.059700
     48 H4         11.4180   -3.3000    0.2950 hc        1 YPH      0.059700
     49 H5         14.1300   -1.7860    0.2620 h1        1 YPH      0.029700
     50 H6         14.1610   -3.0150   -1.7370 ho        1 YPH      0.399000
     51 H7         13.3010   -0.7220   -1.8200 hc        1 YPH      0.059700
     52 H8         11.7440   -1.6440   -1.7180 hc        1 YPH      0.059700
     53 H9         12.8410    0.5430    0.1910 h1        1 YPH      0.030950
     54 H10        11.3890    0.6510   -0.9030 h1        1 YPH      0.030950
     55 H12        10.1990    0.1530    2.5890 h1        1 YPH      0.049700
     56 H13        11.2320    1.3910    1.7370 h1        1 YPH      0.049700
     57 H14         9.1190    2.2110    1.2710 h1        1 YPH      0.046700
     58 H15         9.2840    1.1180   -0.1960 h1        1 YPH      0.046700
     59 H16         7.4550    2.4410   -0.2840 ha        1 YPH      0.147000
     60 H17         5.1450    2.8160   -1.1070 ha        1 YPH      0.144500
     61 H18         6.1040   -1.0530    1.9130 ha        1 YPH      0.147000
     62 H19         3.7790   -0.6630    1.0810 ha        1 YPH      0.144500
     63 H20         1.6350   -0.2550    0.2610 ha        1 YPH      0.161000
     64 H21        -1.0510    3.8400   -3.2950 h5        1 YPH      0.056100
     65 H22        -0.8500   -0.3580   -0.0540 hn        1 YPH      0.426800
     66 H23        -3.2020    0.9280   -0.2950 h1        1 YPH      0.061200
     67 H24        -3.0870    0.0870   -1.9050 h1        1 YPH      0.061200
     68 H25        -2.8500   -2.1400   -0.7170 hc        1 YPH      0.053200
     69 H26        -2.9720   -1.3020    0.8840 hc        1 YPH      0.053200
     70 H27        -4.7680   -1.6500   -2.4310 ha        1 YPH      0.136000
     71 H28        -7.2230   -1.7450   -2.6230 ha        1 YPH      0.151000
     72 H29        -5.1000   -0.9450    1.8200 ha        1 YPH      0.136000
     73 H30        -7.5590   -1.0420    1.6690 ha        1 YPH      0.151000
     74 H31        -9.2750   -1.8150   -1.5350 hn        1 YPH      0.307500
     75 H32       -11.5100   -1.5610   -0.9140 hn        1 YPH      0.306500
     76 H33       -11.2400    1.1610    1.5920 ha        1 YPH      0.148000
     77 H34       -13.2060    1.9210    2.8850 ha        1 YPH      0.134000
     78 H35       -15.4120    0.7750    2.6430 ha        1 YPH      0.134000
     79 H36       -15.6370   -1.1580    1.0790 ha        1 YPH      0.134000
     80 H37       -13.6990   -1.9500   -0.2250 ha        1 YPH      0.148000
@<TRIPOS>BOND
     1    1    2 1   
     2    1    7 1   
     3    1   45 1   
     4    1   46 1   
     5    2    3 1   
     6    2   47 1   
     7    2   48 1   
     8    3    4 1   
     9    3    5 1   
    10    3   49 1   
    11    4   50 1   
    12    5    6 1   
    13    5   51 1   
    14    5   52 1   
    15    6    7 1   
    16    6   53 1   
    17    6   54 1   
    18    7    8 1   
    19    8    9 1   
    20    8   55 1   
    21    8   56 1   
    22    9   10 1   
    23    9   57 1   
    24    9   58 1   
    25   10   11 1   
    26   11   12 ar  
    27   11   14 ar  
    28   12   13 ar  
    29   12   59 1   
    30   13   16 ar  
    31   13   60 1   
    32   14   15 ar  
    33   14   61 1   
    34   15   16 ar  
    35   15   62 1   
    36   16   17 1   
    37   17   18 1   
    38   17   19 2   
    39   18   21 1   
    40   19   20 1   
    41   19   63 1   
    42   20   21 ar  
    43   20   25 ar  
    44   21   22 ar  
    45   22   23 ar  
    46   23   24 ar  
    47   23   64 1   
    48   24   25 ar  
    49   25   26 1   
    50   26   27 1   
    51   26   65 1   
    52   27   28 1   
    53   27   66 1   
    54   27   67 1   
    55   28   29 1   
    56   28   68 1   
    57   28   69 1   
    58   29   30 ar  
    59   29   32 ar  
    60   30   31 ar  
    61   30   70 1   
    62   31   34 ar  
    63   31   71 1   
    64   32   33 ar  
    65   32   72 1   
    66   33   34 ar  
    67   33   73 1   
    68   34   35 1   
    69   35   36 1   
    70   35   74 1   
    71   36   37 2   
    72   36   38 1   
    73   38   39 1   
    74   38   75 1   
    75   39   40 ar  
    76   39   44 ar  
    77   40   41 ar  
    78   40   76 1   
    79   41   42 ar  
    80   41   77 1   
    81   42   43 ar  
    82   42   78 1   
    83   43   44 ar  
    84   43   79 1   
    85   44   80 1   
@<TRIPOS>SUBSTRUCTURE
     1 YPH         1 TEMP              0 ****  ****    0 ROOT
