@<TRIPOS>MOLECULE
YPH
   80    85     1     0     0
SMALL
bcc


@<TRIPOS>ATOM
      1 C38         0.0710    0.2300   -0.4290 c3        1 YPH      0.178800
      2 C39         1.5590   -0.0860   -0.3150 c3        1 YPH     -0.095900
      3 C40         1.8450   -0.8610    0.9660 c3        1 YPH      0.141100
      4 O43         3.2560   -1.0220    1.0400 oh        1 YPH     -0.596800
      5 C41         1.3080   -0.0980    2.1720 c3        1 YPH     -0.095900
      6 C42        -0.1730    0.2160    1.9900 c3        1 YPH      0.178800
      7 N35        -0.4660    0.9060    0.7430 n3        1 YPH     -0.739600
      8 C36        -1.8710    1.2480    0.6080 c3        1 YPH      0.173800
      9 C37        -2.2400    2.5660    1.3050 c3        1 YPH      0.126400
     10 O34        -2.0230    3.5910    0.3280 os        1 YPH     -0.321900
     11 C9         -2.1960    4.8870    0.7620 ca        1 YPH      0.145100
     12 C8         -2.6970    5.2470    2.0200 ca        1 YPH     -0.186000
     13 C7         -2.8460    6.5940    2.3370 ca        1 YPH     -0.068000
     14 C10        -1.8460    5.8760   -0.1780 ca        1 YPH     -0.186000
     15 C11        -2.0010    7.2140    0.1510 ca        1 YPH     -0.068000
     16 C6         -2.5030    7.5890    1.4100 ca        1 YPH     -0.080800
     17 C2         -2.6550    8.9860    1.7300 cc        1 YPH      0.092900
     18 O3         -3.1690    9.2700    3.0260 os        1 YPH     -0.301400
     19 C1         -2.4010   10.1450    1.0250 cd        1 YPH     -0.144200
     20 C5         -2.7590   11.2460    1.8830 ca        1 YPH     -0.395400
     21 C4         -3.2280   10.6610    3.1100 ca        1 YPH      0.613600
     22 N12        -3.6670   11.3530    4.1910 nb        1 YPH     -0.706000
     23 C13        -3.6150   12.6970    3.9830 ca        1 YPH      0.678900
     24 N14        -3.2070   13.3950    2.8930 nb        1 YPH     -0.772000
     25 C15        -2.7540   12.6720    1.8110 ca        1 YPH      0.729200
     26 N44        -2.2430   13.2970    0.6860 nu        1 YPH     -0.849900
     27 C16        -2.4130   14.7140    0.4710 c3        1 YPH      0.207800
     28 C17        -1.7750   15.1880   -0.8400 c3        1 YPH     -0.044100
     29 C18        -1.9350   16.6590   -0.9850 ca        1 YPH     -0.107300
     30 C19        -1.1910   17.5330   -0.1840 ca        1 YPH     -0.101000
     31 C20        -1.3250   18.9090   -0.3170 ca        1 YPH     -0.156000
     32 C23        -2.8150   17.1930   -1.9300 ca        1 YPH     -0.101000
     33 C22        -2.9570   18.5690   -2.0850 ca        1 YPH     -0.156000
     34 C21        -2.2130   19.4530   -1.2770 ca        1 YPH      0.065600
     35 N24        -2.2640   20.8520   -1.4340 ns        1 YPH     -0.463100
     36 C25        -3.4330   21.5440   -1.8290 c         1 YPH      0.768100
     37 O33        -4.4330   20.9430   -2.2770 o         1 YPH     -0.606100
     38 N26        -3.4090   22.9500   -1.6880 ns        1 YPH     -0.462100
     39 C27        -4.3830   23.7930   -2.2630 ca        1 YPH      0.058600
     40 C28        -5.7400   23.4240   -2.3600 ca        1 YPH     -0.155500
     41 C29        -6.6710   24.3250   -2.8730 ca        1 YPH     -0.108500
     42 C30        -6.2820   25.5970   -3.2880 ca        1 YPH     -0.149000
     43 C31        -4.9420   25.9700   -3.1940 ca        1 YPH     -0.108500
     44 C32        -3.9940   25.0850   -2.6930 ca        1 YPH     -0.155500
     45 H1         -0.0790    0.9130   -1.3130 h1        1 YPH      0.031200
     46 H2         -0.4850   -0.7320   -0.6390 h1        1 YPH      0.031200
     47 H3          2.1620    0.8590   -0.3150 hc        1 YPH      0.059700
     48 H4          1.8720   -0.6940   -1.2020 hc        1 YPH      0.059700
     49 H5          1.3630   -1.8790    0.9160 h1        1 YPH      0.029700
     50 H6          3.4460   -1.4200    1.8970 ho        1 YPH      0.399000
     51 H7          1.4350   -0.7080    3.1020 hc        1 YPH      0.059700
     52 H8          1.8940    0.8500    2.2980 hc        1 YPH      0.059700
     53 H9         -0.5080    0.8840    2.8340 h1        1 YPH      0.031200
     54 H10        -0.7540   -0.7520    2.0730 h1        1 YPH      0.031200
     55 H12        -2.5410    0.4460    1.0380 h1        1 YPH      0.049700
     56 H13        -2.1270    1.3580   -0.4850 h1        1 YPH      0.049700
     57 H14        -1.6160    2.7650    2.2140 h1        1 YPH      0.046700
     58 H15        -3.3270    2.5530    1.5820 h1        1 YPH      0.046700
     59 H16        -2.9740    4.4840    2.7610 ha        1 YPH      0.147000
     60 H17        -3.2390    6.8850    3.3250 ha        1 YPH      0.144500
     61 H18        -1.4520    5.5730   -1.1590 ha        1 YPH      0.147000
     62 H19        -1.7280    7.9900   -0.5810 ha        1 YPH      0.144500
     63 H20        -2.0020   10.2260    0.0180 ha        1 YPH      0.161000
     64 H21        -3.9670   13.3200    4.8340 h5        1 YPH      0.056100
     65 H22        -2.1710   12.7230   -0.1240 hn        1 YPH      0.426800
     66 H23        -3.5090   14.9850    0.4630 h1        1 YPH      0.061200
     67 H24        -1.9340   15.2630    1.3320 h1        1 YPH      0.061200
     68 H25        -2.2500   14.6610   -1.7100 hc        1 YPH      0.053200
     69 H26        -0.6810   14.9300   -0.8470 hc        1 YPH      0.053200
     70 H27        -0.4940   17.1260    0.5650 ha        1 YPH      0.136000
     71 H28        -0.7290   19.5680    0.3320 ha        1 YPH      0.151000
     72 H29        -3.4080   16.5200   -2.5690 ha        1 YPH      0.136000
     73 H30        -3.6640   18.9580   -2.8360 ha        1 YPH      0.151000
     74 H31        -1.6000   21.3490   -0.8790 hn        1 YPH      0.307500
     75 H32        -2.5220   23.3850   -1.5520 hn        1 YPH      0.306500
     76 H33        -6.0710   22.4210   -2.0450 ha        1 YPH      0.148000
     77 H34        -7.7260   24.0220   -2.9460 ha        1 YPH      0.134000
     78 H35        -7.0250   26.3000   -3.6890 ha        1 YPH      0.134000
     79 H36        -4.6260   26.9720   -3.5210 ha        1 YPH      0.134000
     80 H37        -2.9430   25.4030   -2.6320 ha        1 YPH      0.148000
@<TRIPOS>BOND
     1    1    2 1   
     2    1    7 1   
     3    1   45 1   
     4    1   46 1   
     5    2    3 1   
     6    2   47 1   
     7    2   48 1   
     8    3    4 1   
     9    3    5 1   
    10    3   49 1   
    11    4   50 1   
    12    5    6 1   
    13    5   51 1   
    14    5   52 1   
    15    6    7 1   
    16    6   53 1   
    17    6   54 1   
    18    7    8 1   
    19    8    9 1   
    20    8   55 1   
    21    8   56 1   
    22    9   10 1   
    23    9   57 1   
    24    9   58 1   
    25   10   11 1   
    26   11   12 ar  
    27   11   14 ar  
    28   12   13 ar  
    29   12   59 1   
    30   13   16 ar  
    31   13   60 1   
    32   14   15 ar  
    33   14   61 1   
    34   15   16 ar  
    35   15   62 1   
    36   16   17 1   
    37   17   18 1   
    38   17   19 2   
    39   18   21 1   
    40   19   20 1   
    41   19   63 1   
    42   20   21 ar  
    43   20   25 ar  
    44   21   22 ar  
    45   22   23 ar  
    46   23   24 ar  
    47   23   64 1   
    48   24   25 ar  
    49   25   26 1   
    50   26   27 1   
    51   26   65 1   
    52   27   28 1   
    53   27   66 1   
    54   27   67 1   
    55   28   29 1   
    56   28   68 1   
    57   28   69 1   
    58   29   30 ar  
    59   29   32 ar  
    60   30   31 ar  
    61   30   70 1   
    62   31   34 ar  
    63   31   71 1   
    64   32   33 ar  
    65   32   72 1   
    66   33   34 ar  
    67   33   73 1   
    68   34   35 1   
    69   35   36 1   
    70   35   74 1   
    71   36   37 2   
    72   36   38 1   
    73   38   39 1   
    74   38   75 1   
    75   39   40 ar  
    76   39   44 ar  
    77   40   41 ar  
    78   40   76 1   
    79   41   42 ar  
    80   41   77 1   
    81   42   43 ar  
    82   42   78 1   
    83   43   44 ar  
    84   43   79 1   
    85   44   80 1   
@<TRIPOS>SUBSTRUCTURE
     1 YPH         1 TEMP              0 ****  ****    0 ROOT
