@<TRIPOS>MOLECULE
YPN
   19    19     1     0     0
SMALL
bcc


@<TRIPOS>ATOM
      1 C1          0.0550   -0.0010   -0.0230 ca        1 YPN     -0.072000
      2 C2          1.4420   -0.0010    0.0800 ca        1 YPN     -0.232300
      3 C3          2.0360   -0.0000    1.3650 ca        1 YPN      0.491600
      4 N4          1.3030   -0.0000    2.5050 nb        1 YPN     -0.675000
      5 C5         -0.0340   -0.0010    2.3940 ca        1 YPN      0.424200
      6 C6         -0.7060   -0.0010    1.1540 ca        1 YPN     -0.121900
      7 Cl7        -2.3960   -0.0020    1.0970 cl        1 YPN     -0.073400
      8 S8          3.7360    0.0000    1.3820 ss        1 YPN     -0.257400
      9 C9          4.2060    0.0010    3.0870 c3        1 YPN     -0.035300
     10 C10         5.7200   -0.0030    3.1090 c3        1 YPN      0.139400
     11 O11         6.1040    0.0130    4.4760 oh        1 YPN     -0.594800
     12 H1         -0.4330   -0.0020   -1.0090 ha        1 YPN      0.154000
     13 H2          2.0750   -0.0010   -0.8190 ha        1 YPN      0.157000
     14 H5         -0.5950   -0.0000    3.3480 h4        1 YPN      0.037100
     15 H91C        3.8080   -0.8960    3.6200 h1        1 YPN      0.093700
     16 H92C        3.8130    0.9020    3.6170 h1        1 YPN      0.093700
     17 H101        6.1230   -0.9260    2.6110 h1        1 YPN      0.033700
     18 H102        6.1290    0.9050    2.5880 h1        1 YPN      0.033700
     19 H11         7.0690    0.0090    4.4890 ho        1 YPN      0.404000
@<TRIPOS>BOND
     1    1    2 ar  
     2    1    6 ar  
     3    1   12 1   
     4    2    3 ar  
     5    2   13 1   
     6    3    4 ar  
     7    3    8 1   
     8    4    5 ar  
     9    5    6 ar  
    10    5   14 1   
    11    6    7 1   
    12    8    9 1   
    13    9   10 1   
    14    9   15 1   
    15    9   16 1   
    16   10   11 1   
    17   10   17 1   
    18   10   18 1   
    19   11   19 1   
@<TRIPOS>SUBSTRUCTURE
     1 YPN         1 TEMP              0 ****  ****    0 ROOT
