@<TRIPOS>MOLECULE
YPP
   64    66     1     0     0
SMALL
bcc


@<TRIPOS>ATOM
      1 C           0.1940   -2.5490   -0.4080 c         1 YPP      0.909600
      2 N          -0.4660   -0.1850   -0.4740 n         1 YPP     -0.509900
      3 O          -0.1400   -3.3800   -1.2890 o         1 YPP     -0.843800
      4 CA         -0.8380   -1.4710    0.0860 c3        1 YPP     -0.066300
      5 CB         -2.2970   -1.8760   -0.2430 c3        1 YPP      0.300600
      6 NAE        -3.2540   -0.8600   -0.6420 n3        1 YPP     -0.804200
      7 CAG        -3.8330   -0.2310    0.5470 c3        1 YPP      0.041500
      8 CAH        -4.3340   -1.3630    1.4630 c3        1 YPP      0.118100
      9 SAI        -3.0220   -2.6380    1.2680 ss        1 YPP     -0.476200
     10 CAJ        -4.8440    0.9030    0.1970 c         1 YPP      0.935600
     11 OAK        -4.4470    1.7650   -0.6420 o         1 YPP     -0.850300
     12 OAL        -5.9440    0.9790    0.8080 o         1 YPP     -0.850300
     13 CAM        -4.3920   -0.9130    2.9000 c3        1 YPP     -0.078600
     14 CAN        -5.6480   -1.9520    1.0240 c3        1 YPP     -0.078600
     15 CAP         0.0800    0.8160    0.2720 c         1 YPP      0.620100
     16 OAQ         0.1380    0.8060    1.5230 o         1 YPP     -0.636100
     17 CAR         0.7110    2.0260   -0.4930 c3        1 YPP      0.048000
     18 CAS        -0.1930    3.2250   -0.3700 ca        1 YPP     -0.091300
     19 CAT         0.3170    4.5280   -0.3400 ca        1 YPP     -0.109500
     20 CAU        -0.5510    5.6180   -0.2930 ca        1 YPP     -0.135000
     21 CAV        -1.9320    5.4210   -0.2840 ca        1 YPP     -0.150000
     22 CAW        -2.4460    4.1270   -0.3210 ca        1 YPP     -0.135000
     23 CAX        -1.5800    3.0320   -0.3600 ca        1 YPP     -0.109500
     24 NAY         2.0620    2.2390    0.0240 n         1 YPP     -0.490900
     25 CAZ         3.0970    1.5580   -0.6730 c         1 YPP      0.759100
     26 OBA         3.3000    1.7640   -1.8820 o         1 YPP     -0.554100
     27 NBB         3.9550    0.6700    0.0670 n         1 YPP     -0.523400
     28 CBC         3.3280   -0.3460    0.8930 c3        1 YPP      0.062000
     29 CBD         3.9320   -1.7430    0.6810 c3        1 YPP      0.070000
     30 NBE         5.3790   -1.7360    0.7690 n         1 YPP     -0.460800
     31 CBF         6.0900   -0.6380    0.3420 c         1 YPP      0.630500
     32 OBG         7.3330   -0.5730    0.4050 o         1 YPP     -0.639500
     33 CBH         5.3130    0.5710   -0.2210 c         1 YPP      0.650500
     34 OBI         5.9310    1.4230   -0.8730 o         1 YPP     -0.573500
     35 CBJ         6.0370   -2.9750    1.1050 c3        1 YPP      0.096000
     36 CBK         5.8290   -4.1020    0.1020 c3        1 YPP     -0.122100
     37 OXT         1.3530   -2.4830    0.1030 o         1 YPP     -0.843800
     38 HN         -0.3880   -0.1480   -1.4630 hn        1 YPP      0.308500
     39 HA         -0.7320   -1.4070    1.2100 h1        1 YPP      0.099700
     40 HB         -2.2690   -2.6720   -1.0370 h2        1 YPP      0.115700
     41 HNAE       -2.8810   -0.1630   -1.2550 hn        1 YPP      0.380800
     42 HAG        -3.0260    0.3190    1.1340 h1        1 YPP      0.026700
     43 HAM        -5.0930   -0.0430    2.9710 hc        1 YPP      0.038700
     44 HAMA       -4.7630   -1.7370    3.5570 hc        1 YPP      0.038700
     45 HAMB       -3.3830   -0.5970    3.2610 hc        1 YPP      0.038700
     46 HAN        -5.5810   -2.3220   -0.0260 hc        1 YPP      0.038700
     47 HANA       -5.9330   -2.8060    1.6870 hc        1 YPP      0.038700
     48 HANB       -6.4410   -1.1620    1.0740 hc        1 YPP      0.038700
     49 HAR         0.7980    1.8010   -1.6020 h1        1 YPP      0.089700
     50 HAT         1.4020    4.7050   -0.3600 ha        1 YPP      0.158500
     51 HAU        -0.1410    6.6370   -0.2650 ha        1 YPP      0.146000
     52 HAV        -2.6110    6.2830   -0.2480 ha        1 YPP      0.110000
     53 HAW        -3.5340    3.9240   -0.3250 ha        1 YPP      0.146000
     54 HAX        -2.0410    2.0250   -0.3820 ha        1 YPP      0.158500
     55 HNAY        2.0860    2.1380    1.0230 hn        1 YPP      0.301500
     56 HBC         3.4330   -0.0360    1.9710 h1        1 YPP      0.091700
     57 HBCA        2.2230   -0.4560    0.6580 h1        1 YPP      0.091700
     58 HBD         3.5040   -2.4240    1.4710 h1        1 YPP      0.099700
     59 HBDA        3.5940   -2.1530   -0.3170 h1        1 YPP      0.099700
     60 HBJ         7.1410   -2.7760    1.2150 h1        1 YPP      0.049700
     61 HBJA        5.6390   -3.3110    2.1080 h1        1 YPP      0.049700
     62 HBK         6.2700   -3.8420   -0.8890 hc        1 YPP      0.044033
     63 HBKA        6.3300   -5.0220    0.4870 hc        1 YPP      0.044033
     64 HBKB        4.7410   -4.3160   -0.0400 hc        1 YPP      0.044033
@<TRIPOS>BOND
     1    1    3 1   
     2    1    4 1   
     3    1   37 1   
     4    2    4 1   
     5    2   15 1   
     6    2   38 1   
     7    4    5 1   
     8    4   39 1   
     9    5    6 1   
    10    5    9 1   
    11    5   40 1   
    12    6    7 1   
    13    6   41 1   
    14    7    8 1   
    15    7   10 1   
    16    7   42 1   
    17    8    9 1   
    18    8   13 1   
    19    8   14 1   
    20   10   11 1   
    21   10   12 1   
    22   13   43 1   
    23   13   44 1   
    24   13   45 1   
    25   14   46 1   
    26   14   47 1   
    27   14   48 1   
    28   15   16 2   
    29   15   17 1   
    30   17   18 1   
    31   17   24 1   
    32   17   49 1   
    33   18   19 ar  
    34   18   23 ar  
    35   19   20 ar  
    36   19   50 1   
    37   20   21 ar  
    38   20   51 1   
    39   21   22 ar  
    40   21   52 1   
    41   22   23 ar  
    42   22   53 1   
    43   23   54 1   
    44   24   25 1   
    45   24   55 1   
    46   25   26 2   
    47   25   27 1   
    48   27   28 1   
    49   27   33 1   
    50   28   29 1   
    51   28   56 1   
    52   28   57 1   
    53   29   30 1   
    54   29   58 1   
    55   29   59 1   
    56   30   31 1   
    57   30   35 1   
    58   31   32 2   
    59   31   33 1   
    60   33   34 2   
    61   35   36 1   
    62   35   60 1   
    63   35   61 1   
    64   36   62 1   
    65   36   63 1   
    66   36   64 1   
@<TRIPOS>SUBSTRUCTURE
     1 YPP         1 TEMP              0 ****  ****    0 ROOT
