@<TRIPOS>MOLECULE
YPP
   66    68     1     0     0
SMALL
bcc


@<TRIPOS>ATOM
      1 C           2.3980    0.2130   -2.8850 c         1 YPP      0.909600
      2 N           3.7020    1.3870   -1.1380 ns        1 YPP     -0.475900
      3 O           1.2530   -0.1980   -3.1670 o         1 YPP     -0.841800
      4 CA          2.9680    0.1510   -1.4280 c3        1 YPP     -0.058300
      5 CB          1.8410   -0.1590   -0.4260 c3        1 YPP      0.267600
      6 NAE         1.9440    0.4020    0.9060 n7        1 YPP     -0.794200
      7 CAG         1.4950   -0.5420    1.9250 c3        1 YPP      0.071500
      8 CAH         1.7630   -2.0100    1.5020 c3        1 YPP      0.009100
      9 SAI         1.6860   -1.9840   -0.2960 ss        1 YPP     -0.341200
     10 CAJ         0.0190   -0.3280    2.2590 c         1 YPP      0.645100
     11 OAK        -0.3970   -0.0400    3.3810 o         1 YPP     -0.500000
     12 OAL        -0.9470   -0.4410    1.3100 oh        1 YPP     -0.572100
     13 CAM         3.1450   -2.4300    1.9550 c3        1 YPP     -0.089600
     14 CAN         0.7280   -2.9700    2.0340 c3        1 YPP     -0.089600
     15 CAP         4.7500    1.6320   -2.0310 c         1 YPP      0.672100
     16 OAQ         5.6590    0.8200   -2.2720 o         1 YPP     -0.567100
     17 CAR         4.8010    3.0290   -2.7310 c3        1 YPP      0.117800
     18 CAS         5.9250    3.8900   -2.2470 ca        1 YPP     -0.173300
     19 CAT         5.7210    5.2770   -2.1930 ca        1 YPP     -0.093000
     20 CAU         6.7310    6.1120   -1.7200 ca        1 YPP     -0.135000
     21 CAV         7.9490    5.5710   -1.3060 ca        1 YPP     -0.092000
     22 CAW         8.1570    4.1930   -1.3700 ca        1 YPP     -0.135000
     23 CAX         7.1500    3.3510   -1.8410 ca        1 YPP     -0.093000
     24 NAY         4.9070    2.7740   -4.2260 ny        1 YPP     -0.646800
     25 CAZ         3.8550    3.5520   -4.9980 c         1 YPP      0.662100
     26 OBA         3.7320    4.7340   -4.6430 o         1 YPP     -0.514100
     27 NBB         3.1320    2.9570   -6.0140 n         1 YPP     -0.480400
     28 CBC         3.2020    1.5710   -6.4410 c3        1 YPP      0.078000
     29 CBD         1.8360    0.8650   -6.3840 c3        1 YPP      0.043000
     30 NBE         0.7600    1.6180   -6.9910 n         1 YPP     -0.432800
     31 CBF         0.8010    2.9940   -7.0460 c         1 YPP      0.639500
     32 OBG        -0.1310    3.7010   -7.4590 o         1 YPP     -0.567500
     33 CBH         2.0920    3.7320   -6.6420 c         1 YPP      0.633500
     34 OBI         2.2290    4.9370   -6.8200 o         1 YPP     -0.470500
     35 CBJ        -0.5280    0.9430   -7.0430 c3        1 YPP      0.085000
     36 CBK        -1.2030    0.7290   -5.6980 c3        1 YPP     -0.136100
     37 OXT         3.1700    0.7430   -3.7570 o         1 YPP     -0.841800
     38 HN         -0.5570   -0.7350    0.4690 ho        1 YPP      0.447000
     39 HA          3.7190   -0.6950   -1.4070 h1        1 YPP      0.111700
     40 HB          0.8680    0.1930   -0.8780 h2        1 YPP      0.119700
     41 HNAE        2.8790    0.6980    1.1220 hn        1 YPP      0.387800
     42 HAG         2.0530   -0.3310    2.8880 h1        1 YPP      0.103700
     43 HAM         3.4030   -3.4280    1.5240 hc        1 YPP      0.053033
     44 HAMA        3.1800   -2.5060    3.0700 hc        1 YPP      0.053033
     45 HAMB        3.9140   -1.6920    1.6220 hc        1 YPP      0.053033
     46 HAN        -0.2700   -2.7930    1.5610 hc        1 YPP      0.053033
     47 HANA        1.0350   -4.0240    1.8240 hc        1 YPP      0.053033
     48 HANB        0.6230   -2.8450    3.1410 hc        1 YPP      0.053033
     49 HAR         3.8220    3.5760   -2.5640 hx        1 YPP      0.120700
     50 HAT         4.7640    5.7060   -2.5360 ha        1 YPP      0.162000
     51 HAU         6.5640    7.1990   -1.6750 ha        1 YPP      0.147500
     52 HAV         8.7450    6.2320   -0.9290 ha        1 YPP      0.144000
     53 HAW         9.1170    3.7640   -1.0450 ha        1 YPP      0.147500
     54 HAX         7.3220    2.2610   -1.8780 ha        1 YPP      0.162000
     55 HNAY        5.8280    3.0740   -4.5540 hn        1 YPP      0.480800
     56 HBC         3.5920    1.5800   -7.5010 h1        1 YPP      0.080200
     57 HBCA        3.8930    0.9440   -5.8130 h1        1 YPP      0.080200
     58 HBD         1.5930    0.6110   -5.3010 h1        1 YPP      0.109700
     59 HBDA        1.9410   -0.1040   -6.9520 h1        1 YPP      0.109700
     60 HBJ        -1.2060    1.5490   -7.7110 h1        1 YPP      0.065700
     61 HBJA       -0.3490   -0.0570   -7.5330 h1        1 YPP      0.065700
     62 HBK        -1.4950    1.7040   -5.2400 hc        1 YPP      0.059033
     63 HBKA       -0.5380    0.1860   -4.9790 hc        1 YPP      0.059033
     64 HBKB       -2.1270    0.1220   -5.8580 hc        1 YPP      0.059033
     65 H2          3.0840    2.1660   -1.0140 hn        1 YPP      0.282500
     66 HAY2        4.8000    1.7480   -4.3660 hn        1 YPP      0.480800
@<TRIPOS>BOND
     1    1    3 1   
     2    1    4 1   
     3    1   37 1   
     4    2    4 1   
     5    2   15 1   
     6    2   65 1   
     7    4    5 1   
     8    4   39 1   
     9    5    6 1   
    10    5    9 1   
    11    5   40 1   
    12    6    7 1   
    13    6   41 1   
    14    7    8 1   
    15    7   10 1   
    16    7   42 1   
    17    8    9 1   
    18    8   13 1   
    19    8   14 1   
    20   10   11 2   
    21   10   12 1   
    22   12   38 1   
    23   13   43 1   
    24   13   44 1   
    25   13   45 1   
    26   14   46 1   
    27   14   47 1   
    28   14   48 1   
    29   15   16 2   
    30   15   17 1   
    31   17   18 1   
    32   17   24 1   
    33   17   49 1   
    34   18   19 ar  
    35   18   23 ar  
    36   19   20 ar  
    37   19   50 1   
    38   20   21 ar  
    39   20   51 1   
    40   21   22 ar  
    41   21   52 1   
    42   22   23 ar  
    43   22   53 1   
    44   23   54 1   
    45   24   25 1   
    46   24   55 1   
    47   24   66 1   
    48   25   26 2   
    49   25   27 1   
    50   27   28 1   
    51   27   33 1   
    52   28   29 1   
    53   28   56 1   
    54   28   57 1   
    55   29   30 1   
    56   29   58 1   
    57   29   59 1   
    58   30   31 1   
    59   30   35 1   
    60   31   32 2   
    61   31   33 1   
    62   33   34 2   
    63   35   36 1   
    64   35   60 1   
    65   35   61 1   
    66   36   62 1   
    67   36   63 1   
    68   36   64 1   
@<TRIPOS>SUBSTRUCTURE
     1 YPP         1 TEMP              0 ****  ****    0 ROOT
