@<TRIPOS>MOLECULE
YPP
   66    68     1     0     0
SMALL
bcc


@<TRIPOS>ATOM
      1 C           2.0030   -0.0410   -2.0470 c         1 YPP      0.915600
      2 N           3.6410    1.2470   -0.6870 n         1 YPP     -0.467900
      3 O           2.4370    0.6330   -3.0470 o         1 YPP     -0.834800
      4 CA          2.9140   -0.0250   -0.7690 c3        1 YPP     -0.068300
      5 CB          2.0750   -0.3530    0.4800 c3        1 YPP      0.271600
      6 NAE         2.3970    0.3230    1.7210 n3        1 YPP     -0.793200
      7 CAG         2.2630   -0.5690    2.8690 c3        1 YPP      0.071500
      8 CAH         2.5900   -2.0390    2.4930 c3        1 YPP      0.008100
      9 SAI         2.1510   -2.1680    0.7520 ss        1 YPP     -0.343200
     10 CAJ         0.8720   -0.4570    3.4920 c         1 YPP      0.645100
     11 OAK         0.6670   -0.1110    4.6560 o         1 YPP     -0.501000
     12 OAL        -0.2500   -0.7360    2.7800 oh        1 YPP     -0.572100
     13 CAM         4.0700   -2.2970    2.6740 c3        1 YPP     -0.089600
     14 CAN         1.7870   -3.0380    3.2900 c3        1 YPP     -0.089600
     15 CAP         4.4630    1.4780   -1.7940 c         1 YPP      0.672100
     16 OAQ         5.3330    0.6840   -2.1890 o         1 YPP     -0.576100
     17 CAR         4.2990    2.8300   -2.5620 c3        1 YPP      0.117800
     18 CAS         5.4390    3.7670   -2.3220 ca        1 YPP     -0.170300
     19 CAT         5.1680    5.1320   -2.1520 ca        1 YPP     -0.093500
     20 CAU         6.2090    6.0230   -1.9000 ca        1 YPP     -0.132500
     21 CAV         7.5230    5.5600   -1.8250 ca        1 YPP     -0.093000
     22 CAW         7.7960    4.2040   -2.0050 ca        1 YPP     -0.132500
     23 CAX         6.7590    3.3060   -2.2540 ca        1 YPP     -0.093500
     24 NAY         4.1640    2.4780   -4.0290 n4        1 YPP     -0.651800
     25 CAZ         3.1580    3.3440   -4.7620 c         1 YPP      0.674100
     26 OBA         2.9450    4.4660   -4.3050 o         1 YPP     -0.453100
     27 NBB         2.5910    2.8040   -5.9280 n         1 YPP     -0.511400
     28 CBC         2.1000    1.4350   -5.9440 c3        1 YPP      0.030000
     29 CBD         0.8200    1.2790   -6.7850 c3        1 YPP      0.079000
     30 NBE         0.9230    1.8810   -8.0920 n         1 YPP     -0.459800
     31 CBF         1.6110    3.0640   -8.2490 c         1 YPP      0.649500
     32 OBG         1.7260    3.6630   -9.3280 o         1 YPP     -0.563500
     33 CBH         2.3190    3.6630   -7.0210 c         1 YPP      0.635500
     34 OBI         2.6810    4.8400   -7.0090 o         1 YPP     -0.508500
     35 CBJ         0.0840    1.3600   -9.1520 c3        1 YPP      0.088000
     36 CBK        -1.4090    1.5590   -8.9450 c3        1 YPP     -0.123100
     37 OXT         0.9260   -0.6650   -2.0590 o         1 YPP     -0.834800
     38 HN          3.0240    2.0100   -0.4800 hn        1 YPP      0.281500
     39 HA          3.6850   -0.8420   -0.9090 h1        1 YPP      0.111700
     40 HB          0.9940   -0.1340    0.2360 h2        1 YPP      0.120700
     41 HNAE        3.3240    0.7090    1.7140 hn        1 YPP      0.386800
     42 HAG         2.9810   -0.2310    3.6780 h1        1 YPP      0.102700
     43 HAM         4.3380   -3.3000    2.2610 hc        1 YPP      0.052700
     44 HAMA        4.6760   -1.5230    2.1440 hc        1 YPP      0.052700
     45 HAMB        4.3360   -2.2780    3.7600 hc        1 YPP      0.052700
     46 HAN         1.8940   -2.8290    4.3840 hc        1 YPP      0.052700
     47 HANA        0.7020   -2.9900    3.0230 hc        1 YPP      0.052700
     48 HANB        2.1530   -4.0740    3.0880 hc        1 YPP      0.052700
     49 HAR         3.3250    3.3240   -2.2620 hx        1 YPP      0.123700
     50 HAT         4.1310    5.5010   -2.2310 ha        1 YPP      0.158500
     51 HAU         5.9910    7.0930   -1.7620 ha        1 YPP      0.147500
     52 HAV         8.3440    6.2650   -1.6230 ha        1 YPP      0.144000
     53 HAW         8.8320    3.8370   -1.9450 ha        1 YPP      0.147500
     54 HAX         6.9790    2.2320   -2.3770 ha        1 YPP      0.158500
     55 HNAY        3.8710    1.4720   -4.0760 hn        1 YPP      0.487800
     56 HBC         2.9130    0.7750   -6.3630 h1        1 YPP      0.114200
     57 HBCA        1.8370    1.0770   -4.8970 h1        1 YPP      0.114200
     58 HBD         0.6310    0.1730   -6.9040 h1        1 YPP      0.079200
     59 HBDA       -0.0550    1.7200   -6.2230 h1        1 YPP      0.079200
     60 HBJ         0.3000    0.2560   -9.2380 h1        1 YPP      0.069700
     61 HBJA        0.3940    1.8560  -10.1180 h1        1 YPP      0.069700
     62 HBK        -1.7550    1.0760   -8.0000 hc        1 YPP      0.050033
     63 HBKA       -1.6710    2.6430   -8.9070 hc        1 YPP      0.050033
     64 HBKB       -1.9510    1.0920   -9.8030 hc        1 YPP      0.050033
     65 H2         -0.0130   -1.0660    1.8960 ho        1 YPP      0.448000
     66 HAY2        5.0750    2.5830   -4.4840 hn        1 YPP      0.487800
@<TRIPOS>BOND
     1    1    3 1   
     2    1    4 1   
     3    1   37 1   
     4    2    4 1   
     5    2   15 1   
     6    2   38 1   
     7    4    5 1   
     8    4   39 1   
     9    5    6 1   
    10    5    9 1   
    11    5   40 1   
    12    6    7 1   
    13    6   41 1   
    14    7    8 1   
    15    7   10 1   
    16    7   42 1   
    17    8    9 1   
    18    8   13 1   
    19    8   14 1   
    20   10   11 2   
    21   10   12 1   
    22   12   65 1   
    23   13   43 1   
    24   13   44 1   
    25   13   45 1   
    26   14   46 1   
    27   14   47 1   
    28   14   48 1   
    29   15   16 2   
    30   15   17 1   
    31   17   18 1   
    32   17   24 1   
    33   17   49 1   
    34   18   19 ar  
    35   18   23 ar  
    36   19   20 ar  
    37   19   50 1   
    38   20   21 ar  
    39   20   51 1   
    40   21   22 ar  
    41   21   52 1   
    42   22   23 ar  
    43   22   53 1   
    44   23   54 1   
    45   24   25 1   
    46   24   55 1   
    47   24   66 1   
    48   25   26 2   
    49   25   27 1   
    50   27   28 1   
    51   27   33 1   
    52   28   29 1   
    53   28   56 1   
    54   28   57 1   
    55   29   30 1   
    56   29   58 1   
    57   29   59 1   
    58   30   31 1   
    59   30   35 1   
    60   31   32 2   
    61   31   33 1   
    62   33   34 2   
    63   35   36 1   
    64   35   60 1   
    65   35   61 1   
    66   36   62 1   
    67   36   63 1   
    68   36   64 1   
@<TRIPOS>SUBSTRUCTURE
     1 YPP         1 TEMP              0 ****  ****    0 ROOT
