@<TRIPOS>MOLECULE
YPW
   51    53     1     0     0
SMALL
bcc


@<TRIPOS>ATOM
      1 C1         -0.2600    0.1850    0.1160 ca        1 YPW      0.607300
      2 C2          1.1630    0.0550    0.0680 ca        1 YPW      0.233900
      3 N3          1.9050   -0.0370    1.2220 nb        1 YPW     -0.573000
      4 C4          1.2390   -0.0220    2.3670 ca        1 YPW      0.293900
      5 C5         -0.2090    0.0860    2.4320 cp        1 YPW      0.525500
      6 N6         -0.9330    0.2140    1.3000 nb        1 YPW     -0.682000
      7 N7          1.8910    0.0120   -1.2040 n4        1 YPW     -0.785300
      8 O8         -0.9030    0.2980   -1.0930 os        1 YPW     -0.489100
      9 C9         -2.3640    0.2540   -1.1010 c3        1 YPW      0.200400
     10 C10        -2.7760    0.7640   -2.4600 ca        1 YPW      0.021700
     11 C11        -3.9880    1.4620   -2.6640 ca        1 YPW     -0.217600
     12 C12        -4.3450    1.8640   -3.9660 ca        1 YPW     -0.061000
     13 C13        -3.5220    1.6120   -5.0510 ca        1 YPW     -0.148000
     14 C14        -2.3020    0.9300   -4.8460 ca        1 YPW      0.226900
     15 C15        -1.9460    0.5060   -3.5510 ca        1 YPW     -0.171000
     16 F16        -1.4850    0.6780   -5.8820 f         1 YPW     -0.083900
     17 C17        -0.8470    0.0520    3.7370 cp        1 YPW     -0.371800
     18 C18        -2.0210   -0.7120    4.0080 ca        1 YPW      0.698600
     19 N19        -2.6250   -0.7370    5.2320 nb        1 YPW     -0.722000
     20 C20        -2.0700   -0.0150    6.2120 ca        1 YPW      0.496200
     21 C21        -0.8970    0.7580    6.0520 ca        1 YPW     -0.275300
     22 C22        -0.2890    0.7850    4.8070 ca        1 YPW     -0.029000
     23 O23        -2.5140   -1.4660    2.9740 os        1 YPW     -0.453100
     24 C24        -3.6070   -2.3540    3.2520 c3        1 YPW      0.123700
     25 C25        -4.8980    1.7020   -1.5430 c         1 YPW      0.569700
     26 N26        -5.7880    2.9350   -1.6590 n4        1 YPW     -0.671800
     27 O27        -5.0470    1.0470   -0.5210 o         1 YPW     -0.414100
     28 C28        -6.2580    3.4380   -0.3470 c3        1 YPW      0.080100
     29 C29        -2.8390   -1.1710   -0.8920 c3        1 YPW     -0.128100
     30 H4          1.8390   -0.1160    3.2950 h4        1 YPW      0.085100
     31 HN7         1.2160   -0.1110   -1.9660 hn        1 YPW      0.472467
     32 HN7A        2.5600   -0.7710   -1.2010 hn        1 YPW      0.472467
     33 H9         -2.7490    0.9350   -0.2920 h1        1 YPW      0.098700
     34 H12        -5.3080    2.3620   -4.1690 ha        1 YPW      0.143000
     35 H13        -3.8090    1.9240   -6.0700 ha        1 YPW      0.198000
     36 H15        -1.0070   -0.0520   -3.4090 ha        1 YPW      0.164000
     37 H20        -2.5930   -0.0600    7.1900 h4        1 YPW      0.057100
     38 H21        -0.4850    1.3190    6.9030 ha        1 YPW      0.177000
     39 H22         0.6190    1.3860    4.6440 ha        1 YPW      0.150000
     40 H24        -3.7670   -2.8540    2.2630 h1        1 YPW      0.064700
     41 H24A       -4.5090   -1.7760    3.5620 h1        1 YPW      0.064700
     42 H24B       -3.3200   -3.0950    4.0350 h1        1 YPW      0.064700
     43 HN26       -6.6040    2.6840   -2.2340 hn        1 YPW      0.464800
     44 H28        -6.9430    4.3140   -0.5140 hx        1 YPW      0.118367
     45 H28A       -5.3750    3.7550    0.2700 hx        1 YPW      0.118367
     46 H28B       -6.8100    2.6210    0.1950 hx        1 YPW      0.118367
     47 H29        -3.9470   -1.2120   -1.0360 hc        1 YPW      0.076700
     48 H29A       -2.3500   -1.8630   -1.6190 hc        1 YPW      0.076700
     49 H29B       -2.6110   -1.5120    0.1490 hc        1 YPW      0.076700
     50 H73         2.4090    0.8900   -1.3360 hn        1 YPW      0.472467
     51 H262       -5.2660    3.6720   -2.1470 hn        1 YPW      0.464800
@<TRIPOS>BOND
     1    1    2 ar  
     2    1    6 ar  
     3    1    8 1   
     4    2    3 ar  
     5    2    7 1   
     6    3    4 ar  
     7    4    5 ar  
     8    4   30 1   
     9    5    6 ar  
    10    5   17 1   
    11    7   31 1   
    12    7   32 1   
    13    7   50 1   
    14    8    9 1   
    15    9   10 1   
    16    9   29 1   
    17    9   33 1   
    18   10   11 ar  
    19   10   15 ar  
    20   11   12 ar  
    21   11   25 1   
    22   12   13 ar  
    23   12   34 1   
    24   13   14 ar  
    25   13   35 1   
    26   14   15 ar  
    27   14   16 1   
    28   15   36 1   
    29   17   18 ar  
    30   17   22 ar  
    31   18   19 ar  
    32   18   23 1   
    33   19   20 ar  
    34   20   21 ar  
    35   20   37 1   
    36   21   22 ar  
    37   21   38 1   
    38   22   39 1   
    39   23   24 1   
    40   24   40 1   
    41   24   41 1   
    42   24   42 1   
    43   25   26 1   
    44   25   27 2   
    45   26   28 1   
    46   26   43 1   
    47   26   51 1   
    48   28   44 1   
    49   28   45 1   
    50   28   46 1   
    51   29   47 1   
    52   29   48 1   
    53   29   49 1   
@<TRIPOS>SUBSTRUCTURE
     1 YPW         1 TEMP              0 ****  ****    0 ROOT
