@<TRIPOS>MOLECULE
YPW
   50    52     1     0     0
SMALL
bcc


@<TRIPOS>ATOM
      1 C1         -0.4540   -0.5050   -0.3850 ca        1 YPW      0.444300
      2 C2          0.9840   -0.6490   -0.1110 ca        1 YPW      0.598900
      3 N3          1.4760   -0.1490    1.0660 nb        1 YPW     -0.686000
      4 C4          0.6090    0.4610    1.8880 ca        1 YPW      0.355900
      5 C5         -0.7750    0.5940    1.6090 cp        1 YPW      0.284500
      6 N6         -1.3100    0.0940    0.4560 nb        1 YPW     -0.710000
      7 N7          1.8260   -1.2220   -1.0290 nv        1 YPW     -0.935500
      8 O8         -0.8490   -1.0480   -1.5980 os        1 YPW     -0.444100
      9 C9         -2.2240   -0.9270   -1.9880 c3        1 YPW      0.197400
     10 C10        -2.5830    0.4990   -2.3060 ca        1 YPW     -0.022300
     11 C11        -3.7640    1.0810   -1.8180 ca        1 YPW     -0.208600
     12 C12        -4.1170    2.3920   -2.1650 ca        1 YPW     -0.058000
     13 C13        -3.2890    3.1420   -2.9890 ca        1 YPW     -0.158000
     14 C14        -2.0920    2.5720   -3.4710 ca        1 YPW      0.194900
     15 C15        -1.7460    1.2500   -3.1310 ca        1 YPW     -0.149000
     16 F16        -1.2780    3.2940   -4.2650 f         1 YPW     -0.101900
     17 C17        -1.6130    1.2850    2.5900 cp        1 YPW     -0.264800
     18 C18        -2.7090    0.6670    3.2450 ca        1 YPW      0.586600
     19 N19        -3.4490    1.2670    4.2160 nb        1 YPW     -0.716000
     20 C20        -3.1020    2.5160    4.5670 ca        1 YPW      0.434200
     21 C21        -2.0370    3.2230    3.9760 ca        1 YPW     -0.251300
     22 C22        -1.2920    2.5960    2.9800 ca        1 YPW     -0.063000
     23 O23        -3.0640   -0.6060    2.8170 os        1 YPW     -0.507100
     24 C24        -3.5370   -1.5050    3.8290 c3        1 YPW      0.123700
     25 C25        -4.6780    0.3030   -0.9660 c         1 YPW      0.582700
     26 N26        -4.3840    0.4020    0.5180 ny        1 YPW     -0.667800
     27 O27        -5.6230   -0.3980   -1.2890 o         1 YPW     -0.406100
     28 C28        -5.6110    0.5920    1.3220 c3        1 YPW      0.076100
     29 C29        -2.3540   -1.8120   -3.2220 c3        1 YPW     -0.102100
     30 H4          1.0400    0.8600    2.8260 h4        1 YPW      0.050100
     31 HN7         1.4220   -1.7230   -1.7830 hn        1 YPW      0.454300
     32 HN7A        2.7720   -1.4030   -0.7840 hn        1 YPW      0.454300
     33 H9         -2.8770   -1.3310   -1.1640 h1        1 YPW      0.038700
     34 H12        -5.0600    2.8300   -1.8000 ha        1 YPW      0.154000
     35 H13        -3.5580    4.1720   -3.2740 ha        1 YPW      0.180000
     36 H15        -0.8110    0.8080   -3.5150 ha        1 YPW      0.183000
     37 H20        -3.7130    2.9700    5.3710 h4        1 YPW      0.047100
     38 H21        -1.7960    4.2430    4.3090 ha        1 YPW      0.169000
     39 H22        -0.4430    3.1130    2.5040 ha        1 YPW      0.162000
     40 H24        -4.5780   -1.2290    4.1250 h1        1 YPW      0.061033
     41 H24A       -3.5110   -2.5010    3.3180 h1        1 YPW      0.061033
     42 H24B       -2.8600   -1.4950    4.7150 h1        1 YPW      0.061033
     43 HN26       -3.9120   -0.4680    0.8240 hn        1 YPW      0.481300
     44 H28        -5.3590    0.4540    2.4100 hx        1 YPW      0.109367
     45 H28A       -6.3810   -0.1690    1.0170 hx        1 YPW      0.109367
     46 H28B       -6.0170    1.6230    1.1510 hx        1 YPW      0.109367
     47 H29        -2.0610   -2.8590   -2.9660 hc        1 YPW      0.068033
     48 H29A       -3.4120   -1.8000   -3.5760 hc        1 YPW      0.068033
     49 H29B       -1.6880   -1.4440   -4.0380 hc        1 YPW      0.068033
     50 H262       -3.7200    1.1690    0.6910 hn        1 YPW      0.481300
@<TRIPOS>BOND
     1    1    2 ar  
     2    1    6 ar  
     3    1    8 1   
     4    2    3 ar  
     5    2    7 1   
     6    3    4 ar  
     7    4    5 ar  
     8    4   30 1   
     9    5    6 ar  
    10    5   17 1   
    11    7   31 1   
    12    7   32 1   
    13    8    9 1   
    14    9   10 1   
    15    9   29 1   
    16    9   33 1   
    17   10   11 ar  
    18   10   15 ar  
    19   11   12 ar  
    20   11   25 1   
    21   12   13 ar  
    22   12   34 1   
    23   13   14 ar  
    24   13   35 1   
    25   14   15 ar  
    26   14   16 1   
    27   15   36 1   
    28   17   18 ar  
    29   17   22 ar  
    30   18   19 ar  
    31   18   23 1   
    32   19   20 ar  
    33   20   21 ar  
    34   20   37 1   
    35   21   22 ar  
    36   21   38 1   
    37   22   39 1   
    38   23   24 1   
    39   24   40 1   
    40   24   41 1   
    41   24   42 1   
    42   25   26 1   
    43   25   27 2   
    44   26   28 1   
    45   26   43 1   
    46   26   50 1   
    47   28   44 1   
    48   28   45 1   
    49   28   46 1   
    50   29   47 1   
    51   29   48 1   
    52   29   49 1   
@<TRIPOS>SUBSTRUCTURE
     1 YPW         1 TEMP              0 ****  ****    0 ROOT
