@<TRIPOS>MOLECULE
YPZ
   36    37     1     0     0
SMALL
bcc


@<TRIPOS>ATOM
      1 C5'        -5.2080   -2.3540    0.4980 ca        1 YPZ     -0.108000
      2 C4'        -6.3990   -1.7880    0.0450 ca        1 YPZ     -0.166000
      3 C3'        -6.4140   -0.4550   -0.3590 ca        1 YPZ     -0.108000
      4 C2'        -5.2550    0.3130   -0.3170 ca        1 YPZ     -0.163500
      5 C1'        -4.0460   -0.2540    0.1490 ca        1 YPZ      0.165600
      6 C6'        -4.0370   -1.6060    0.5540 ca        1 YPZ     -0.163500
      7 NX1        -2.9060    0.5890    0.2570 nh        1 YPZ     -0.414700
      8 NX2        -1.6990    0.0560    0.3530 n2        1 YPZ     -0.387400
      9 N           2.7900   -1.5340   -1.2820 n3        1 YPZ     -0.892800
     10 CA          3.7330   -0.7610   -0.4850 c3        1 YPZ      0.019500
     11 C           5.0340   -1.5460   -0.0910 c         1 YPZ      0.889600
     12 O           5.2290   -2.6660   -0.6450 o         1 YPZ     -0.837300
     13 CG          1.8800    0.5870    0.5680 cc        1 YPZ     -0.118400
     14 CD1         2.0010    2.0580    0.4610 c         1 YPZ      0.576500
     15 CD2         0.6790   -0.0130    0.4490 cd        1 YPZ     -0.179600
     16 CE1         0.8270    2.7460   -0.1010 cc        1 YPZ     -0.329200
     17 CE2        -0.5740    0.7180    0.1810 cd        1 YPZ      0.412900
     18 CZ         -0.3620    2.1200   -0.2390 cd        1 YPZ      0.054500
     19 OH         -1.4600    2.7490   -0.7870 oh        1 YPZ     -0.533100
     20 OXT         5.8140   -1.0090    0.7400 o         1 YPZ     -0.837300
     21 H5'        -5.1880   -3.4080    0.8150 ha        1 YPZ      0.127000
     22 H4'        -7.3180   -2.3890    0.0060 ha        1 YPZ      0.126000
     23 H3'        -7.3490   -0.0000   -0.7200 ha        1 YPZ      0.127000
     24 H2'        -5.2920    1.3620   -0.6460 ha        1 YPZ      0.145500
     25 H6'        -3.1100   -2.0790    0.9160 ha        1 YPZ      0.145500
     26 H1         -3.0230    1.4820   -0.1990 hn        1 YPZ      0.424800
     27 HA          4.0640    0.1060   -1.1260 h1        1 YPZ      0.046700
     28 HD2         0.6000   -1.1110    0.5380 ha        1 YPZ      0.159000
     29 HE1         0.9760    3.7910   -0.4070 ha        1 YPZ      0.142000
     30 HH         -1.1890    3.6290   -1.0870 ho        1 YPZ      0.427000
     31 CB          3.1210   -0.1990    0.8040 c3        1 YPZ     -0.035200
     32 H           3.3200   -1.9840   -2.0110 hn        1 YPZ      0.331800
     33 HB2         2.9020   -1.0460    1.5070 hc        1 YPZ      0.072200
     34 HB3         3.9090    0.4460    1.2820 hc        1 YPZ      0.072200
     35 OX1         2.9970    2.7010    0.8160 o         1 YPZ     -0.525100
     36 H2          2.4210   -2.2730   -0.7090 hn        1 YPZ      0.331800
@<TRIPOS>BOND
     1    1    2 ar  
     2    1    6 ar  
     3    1   21 1   
     4    2    3 ar  
     5    2   22 1   
     6    3    4 ar  
     7    3   23 1   
     8    4    5 ar  
     9    4   24 1   
    10    5    6 ar  
    11    5    7 1   
    12    6   25 1   
    13    7    8 1   
    14    7   26 1   
    15    8   17 2   
    16    9   10 1   
    17    9   32 1   
    18    9   36 1   
    19   10   11 1   
    20   10   27 1   
    21   10   31 1   
    22   11   12 1   
    23   11   20 1   
    24   13   14 1   
    25   13   15 2   
    26   13   31 1   
    27   14   16 1   
    28   14   35 2   
    29   15   17 1   
    30   15   28 1   
    31   16   18 2   
    32   16   29 1   
    33   17   18 1   
    34   18   19 1   
    35   19   30 1   
    36   31   33 1   
    37   31   34 1   
@<TRIPOS>SUBSTRUCTURE
     1 YPZ         1 TEMP              0 ****  ****    0 ROOT
