@<TRIPOS>MOLECULE
YQY
   43    45     1     0     0
SMALL
bcc


@<TRIPOS>ATOM
      1 F26        -0.0660    0.7690    0.1570 f         1 YQY     -0.093900
      2 C9          1.2290    0.3930    0.2070 ca        1 YQY      0.116900
      3 C10         1.8910    0.3680    1.4710 ca        1 YQY      0.173900
      4 F22         1.2230    0.7510    2.5710 f         1 YQY     -0.063900
      5 C11         3.2210   -0.0660    1.5400 ca        1 YQY     -0.107000
      6 C12         3.8780   -0.4720    0.3820 ca        1 YQY     -0.075000
      7 C13         3.2620   -0.4500   -0.8700 ca        1 YQY     -0.098600
      8 C16         3.9770   -0.9820   -2.0710 c         1 YQY      0.673700
      9 O18         3.3410   -1.5940   -2.9600 o         1 YQY     -0.596100
     10 N17         5.3150   -0.7150   -2.3030 n         1 YQY     -0.446800
     11 C21         6.0180   -1.2610   -3.4780 cy        1 YQY      0.047000
     12 C20         7.3420   -1.2880   -2.6420 cy        1 YQY      0.088800
     13 O23         7.9290   -2.5430   -2.4320 oh        1 YQY     -0.603800
     14 C24         8.4110   -0.3420   -3.1900 c3        1 YQY      0.120800
     15 N25         9.7750   -0.5890   -2.6450 n4        1 YQY     -0.830600
     16 C19         6.4870   -0.7700   -1.4270 cy        1 YQY      0.047000
     17 C8          1.9220    0.0040   -0.9670 ca        1 YQY     -0.001400
     18 N7          1.1950    0.0490   -2.2450 n4        1 YQY     -0.504800
     19 C5          1.0400    1.3960   -2.8070 ca        1 YQY     -0.092400
     20 C6          2.0220    1.9350   -3.6790 ca        1 YQY      0.155900
     21 F15         3.1370    1.2300   -3.9760 f         1 YQY     -0.127900
     22 C1          1.8270    3.2060   -4.2490 ca        1 YQY     -0.115000
     23 C4         -0.1180    2.1460   -2.5280 ca        1 YQY     -0.078000
     24 C3         -0.2910    3.4010   -3.1020 ca        1 YQY     -0.082000
     25 C2          0.6760    3.9350   -3.9590 ca        1 YQY      0.084900
     26 I14         0.4070    5.7570   -4.7830 i         1 YQY     -0.021900
     27 H11         3.7310   -0.0930    2.5200 ha        1 YQY      0.200000
     28 H12         4.9120   -0.8380    0.4870 ha        1 YQY      0.160000
     29 H211        5.6590   -2.2670   -3.8150 h1        1 YQY      0.096950
     30 H212        6.0070   -0.5450   -4.3350 h1        1 YQY      0.096950
     31 H191        6.7650    0.2370   -1.0330 h1        1 YQY      0.096950
     32 H192        6.4380   -1.5210   -0.5980 h1        1 YQY      0.096950
     33 H23         7.2350   -3.2200   -2.4240 ho        1 YQY      0.467000
     34 H241        8.4670   -0.4770   -4.3120 hx        1 YQY      0.126200
     35 H242        8.1190    0.7240   -2.9620 hx        1 YQY      0.126200
     36 H251       10.4610   -0.0010   -3.1310 hn        1 YQY      0.474800
     37 H252        9.8060   -0.3860   -1.6410 hn        1 YQY      0.474800
     38 H7          1.6760   -0.5490   -2.9480 hn        1 YQY      0.489800
     39 H4         -0.9010    1.7520   -1.8550 ha        1 YQY      0.175000
     40 H1          2.6000    3.6000   -4.9320 ha        1 YQY      0.191000
     41 H3         -1.2110    3.9700   -2.8700 ha        1 YQY      0.193000
     42 H253       10.0210   -1.5830   -2.7780 hn        1 YQY      0.474800
     43 H72         0.2510   -0.3410   -2.0810 hn        1 YQY      0.489800
@<TRIPOS>BOND
     1    1    2 1   
     2    2    3 ar  
     3    2   17 ar  
     4    3    4 1   
     5    3    5 ar  
     6    5    6 ar  
     7    5   27 1   
     8    6    7 ar  
     9    6   28 1   
    10    7    8 1   
    11    7   17 ar  
    12    8    9 2   
    13    8   10 1   
    14   10   11 1   
    15   10   16 1   
    16   11   12 1   
    17   11   29 1   
    18   11   30 1   
    19   12   13 1   
    20   12   14 1   
    21   12   16 1   
    22   13   33 1   
    23   14   15 1   
    24   14   34 1   
    25   14   35 1   
    26   15   36 1   
    27   15   37 1   
    28   15   42 1   
    29   16   31 1   
    30   16   32 1   
    31   17   18 1   
    32   18   19 1   
    33   18   38 1   
    34   18   43 1   
    35   19   20 ar  
    36   19   23 ar  
    37   20   21 1   
    38   20   22 ar  
    39   22   25 ar  
    40   22   40 1   
    41   23   24 ar  
    42   23   39 1   
    43   24   25 ar  
    44   24   41 1   
    45   25   26 1   
@<TRIPOS>SUBSTRUCTURE
     1 YQY         1 TEMP              0 ****  ****    0 ROOT
