@<TRIPOS>MOLECULE
YQY
   41    43     1     0     0
SMALL
bcc


@<TRIPOS>ATOM
      1 F26         0.3390   -3.2690   -0.4550 f         1 YQY     -0.111900
      2 C9          1.2050   -2.5780    0.3210 ca        1 YQY      0.052900
      3 C10         1.9870   -3.2970    1.2610 ca        1 YQY      0.135900
      4 F22         1.8220   -4.6330    1.3720 f         1 YQY     -0.117900
      5 C11         2.9300   -2.6320    2.0600 ca        1 YQY     -0.179000
      6 C12         3.1010   -1.2630    1.9100 ca        1 YQY     -0.061000
      7 C13         2.3360   -0.5300    1.0020 ca        1 YQY     -0.182600
      8 C16         2.5480    0.9450    0.8980 c         1 YQY      0.654700
      9 O18         1.5910    1.7450    0.8640 o         1 YQY     -0.585100
     10 N17         3.8550    1.4210    0.9330 n         1 YQY     -0.438800
     11 C21         4.2170    2.7700    0.4680 cy        1 YQY      0.057000
     12 C20         5.5050    2.1710   -0.1910 cy        1 YQY      0.112800
     13 O23         5.4520    2.3500   -1.5820 oh        1 YQY     -0.579800
     14 C24         6.8080    2.6620    0.4320 c3        1 YQY      0.143800
     15 N25         7.9670    1.9660   -0.0710 n3        1 YQY     -0.923800
     16 C19         5.0090    0.7680    0.2990 cy        1 YQY      0.057000
     17 C8          1.3430   -1.1610    0.2050 ca        1 YQY      0.179600
     18 N7          0.6160   -0.4410   -0.7550 nh        1 YQY     -0.603000
     19 C5         -0.7900   -0.4590   -0.8170 ca        1 YQY      0.139600
     20 C6         -1.4390    0.2730   -1.8620 ca        1 YQY      0.085900
     21 F15        -0.7140    1.0120   -2.7380 f         1 YQY     -0.135900
     22 C1         -2.8360    0.2470   -1.9890 ca        1 YQY     -0.105000
     23 C4         -1.6060   -1.1750    0.0790 ca        1 YQY     -0.151000
     24 C3         -2.9900   -1.1940   -0.0640 ca        1 YQY     -0.077000
     25 C2         -3.6080   -0.4890   -1.0950 ca        1 YQY      0.014900
     26 I14        -5.6170   -0.5250   -1.2930 i         1 YQY     -0.132900
     27 H11         3.5240   -3.2040    2.7880 ha        1 YQY      0.162000
     28 H12         3.8500   -0.7470    2.5340 ha        1 YQY      0.158000
     29 H211        3.4970    3.2240   -0.2560 h1        1 YQY      0.077200
     30 H212        4.4110    3.4630    1.3200 h1        1 YQY      0.077200
     31 H191        5.6730    0.2760    1.0490 h1        1 YQY      0.077200
     32 H192        4.7590    0.0590   -0.5270 h1        1 YQY      0.077200
     33 H23         6.0530    1.7040   -1.9760 ho        1 YQY      0.415000
     34 H241        6.8570    3.7790    0.2600 h1        1 YQY      0.046200
     35 H242        6.7460    2.4900    1.5440 h1        1 YQY      0.046200
     36 H251        8.1480    2.2150   -1.0240 hn        1 YQY      0.356300
     37 H252        8.7720    2.1770    0.4830 hn        1 YQY      0.356300
     38 H7          0.9950    0.4670   -0.9630 hn        1 YQY      0.444800
     39 H4         -1.1470   -1.7390    0.9070 ha        1 YQY      0.148000
     40 H1         -3.2980    0.8200   -2.8080 ha        1 YQY      0.161000
     41 H3         -3.5900   -1.7730    0.6560 ha        1 YQY      0.150000
@<TRIPOS>BOND
     1    1    2 1   
     2    2    3 ar  
     3    2   17 ar  
     4    3    4 1   
     5    3    5 ar  
     6    5    6 ar  
     7    5   27 1   
     8    6    7 ar  
     9    6   28 1   
    10    7    8 1   
    11    7   17 ar  
    12    8    9 2   
    13    8   10 1   
    14   10   11 1   
    15   10   16 1   
    16   11   12 1   
    17   11   29 1   
    18   11   30 1   
    19   12   13 1   
    20   12   14 1   
    21   12   16 1   
    22   13   33 1   
    23   14   15 1   
    24   14   34 1   
    25   14   35 1   
    26   15   36 1   
    27   15   37 1   
    28   16   31 1   
    29   16   32 1   
    30   17   18 1   
    31   18   19 1   
    32   18   38 1   
    33   19   20 ar  
    34   19   23 ar  
    35   20   21 1   
    36   20   22 ar  
    37   22   25 ar  
    38   22   40 1   
    39   23   24 ar  
    40   23   39 1   
    41   24   25 ar  
    42   24   41 1   
    43   25   26 1   
@<TRIPOS>SUBSTRUCTURE
     1 YQY         1 TEMP              0 ****  ****    0 ROOT
