@<TRIPOS>MOLECULE
YQY
   42    44     1     0     0
SMALL
bcc


@<TRIPOS>ATOM
      1 F26         0.5300    0.4260   -0.4160 f         1 YQY     -0.104900
      2 C9          1.8360    0.6680   -0.1650 ca        1 YQY      0.027900
      3 C10         2.2740    0.6450    1.1830 ca        1 YQY      0.168900
      4 F22         1.3750    0.4230    2.1630 f         1 YQY     -0.103900
      5 C11         3.6310    0.8380    1.4990 ca        1 YQY     -0.197000
      6 C12         4.5410    1.0250    0.4740 ca        1 YQY     -0.047000
      7 C13         4.1360    1.0590   -0.8640 ca        1 YQY     -0.234600
      8 C16         5.1640    1.2720   -1.9130 c         1 YQY      0.663700
      9 O18         5.0610    2.1050   -2.8280 o         1 YQY     -0.551100
     10 N17         6.3570    0.5190   -1.8160 n         1 YQY     -0.434800
     11 C21         7.2770    0.4220   -2.9600 cy        1 YQY      0.035000
     12 C20         7.4130   -1.1160   -2.6940 cy        1 YQY      0.067800
     13 O23         7.0080   -1.9830   -3.7200 oh        1 YQY     -0.611800
     14 C24         8.8220   -1.5200   -2.2730 c3        1 YQY      0.120800
     15 N25         8.9580   -2.9910   -2.0690 nz        1 YQY     -0.832600
     16 C19         6.3700   -0.9220   -1.5380 cy        1 YQY      0.035000
     17 C8          2.7630    0.9340   -1.2230 ca        1 YQY      0.220600
     18 N7          2.3830    0.9410   -2.5590 nu        1 YQY     -0.619000
     19 C5          1.1480    1.4310   -3.0420 ca        1 YQY      0.101600
     20 C6          0.6610    0.9360   -4.2900 ca        1 YQY      0.105900
     21 F15         1.3710    0.0210   -4.9940 f         1 YQY     -0.138900
     22 C1         -0.5530    1.4090   -4.8140 ca        1 YQY     -0.112000
     23 C4          0.3850    2.4070   -2.3760 ca        1 YQY     -0.127000
     24 C3         -0.8190    2.8590   -2.9070 ca        1 YQY     -0.083000
     25 C2         -1.2910    2.3630   -4.1220 ca        1 YQY      0.035900
     26 I14        -3.0390    3.0270   -4.8810 i         1 YQY     -0.102900
     27 H11         3.9450    0.8380    2.5530 ha        1 YQY      0.169000
     28 H12         5.6050    1.1730    0.7230 ha        1 YQY      0.150000
     29 H211        6.8310    0.6820   -3.9530 h1        1 YQY      0.089450
     30 H212        8.2080    1.0150   -2.7930 h1        1 YQY      0.089450
     31 H191        6.7550   -1.1390   -0.5130 h1        1 YQY      0.089450
     32 H192        5.4020   -1.4560   -1.7060 h1        1 YQY      0.089450
     33 H23         6.2440   -1.5910   -4.1690 ho        1 YQY      0.463000
     34 H241        9.0900   -0.9930   -1.3120 hx        1 YQY      0.124700
     35 H242        9.5480   -1.2170   -3.0830 hx        1 YQY      0.124700
     36 H251        8.6410   -3.4780   -2.9210 hn        1 YQY      0.468800
     37 H252        8.3690   -3.2960   -1.2880 hn        1 YQY      0.468800
     38 H7          3.1230    1.0710   -3.2230 hn        1 YQY      0.441800
     39 H4          0.7340    2.8110   -1.4120 ha        1 YQY      0.151000
     40 H1         -0.9010    1.0030   -5.7780 ha        1 YQY      0.169000
     41 H3         -1.3930    3.6210   -2.3520 ha        1 YQY      0.161000
     42 H253        9.9330   -3.2360   -1.8770 hn        1 YQY      0.468800
@<TRIPOS>BOND
     1    1    2 1   
     2    2    3 ar  
     3    2   17 ar  
     4    3    4 1   
     5    3    5 ar  
     6    5    6 ar  
     7    5   27 1   
     8    6    7 ar  
     9    6   28 1   
    10    7    8 1   
    11    7   17 ar  
    12    8    9 2   
    13    8   10 1   
    14   10   11 1   
    15   10   16 1   
    16   11   12 1   
    17   11   29 1   
    18   11   30 1   
    19   12   13 1   
    20   12   14 1   
    21   12   16 1   
    22   13   33 1   
    23   14   15 1   
    24   14   34 1   
    25   14   35 1   
    26   15   36 1   
    27   15   37 1   
    28   15   42 1   
    29   16   31 1   
    30   16   32 1   
    31   17   18 1   
    32   18   19 1   
    33   18   38 1   
    34   19   20 ar  
    35   19   23 ar  
    36   20   21 1   
    37   20   22 ar  
    38   22   25 ar  
    39   22   40 1   
    40   23   24 ar  
    41   23   39 1   
    42   24   25 ar  
    43   24   41 1   
    44   25   26 1   
@<TRIPOS>SUBSTRUCTURE
     1 YQY         1 TEMP              0 ****  ****    0 ROOT
