@<TRIPOS>MOLECULE
YR1
   49    59     1     0     0
SMALL
bcc


@<TRIPOS>ATOM
      1 OAA         0.0000    0.0000    0.0000 o         1 YR1     -0.544500
      2 OAB         9.6680   -0.9770    3.9760 o         1 YR1     -0.281000
      3 OAD         5.2210   -4.6450    8.0220 o         1 YR1     -0.702700
      4 OAE         1.8880    0.0000   -1.1680 o         1 YR1     -0.544500
      5 OAF         8.7110    0.0020    0.9820 oh        1 YR1     -0.252000
      6 OAG        -0.1020    0.0000    2.4970 oh        1 YR1     -0.357000
      7 OAH         5.1710   -5.8020    6.2590 o         1 YR1     -0.702700
      8 CAI         9.8990    3.3640    6.3850 c3        1 YR1      0.449000
      9 CAJ        10.7770    2.2970    6.3110 c3        1 YR1     -0.256000
     10 CAK         8.7060    3.3370    5.6830 c2        1 YR1      0.017000
     11 CAL        10.4700    1.2000    5.5350 c2        1 YR1     -0.039000
     12 CAM         8.3870    2.2460    4.9030 c2        1 YR1     -0.089000
     13 CAN         1.9550   -0.0000    3.6890 c2        1 YR1     -0.224000
     14 CAO         5.9420   -1.1490    5.8760 c3        1 YR1     -0.085000
     15 CAP         5.8850   -2.4630    3.8750 c2        1 YR1     -0.230000
     16 CAQ         3.3340    0.0000    3.6860 c2        1 YR1     -0.204000
     17 CAR         5.7030   -2.2840    6.6280 c2        1 YR1     -0.246000
     18 CAS         5.6470   -3.5970    4.6270 c2        1 YR1      0.006000
     19 CAT         3.3500    0.0010    1.2790 c2        1 YR1     -0.040000
     20 CAU         1.2150    0.0000    0.0000 c2        1 YR1      0.393000
     21 CAV         7.6480    0.0020    1.8200 c3        1 YR1      0.009000
     22 CAW         8.9330   -0.0070    3.9870 c2        1 YR1      0.400000
     23 CAX         6.2300    0.0010    1.4050 c2        1 YR1      0.036000
     24 CAY         7.7150   -0.0020    3.1730 c2        1 YR1     -0.235000
     25 CAZ         1.2550   -0.0000    2.4920 c2        1 YR1      0.112000
     26 CBA         9.2690    1.1660    4.8220 c3        1 YR1      0.309000
     27 CBB         6.0320   -1.2380    4.4990 c2        1 YR1      0.059000
     28 CBC         1.9520    0.0010    1.2760 c2        1 YR1     -0.130000
     29 CBD         4.0350   -0.0000    2.4830 DU        1 YR1     -0.429000
     30 CBE         5.5550   -3.5080    6.0040 c2        1 YR1     -0.201000
     31 CBF         6.2930   -0.0000    3.6790 c3        1 YR1     -0.151000
     32 NBG         5.4340    0.0010    2.4890 n         1 YR1      0.817000
     33 NBH         5.3010   -4.7240    6.8090 no        1 YR1      1.565400
     34 HOAF        7.7790   -0.0350    0.8440 DU        1 YR1      0.294000
     35 HOAG        0.8140    0.0840    2.2890 ho        1 YR1      0.327000
     36 HAI         8.9190    3.1260    5.9890 hc        1 YR1     -0.083000
     37 HAJ        10.4570    3.2730    6.6580 DU        1 YR1      0.153000
     38 HAK         9.6680    3.0130    6.0610 ha        1 YR1     -0.395000
     39 HAL         9.7820    2.0340    5.5970 DU        1 YR1      0.225000
     40 HAM         9.2700    1.6460    5.0860 ha        1 YR1     -0.325000
     41 HAN         2.9530    0.4040    3.8090 ha        1 YR1      0.143000
     42 HAO         4.9270   -0.8910    5.5970 hc        1 YR1      0.129000
     43 HAP         5.9400   -1.7330    4.6740 ha        1 YR1     -0.034000
     44 HAQ         4.0910   -0.7310    3.4290 DU        1 YR1      0.243000
     45 HAR         5.1440   -1.5860    6.0160 DU        1 YR1      0.222000
     46 HAS         5.6420   -3.1540    5.6150 ha        1 YR1      0.018000
     47 HAT         3.7570   -0.8500    1.8120 DU        1 YR1      0.200000
     48 HBF         5.6610   -0.0000    2.8000 h1        1 YR1     -0.155000
     49 OAC         5.8410    0.0010    0.2530 o         1 YR1     -0.195000
@<TRIPOS>BOND
     1    1   20 1   
     2    2   22 1   
     3    3   33 2   
     4    4   20 1   
     5    5   21 1   
     6    5   34 1   
     7    6   25 1   
     8    6   35 1   
     9    7   33 2   
    10    8    9 1   
    11    8   10 1   
    12    8   36 1   
    13    8   37 1   
    14    9   11 1   
    15    9   37 1   
    16    9   39 1   
    17   10   12 1   
    18   10   38 1   
    19   11   26 1   
    20   11   39 1   
    21   12   26 1   
    22   12   40 1   
    23   13   16 1   
    24   13   25 1   
    25   13   41 1   
    26   14   17 1   
    27   14   27 1   
    28   14   42 1   
    29   14   45 1   
    30   15   18 1   
    31   15   27 1   
    32   15   43 1   
    33   16   29 1   
    34   16   44 1   
    35   17   30 1   
    36   17   45 1   
    37   18   30 1   
    38   18   46 1   
    39   19   28 1   
    40   19   29 1   
    41   19   47 1   
    42   20   28 1   
    43   21   23 1   
    44   21   24 1   
    45   21   34 1   
    46   22   24 1   
    47   22   26 1   
    48   23   32 1   
    49   23   49 1   
    50   24   31 1   
    51   25   28 1   
    52   26   39 1   
    53   27   31 1   
    54   29   32 1   
    55   29   44 1   
    56   29   47 1   
    57   30   33 1   
    58   31   32 1   
    59   31   48 1   
@<TRIPOS>SUBSTRUCTURE
     1 YR1         1 TEMP              0 ****  ****    0 ROOT
