@<TRIPOS>MOLECULE
YR1
   49    49     1     0     0
SMALL
bcc


@<TRIPOS>ATOM
      1 OAA        -0.1180   -1.8630   -0.7320 o         1 YR1     -0.544000
      2 OAB         8.9210    2.6440    3.5130 o         1 YR1     -0.280000
      3 OAD         6.1280   -4.8150    8.6680 o         1 YR1     -0.465700
      4 OAE         1.7630   -0.9080   -1.4620 o         1 YR1     -0.544000
      5 OAF         7.6320    1.3560    1.3690 oh        1 YR1     -0.217000
      6 OAG        -0.8830   -1.2620    1.8360 oh        1 YR1     -0.268000
      7 OAH         6.9130   -5.0190    6.7230 o         1 YR1     -0.465700
      8 CAI        10.8990    2.6460    6.2310 cx        1 YR1     -0.041000
      9 CAJ        11.2300    1.2950    6.8450 cx        1 YR1     -0.175000
     10 CAK        11.7960    3.3060    5.2830 c2        1 YR1     -0.459000
     11 CAL        10.1910    1.4190    5.8210 cu        1 YR1     -0.109000
     12 CAM        13.0210    3.7350    5.4590 c1        1 YR1      0.176000
     13 CAN         0.7680   -0.3480    3.2290 c1        1 YR1     -0.115000
     14 CAO         5.0410   -0.6610    6.6280 c3        1 YR1      0.052000
     15 CAP         6.1760   -3.3720    2.4580 c1        1 YR1     -0.230500
     16 CAQ         2.1260    0.1220    3.4640 c3        1 YR1     -0.169000
     17 CAR         5.5000   -1.9820    6.9670 c1        1 YR1      0.033000
     18 CAS         6.5330   -4.0130    3.4030 c1        1 YR1     -0.230500
     19 CAT         2.6630   -0.3750    1.0950 c2        1 YR1     -0.098000
     20 CAU         0.9610   -1.2270   -0.5460 c2        1 YR1      0.356000
     21 CAV         6.8150    0.8940    2.3550 c2        1 YR1      0.119000
     22 CAW         8.5210    1.5930    4.0260 c2        1 YR1      0.321000
     23 CAX         5.5240    0.2640    1.8700 c2        1 YR1      0.294000
     24 CAY         7.2280    0.9680    3.6540 c2        1 YR1     -0.152000
     25 CAZ         0.4140   -0.8250    1.9350 c2        1 YR1      0.000000
     26 CBA         9.2950    0.8510    5.0440 c2        1 YR1     -0.159000
     27 CBB         5.8230   -0.0620    5.5870 c1        1 YR1     -0.186000
     28 CBC         1.3100   -0.8140    0.8820 c2        1 YR1     -0.104000
     29 CBD         3.0870    0.0750    2.3110 c2        1 YR1     -0.076000
     30 CBE         5.8820   -3.0810    7.2440 c1        1 YR1     -0.237000
     31 CBF         6.4680    0.4200    4.6980 c1        1 YR1     -0.062000
     32 NBG         4.3910    0.5390    2.5840 n         1 YR1     -0.275000
     33 NBH         6.3320   -4.3830    7.5630 no        1 YR1      0.930400
     34 HOAF        7.2610    1.0820    0.5070 ho        1 YR1      0.260000
     35 HOAG       -1.0350   -1.5920    0.9280 ho        1 YR1      0.264000
     36 HAI        11.3240    3.4730    4.2820 ha        1 YR1      0.224000
     37 HAJ        12.1800    0.7930    6.5800 hc        1 YR1      0.125500
     38 HAK        10.3460    3.3770    6.8610 hc        1 YR1      0.136000
     39 HAL        10.9430    1.1090    7.8970 hc        1 YR1      0.125500
     40 HAM         9.0800   -0.2300    5.1080 ha        1 YR1      0.156000
     41 HAN         2.0200    1.1840    3.8360 hc        1 YR1      0.131000
     42 HAO         5.0690   -0.0120    7.5540 hc        1 YR1      0.141000
     43 HAP         5.8500   -2.8000    1.6210 ha        1 YR1      0.229500
     44 HAQ         2.5260   -0.4940    4.3220 hc        1 YR1      0.131000
     45 HAR         3.9590   -0.7300    6.2930 hc        1 YR1      0.141000
     46 HAS         6.8440   -4.5830    4.2450 ha        1 YR1      0.229500
     47 HAT         3.3260   -0.4280    0.2080 ha        1 YR1      0.192000
     48 HBF         4.4930    1.0550    3.4320 hn        1 YR1      0.234000
     49 OAC         5.5850   -0.4130    0.8230 o         1 YR1     -0.343000
@<TRIPOS>BOND
     1    1   20 1   
     2    2   22 1   
     3    3   33 2   
     4    4   20 1   
     5    5   21 1   
     6    5   34 1   
     7    6   25 1   
     8    6   35 1   
     9    7   33 2   
    10    8    9 1   
    11    8   10 1   
    12    8   11 1   
    13    8   38 1   
    14    9   11 1   
    15    9   37 1   
    16    9   39 1   
    17   10   12 1   
    18   10   36 1   
    19   11   26 1   
    20   13   16 1   
    21   13   25 1   
    22   14   17 1   
    23   14   27 1   
    24   14   42 1   
    25   14   45 1   
    26   15   18 1   
    27   15   43 1   
    28   16   29 1   
    29   16   41 1   
    30   16   44 1   
    31   17   30 1   
    32   18   46 1   
    33   19   28 1   
    34   19   29 1   
    35   19   47 1   
    36   20   28 1   
    37   21   23 1   
    38   21   24 1   
    39   22   24 1   
    40   22   26 1   
    41   23   32 1   
    42   23   49 1   
    43   24   31 1   
    44   25   28 1   
    45   26   40 1   
    46   27   31 1   
    47   29   32 1   
    48   30   33 1   
    49   32   48 1   
@<TRIPOS>SUBSTRUCTURE
     1 YR1         1 TEMP              0 ****  ****    0 ROOT
