@<TRIPOS>MOLECULE
YR1
   49    43     1     0     0
SMALL
bcc


@<TRIPOS>ATOM
      1 OAA        -5.6580   -1.9850   -2.3490 o         1 YR1     -0.557500
      2 OAB         3.3210   -0.7350    0.6940 o         1 YR1     -0.276000
      3 OAC        -0.3300    0.9400   -3.3820 o         1 YR1     -0.317000
      4 OAD         0.1500   -6.0910    1.7490 o         1 YR1     -0.500200
      5 OAE        -5.6790   -0.3350   -3.7770 o         1 YR1     -0.557500
      6 OAF         2.4600    0.8070   -2.5850 oh        1 YR1     -0.210000
      7 OAG        -6.4060    0.8660   -0.5620 oh        1 YR1     -0.298000
      8 OAH        -0.1330   -5.2260    3.7920 o         1 YR1     -0.500200
      9 CAI         5.0640    3.7310    1.0320 c1        1 YR1     -0.112167
     10 CAJ         5.3750    2.4390    1.4340 c1        1 YR1     -0.112167
     11 CAK         3.9160    3.9700    0.2950 c1        1 YR1     -0.112167
     12 CAL         4.5350    1.3870    1.0980 c1        1 YR1     -0.112167
     13 CAM         3.0740    2.9160   -0.0420 c1        1 YR1     -0.091000
     14 CAN        -4.2180    1.5610    0.0730 c1        1 YR1     -0.206000
     15 CAO         0.3340   -2.4200   -0.0540 c1        1 YR1     -0.097000
     16 CAP        -0.2360   -1.4460    2.0610 c1        1 YR1     -0.112167
     17 CAQ        -2.8350    1.4370    0.0170 c1        1 YR1     -0.115000
     18 CAR         0.2700   -3.6830    0.5100 c1        1 YR1     -0.065000
     19 CAS        -0.3000   -2.7090    2.6250 c1        1 YR1     -0.112167
     20 CAT        -3.0480   -0.1250   -1.7970 c1        1 YR1     -0.025000
     21 CAU        -5.3050   -0.8210   -2.6760 c2        1 YR1      0.369000
     22 CAV         1.3390    0.5170   -1.7960 c2        1 YR1      0.042000
     23 CAW         2.7600    0.2340    0.2190 c1        1 YR1      0.337000
     24 CAX         0.0250    0.7940   -2.2300 c2        1 YR1      0.302000
     25 CAY         1.4500    0.0580   -0.5460 c1        1 YR1     -0.250000
     26 CAZ        -5.0150    0.8420   -0.8060 c2        1 YR1      0.155000
     27 CBA         3.3840    1.6260    0.3590 c1        1 YR1     -0.143000
     28 CBB         0.0810   -1.3020    0.7220 c1        1 YR1     -0.024000
     29 CBC        -4.4310   -0.0010   -1.7410 c2        1 YR1     -0.200000
     30 CBD        -2.2510    0.5940   -0.9170 c1        1 YR1     -0.073000
     31 CBE        -0.0470   -3.8280    1.8490 c1        1 YR1     -0.125000
     32 CBF         0.2270   -0.0220    0.1550 c3        1 YR1      0.098000
     33 NBG        -0.8520    0.3260   -1.0740 n         1 YR1     -0.233000
     34 NBH        -0.0250   -5.1020    2.4400 no        1 YR1      0.832400
     35 HOAF        2.5110    0.2250   -3.2520 ho        1 YR1      0.246000
     36 HOAG       -6.6980    1.7050   -0.5880 ho        1 YR1      0.289000
     37 HAI         5.6560    4.4730    1.2690 ha        1 YR1      0.144333
     38 HAJ         6.1850    2.2710    1.9530 ha        1 YR1      0.144333
     39 HAK         3.6940    4.8800    0.0180 ha        1 YR1      0.144333
     40 HAL         4.7540    0.4800    1.3800 ha        1 YR1      0.144333
     41 HAM         2.2670    3.0840   -0.5600 ha        1 YR1      0.143000
     42 HAN        -4.6300    2.1550    0.7320 ha        1 YR1      0.131000
     43 HAO         0.5580   -2.3180   -0.9980 ha        1 YR1      0.161000
     44 HAP        -0.4140   -0.6600    2.6070 ha        1 YR1      0.144333
     45 HAQ        -2.2730    1.9430    0.6360 ha        1 YR1      0.107000
     46 HAR         0.4640   -4.4730   -0.0350 ha        1 YR1      0.170000
     47 HAS        -0.5250   -2.8120    3.5720 ha        1 YR1      0.144333
     48 HAT        -2.6370   -0.7190   -2.4550 ha        1 YR1      0.171000
     49 HBF         0.0920    0.5550    0.9330 h1        1 YR1      0.120000
@<TRIPOS>BOND
     1    1   21 1   
     2    2   23 1   
     3    3   24 1   
     4    4   34 2   
     5    5   21 1   
     6    6   22 1   
     7    6   35 1   
     8    7   26 1   
     9    7   36 1   
    10    8   34 2   
    11    9   11 1   
    12    9   37 1   
    13   10   12 1   
    14   10   38 1   
    15   11   39 1   
    16   12   40 1   
    17   13   27 1   
    18   13   41 1   
    19   14   26 1   
    20   14   42 1   
    21   15   28 1   
    22   15   43 1   
    23   16   19 1   
    24   16   44 1   
    25   17   30 1   
    26   17   45 1   
    27   18   31 1   
    28   18   46 1   
    29   19   47 1   
    30   20   29 1   
    31   20   48 1   
    32   21   29 1   
    33   22   24 1   
    34   22   25 1   
    35   23   27 1   
    36   24   33 1   
    37   25   32 1   
    38   26   29 1   
    39   28   32 1   
    40   30   33 1   
    41   31   34 1   
    42   32   33 1   
    43   32   49 1   
@<TRIPOS>SUBSTRUCTURE
     1 YR1         1 TEMP              0 ****  ****    0 ROOT
