@<TRIPOS>MOLECULE
YR1
   49    52     1     0     0
SMALL
bcc


@<TRIPOS>ATOM
      1 OAA         6.1920    0.8570    0.9920 o         1 YR1     -0.822800
      2 OAB        -3.7360   -0.9350   -1.9310 o         1 YR1     -0.511100
      3 OAD        -2.1320    5.5700   -0.3590 o         1 YR1     -0.219000
      4 OAE         5.0320    1.3290   -0.8540 o         1 YR1     -0.822800
      5 OAF        -1.4750   -3.2740   -2.6350 oh        1 YR1     -0.456100
      6 OAG         5.0510   -0.6740    2.9010 oh        1 YR1     -0.543100
      7 OAH        -0.6140    5.5900   -1.8100 o         1 YR1     -0.219000
      8 CAI        -4.9110   -1.5650    2.9050 ca        1 YR1     -0.108000
      9 CAJ        -5.4820   -0.7630    1.9160 ca        1 YR1     -0.144500
     10 CAK        -3.7300   -2.2590    2.6430 ca        1 YR1     -0.144500
     11 CAL        -4.8730   -0.6540    0.6680 ca        1 YR1     -0.086000
     12 CAM        -3.1120   -2.1470    1.3990 ca        1 YR1     -0.086000
     13 CAN         2.9440   -1.5710    2.3980 ca        1 YR1     -0.205000
     14 CAO        -1.7260    1.4860    0.2590 ca        1 YR1     -0.121000
     15 CAP         0.1320    1.5170   -1.2900 ca        1 YR1     -0.121000
     16 CAQ         1.8580   -1.7400    1.5560 ca        1 YR1     -0.111000
     17 CAR        -1.9170    2.8500    0.0840 ca        1 YR1     -0.066500
     18 CAS        -0.0400    2.8890   -1.4760 ca        1 YR1     -0.066500
     19 CAT         2.9380   -0.3300   -0.1060 ca        1 YR1     -0.033000
     20 CAU         5.1670    0.7430    0.2530 c         1 YR1      0.920200
     21 CAV        -0.9520   -2.3700   -1.7760 ce        1 YR1      0.069900
     22 CAW        -3.0570   -1.2180   -0.9370 c         1 YR1      0.614900
     23 CAX         0.5380   -2.3110   -1.4700 c         1 YR1      0.670700
     24 CAY        -1.6160   -1.4630   -1.0150 cf        1 YR1     -0.271400
     25 CAZ         4.0380   -0.7750    1.9960 ca        1 YR1      0.200100
     26 CBA        -3.6780   -1.3390    0.4060 ca        1 YR1     -0.168600
     27 CBB        -0.7100    0.8060   -0.4310 ca        1 YR1     -0.032300
     28 CBC         4.0320   -0.1450    0.7350 ca        1 YR1     -0.218600
     29 CBD         1.8380   -1.1160    0.2910 ca        1 YR1     -0.072400
     30 CBE        -1.0730    3.5510   -0.7950 ca        1 YR1     -0.177200
     31 CBF        -0.5820   -0.6770   -0.1920 c3        1 YR1      0.196200
     32 NBG         0.7210   -1.2580   -0.5740 n         1 YR1     -0.347000
     33 NBH        -1.2840    5.0050   -1.0010 no        1 YR1      0.314200
     34 HOAF       -0.7230   -3.7720   -3.0100 ho        1 YR1      0.448000
     35 HOAG        5.7670   -0.1140    2.5250 ho        1 YR1      0.490000
     36 HAI        -5.3930   -1.6520    3.8900 ha        1 YR1      0.131000
     37 HAJ        -6.4160   -0.2190    2.1190 ha        1 YR1      0.135500
     38 HAK        -3.2810   -2.8960    3.4200 ha        1 YR1      0.135500
     39 HAL        -5.3230   -0.0350   -0.1250 ha        1 YR1      0.148500
     40 HAM        -2.1820   -2.7000    1.1930 ha        1 YR1      0.148500
     41 HAN         2.9700   -2.0540    3.3840 ha        1 YR1      0.132000
     42 HAO        -2.3880    0.9300    0.9430 ha        1 YR1      0.161500
     43 HAP         0.9590    1.0140   -1.8200 ha        1 YR1      0.161500
     44 HAQ         1.0140   -2.3640    1.8840 ha        1 YR1      0.108000
     45 HAR        -2.7170    3.3780    0.6280 ha        1 YR1      0.169500
     46 HAS         0.6370    3.4460   -2.1470 ha        1 YR1      0.169500
     47 HAT         2.9670    0.1640   -1.0940 ha        1 YR1      0.165000
     48 HBF        -0.7580   -0.8710    0.9110 h1        1 YR1      0.081700
     49 OAC         1.3680   -3.0730   -1.9820 o         1 YR1     -0.596500
@<TRIPOS>BOND
     1    1   20 1   
     2    2   22 2   
     3    3   33 1   
     4    4   20 1   
     5    5   21 1   
     6    5   34 1   
     7    6   25 1   
     8    6   35 1   
     9    7   33 1   
    10    8    9 ar  
    11    8   10 ar  
    12    8   36 1   
    13    9   11 ar  
    14    9   37 1   
    15   10   12 ar  
    16   10   38 1   
    17   11   26 ar  
    18   11   39 1   
    19   12   26 ar  
    20   12   40 1   
    21   13   16 ar  
    22   13   25 ar  
    23   13   41 1   
    24   14   17 ar  
    25   14   27 ar  
    26   14   42 1   
    27   15   18 ar  
    28   15   27 ar  
    29   15   43 1   
    30   16   29 ar  
    31   16   44 1   
    32   17   30 ar  
    33   17   45 1   
    34   18   30 ar  
    35   18   46 1   
    36   19   28 ar  
    37   19   29 ar  
    38   19   47 1   
    39   20   28 1   
    40   21   23 1   
    41   21   24 2   
    42   22   24 1   
    43   22   26 1   
    44   23   32 1   
    45   23   49 2   
    46   24   31 1   
    47   25   28 ar  
    48   27   31 1   
    49   29   32 1   
    50   30   33 1   
    51   31   32 1   
    52   31   48 1   
@<TRIPOS>SUBSTRUCTURE
     1 YR1         1 TEMP              0 ****  ****    0 ROOT
