@<TRIPOS>MOLECULE
YR3
   75    76     1     0     0
SMALL
bcc


@<TRIPOS>ATOM
      1 C1         -3.0890   -0.4070    0.4130 ca        1 YR3     -0.203000
      2 C2         -4.2240    0.2330   -0.0930 ca        1 YR3      0.119100
      3 C3         -4.1880    1.6090   -0.4100 ca        1 YR3     -0.099300
      4 C4         -2.9970    2.3090   -0.2170 ca        1 YR3     -0.102000
      5 C5         -1.8440    1.6800    0.2720 ca        1 YR3     -0.096300
      6 C6         -1.9150    0.3200    0.5960 ca        1 YR3     -0.098000
      7 C7         -0.5750    2.4580    0.5280 c3        1 YR3      0.054600
      8 C8          0.6610    1.6180    0.3080 ca        1 YR3     -0.095300
      9 C9         -0.4440    3.6950   -0.3870 c3        1 YR3     -0.069400
     10 C10        -0.6690    3.0040    1.9690 c3        1 YR3     -0.069400
     11 C11        -0.6810    1.9470    3.0410 c3        1 YR3     -0.098600
     12 C12        -0.4720    3.3900   -1.8610 c3        1 YR3     -0.098600
     13 C13         0.6850    0.6600   -0.7190 ca        1 YR3     -0.100000
     14 C14         1.8190   -0.1040   -0.9850 ca        1 YR3     -0.099300
     15 C15         2.9750    0.1070   -0.1990 ca        1 YR3      0.120100
     16 O33         5.8750   -2.8900    0.3360 oh        1 YR3     -0.582800
     17 C22         6.2030   -1.6120   -0.1780 c3        1 YR3      0.142100
     18 C23         7.6610   -1.2220    0.1440 c3        1 YR3     -0.086000
     19 C26         8.5620   -2.3930   -0.2290 c3        1 YR3     -0.088767
     20 C25         8.0680   -0.0120   -0.6840 c3        1 YR3     -0.088767
     21 C24         7.8330   -0.9100    1.6220 c3        1 YR3     -0.088767
     22 C21         5.2020   -0.5630    0.3240 c3        1 YR3      0.097400
     23 O20         4.0590   -0.6850   -0.5290 os        1 YR3     -0.320900
     24 C18         1.8310   -1.1120   -2.0680 c3        1 YR3     -0.043800
     25 C16         2.9750    1.0680    0.8150 ca        1 YR3     -0.206000
     26 C17         1.8240    1.8170    1.0570 ca        1 YR3     -0.100000
     27 C19        -5.3990    2.2810   -0.9310 c3        1 YR3     -0.042800
     28 O27        -5.4390   -0.3880   -0.3200 os        1 YR3     -0.320900
     29 C28        -5.4880   -1.7830   -0.0150 c3        1 YR3      0.095400
     30 C29        -6.9200   -2.2320   -0.3110 c3        1 YR3      0.137100
     31 O32        -7.2470   -2.1650   -1.6840 oh        1 YR3     -0.580800
     32 C30        -7.1170   -3.6710    0.1870 c3        1 YR3      0.096400
     33 O31        -6.9780   -3.6530    1.5970 oh        1 YR3     -0.599800
     34 H1         -3.1070   -1.4740    0.6760 ha        1 YR3      0.136000
     35 H4         -2.9820    3.3840   -0.4580 ha        1 YR3      0.137000
     36 H6         -1.0280   -0.1890    1.0080 ha        1 YR3      0.143000
     37 H9         -1.2590    4.4230   -0.1350 hc        1 YR3      0.040450
     38 H9A         0.5300    4.1970   -0.1360 hc        1 YR3      0.040450
     39 H10         0.1820    3.7140    2.1470 hc        1 YR3      0.040450
     40 H10A       -1.6150    3.6060    2.0400 hc        1 YR3      0.040450
     41 H11        -1.5810    1.2920    2.9400 hc        1 YR3      0.038200
     42 H11A        0.2290    1.3010    2.9790 hc        1 YR3      0.038200
     43 H11B       -0.7070    2.4290    4.0490 hc        1 YR3      0.038200
     44 H12        -0.4270    4.3410   -2.4460 hc        1 YR3      0.038200
     45 H12A        0.4000    2.7560   -2.1510 hc        1 YR3      0.038200
     46 H12B       -1.4070    2.8470   -2.1410 hc        1 YR3      0.038200
     47 H13        -0.2170    0.5090   -1.3360 ha        1 YR3      0.145000
     48 H22         6.0870   -1.7370   -1.2940 h1        1 YR3      0.097700
     49 H26         8.4820   -2.6060   -1.3210 hc        1 YR3      0.038811
     50 H26A        9.6250   -2.1550    0.0160 hc        1 YR3      0.038811
     51 H26B        8.2580   -3.3090    0.3340 hc        1 YR3      0.038811
     52 H25         7.5400    0.9090   -0.3410 hc        1 YR3      0.038811
     53 H25A        9.1670    0.1620   -0.5850 hc        1 YR3      0.038811
     54 H25B        7.8310   -0.1800   -1.7620 hc        1 YR3      0.038811
     55 H24         7.5600   -1.7970    2.2440 hc        1 YR3      0.038811
     56 H24A        8.8970   -0.6470    1.8350 hc        1 YR3      0.038811
     57 H24B        7.1900   -0.0490    1.9240 hc        1 YR3      0.038811
     58 H21         4.9090   -0.7690    1.3870 h1        1 YR3      0.044700
     59 H21A        5.6180    0.4740    0.2360 h1        1 YR3      0.044700
     60 H18         2.5320   -0.7910   -2.8790 hc        1 YR3      0.047033
     61 H18A        2.1940   -2.0950   -1.6730 hc        1 YR3      0.047033
     62 H18B        0.8130   -1.2520   -2.5060 hc        1 YR3      0.047033
     63 H16         3.8700    1.2490    1.4250 ha        1 YR3      0.133000
     64 H17         1.8530    2.5760    1.8540 ha        1 YR3      0.134000
     65 H19        -6.2110    2.2550   -0.1610 hc        1 YR3      0.047033
     66 H19A       -5.1930    3.3460   -1.2000 hc        1 YR3      0.047033
     67 H19B       -5.7750    1.7450   -1.8390 hc        1 YR3      0.047033
     68 H28        -4.7530   -2.3360   -0.6560 h1        1 YR3      0.053200
     69 H28A       -5.2600   -1.9530    1.0710 h1        1 YR3      0.053200
     70 H29        -7.6540   -1.5400    0.1910 h1        1 YR3      0.105700
     71 HO32       -6.5120   -2.5470   -2.1790 ho        1 YR3      0.399000
     72 H30        -8.1390   -4.0270   -0.1110 h1        1 YR3      0.033200
     73 H30A       -6.3460   -4.3510   -0.2630 h1        1 YR3      0.033200
     74 HO31       -7.2880   -4.5090    1.9160 ho        1 YR3      0.407000
     75 HO33        5.9640   -2.8510    1.2960 ho        1 YR3      0.395000
@<TRIPOS>BOND
     1    1    2 ar  
     2    1    6 ar  
     3    1   34 1   
     4    2    3 ar  
     5    2   28 1   
     6    3    4 ar  
     7    3   27 1   
     8    4    5 ar  
     9    4   35 1   
    10    5    6 ar  
    11    5    7 1   
    12    6   36 1   
    13    7    8 1   
    14    7    9 1   
    15    7   10 1   
    16    8   13 ar  
    17    8   26 ar  
    18    9   12 1   
    19    9   37 1   
    20    9   38 1   
    21   10   11 1   
    22   10   39 1   
    23   10   40 1   
    24   11   41 1   
    25   11   42 1   
    26   11   43 1   
    27   12   44 1   
    28   12   45 1   
    29   12   46 1   
    30   13   14 ar  
    31   13   47 1   
    32   14   15 ar  
    33   14   24 1   
    34   15   23 1   
    35   15   25 ar  
    36   16   17 1   
    37   16   75 1   
    38   17   18 1   
    39   17   22 1   
    40   17   48 1   
    41   18   19 1   
    42   18   20 1   
    43   18   21 1   
    44   19   49 1   
    45   19   50 1   
    46   19   51 1   
    47   20   52 1   
    48   20   53 1   
    49   20   54 1   
    50   21   55 1   
    51   21   56 1   
    52   21   57 1   
    53   22   23 1   
    54   22   58 1   
    55   22   59 1   
    56   24   60 1   
    57   24   61 1   
    58   24   62 1   
    59   25   26 ar  
    60   25   63 1   
    61   26   64 1   
    62   27   65 1   
    63   27   66 1   
    64   27   67 1   
    65   28   29 1   
    66   29   30 1   
    67   29   68 1   
    68   29   69 1   
    69   30   31 1   
    70   30   32 1   
    71   30   70 1   
    72   31   71 1   
    73   32   33 1   
    74   32   72 1   
    75   32   73 1   
    76   33   74 1   
@<TRIPOS>SUBSTRUCTURE
     1 YR3         1 TEMP              0 ****  ****    0 ROOT
