@<TRIPOS>MOLECULE
YR3
   75    76     1     0     0
SMALL
bcc


@<TRIPOS>ATOM
      1 C1         -0.0790    0.2840   -0.3680 ca        1 YR3     -0.200000
      2 C2          1.2290   -0.2100   -0.3920 ca        1 YR3      0.120100
      3 C3          1.9030   -0.5130    0.8120 ca        1 YR3     -0.102300
      4 C4          1.2340   -0.3160    2.0200 ca        1 YR3     -0.101000
      5 C5         -0.0830    0.1600    2.0640 ca        1 YR3     -0.095300
      6 C6         -0.7200    0.4690    0.8550 ca        1 YR3     -0.098000
      7 C7         -0.7810    0.4190    3.3780 c3        1 YR3      0.054600
      8 C8         -2.2700    0.1800    3.2870 ca        1 YR3     -0.094300
      9 C9         -0.2530   -0.4800    4.5160 c3        1 YR3     -0.069400
     10 C10        -0.4400    1.8670    3.7880 c3        1 YR3     -0.069400
     11 C11        -0.9830    2.9250    2.8650 c3        1 YR3     -0.098600
     12 C12        -0.3670   -1.9580    4.2530 c3        1 YR3     -0.098600
     13 C13        -2.7670   -0.8580    2.4830 ca        1 YR3     -0.100000
     14 C14        -4.1290   -1.1420    2.4070 ca        1 YR3     -0.101300
     15 C15        -5.0240   -0.3620    3.1750 ca        1 YR3      0.122100
     16 O33        -8.7990   -0.2410    1.8260 oh        1 YR3     -0.599800
     17 C22        -8.6700   -0.3360    3.2380 c3        1 YR3      0.150100
     18 C23        -9.8280    0.4640    3.8680 c3        1 YR3     -0.047000
     19 C26       -11.1390   -0.1350    3.3730 c3        1 YR3     -0.088433
     20 C25        -9.7690    0.3450    5.3830 c3        1 YR3     -0.088433
     21 C24        -9.7600    1.9270    3.4600 c3        1 YR3     -0.088433
     22 C21        -7.2940    0.1850    3.6730 c3        1 YR3      0.089400
     23 O20        -6.3560   -0.7110    3.0600 os        1 YR3     -0.344900
     24 C18        -4.6380   -2.2400    1.5560 c3        1 YR3     -0.041800
     25 C16        -4.5460    0.6630    3.9950 ca        1 YR3     -0.200000
     26 C17        -3.1770    0.9230    4.0490 ca        1 YR3     -0.100000
     27 C19         3.2920   -1.0220    0.7780 c3        1 YR3     -0.040800
     28 O27         1.9640   -0.4240   -1.5440 os        1 YR3     -0.334900
     29 C28         1.2590   -0.2190   -2.7730 c3        1 YR3      0.126400
     30 C29         2.2320   -0.6440   -3.8790 c3        1 YR3      0.143100
     31 O32         1.4400   -0.8150   -5.0450 oh        1 YR3     -0.603800
     32 C30         3.3060    0.4250   -4.0940 c3        1 YR3      0.092400
     33 O31         4.1440   -0.0580   -5.1320 oh        1 YR3     -0.613800
     34 H1         -0.6100    0.5320   -1.2970 ha        1 YR3      0.140000
     35 H4          1.7710   -0.5460    2.9540 ha        1 YR3      0.137000
     36 H6         -1.7470    0.8690    0.8660 ha        1 YR3      0.144000
     37 H9         -0.8370   -0.2280    5.4430 hc        1 YR3      0.040700
     38 H9A         0.8170   -0.2150    4.7240 hc        1 YR3      0.040700
     39 H10         0.6800    1.9530    3.8210 hc        1 YR3      0.040700
     40 H10A       -0.8100    2.0490    4.8310 hc        1 YR3      0.040700
     41 H11        -0.7280    3.9400    3.2570 hc        1 YR3      0.038533
     42 H11A       -0.5440    2.8220    1.8420 hc        1 YR3      0.038533
     43 H11B       -2.0940    2.8490    2.7750 hc        1 YR3      0.038533
     44 H12        -1.4380   -2.2610    4.1550 hc        1 YR3      0.038533
     45 H12A        0.1630   -2.2410    3.3110 hc        1 YR3      0.038533
     46 H12B        0.0850   -2.5300    5.0990 hc        1 YR3      0.038533
     47 H13        -2.0620   -1.4710    1.8960 ha        1 YR3      0.146000
     48 H22        -8.7610   -1.4180    3.5430 h1        1 YR3      0.046700
     49 H26       -11.2230   -1.2000    3.6930 hc        1 YR3      0.039256
     50 H26A      -12.0040    0.4340    3.7890 hc        1 YR3      0.039256
     51 H26B      -11.1790   -0.0910    2.2570 hc        1 YR3      0.039256
     52 H25       -10.7030    0.7640    5.8300 hc        1 YR3      0.039256
     53 H25A       -9.6780   -0.7250    5.6890 hc        1 YR3      0.039256
     54 H25B       -8.9000    0.9120    5.7960 hc        1 YR3      0.039256
     55 H24        -9.6880    2.0060    2.3480 hc        1 YR3      0.039256
     56 H24A      -10.6770    2.4630    3.8030 hc        1 YR3      0.039256
     57 H24B       -8.8700    2.4230    3.9140 hc        1 YR3      0.039256
     58 H21        -7.1230    1.2270    3.3000 h1        1 YR3      0.053700
     59 H21A       -7.1790    0.1390    4.7850 h1        1 YR3      0.053700
     60 H18        -3.8530   -2.6070    0.8520 hc        1 YR3      0.045367
     61 H18A       -4.9730   -3.0950    2.1970 hc        1 YR3      0.045367
     62 H18B       -5.5210   -1.8910    0.9640 hc        1 YR3      0.045367
     63 H16        -5.2330    1.2680    4.6030 ha        1 YR3      0.136000
     64 H17        -2.8250    1.7280    4.7110 ha        1 YR3      0.135000
     65 H19         3.9710   -0.2520    0.3340 hc        1 YR3      0.045367
     66 H19A        3.6590   -1.2770    1.8020 hc        1 YR3      0.045367
     67 H19B        3.3480   -1.9370    0.1360 hc        1 YR3      0.045367
     68 H28         0.9800    0.8610   -2.8760 h1        1 YR3      0.056200
     69 H28A        0.3400   -0.8590   -2.8090 h1        1 YR3      0.056200
     70 H29         2.7240   -1.6200   -3.6090 h1        1 YR3      0.065700
     71 HO32        2.0590   -0.9730   -5.7700 ho        1 YR3      0.425000
     72 H30         3.8890    0.5680   -3.1470 h1        1 YR3      0.041700
     73 H30A        2.8370    1.3970   -4.4030 h1        1 YR3      0.041700
     74 HO31        4.8380    0.5980   -5.2590 ho        1 YR3      0.409000
     75 HO33       -8.0440   -0.7120    1.4500 ho        1 YR3      0.415000
@<TRIPOS>BOND
     1    1    2 ar  
     2    1    6 ar  
     3    1   34 1   
     4    2    3 ar  
     5    2   28 1   
     6    3    4 ar  
     7    3   27 1   
     8    4    5 ar  
     9    4   35 1   
    10    5    6 ar  
    11    5    7 1   
    12    6   36 1   
    13    7    8 1   
    14    7    9 1   
    15    7   10 1   
    16    8   13 ar  
    17    8   26 ar  
    18    9   12 1   
    19    9   37 1   
    20    9   38 1   
    21   10   11 1   
    22   10   39 1   
    23   10   40 1   
    24   11   41 1   
    25   11   42 1   
    26   11   43 1   
    27   12   44 1   
    28   12   45 1   
    29   12   46 1   
    30   13   14 ar  
    31   13   47 1   
    32   14   15 ar  
    33   14   24 1   
    34   15   23 1   
    35   15   25 ar  
    36   16   17 1   
    37   16   75 1   
    38   17   18 1   
    39   17   22 1   
    40   17   48 1   
    41   18   19 1   
    42   18   20 1   
    43   18   21 1   
    44   19   49 1   
    45   19   50 1   
    46   19   51 1   
    47   20   52 1   
    48   20   53 1   
    49   20   54 1   
    50   21   55 1   
    51   21   56 1   
    52   21   57 1   
    53   22   23 1   
    54   22   58 1   
    55   22   59 1   
    56   24   60 1   
    57   24   61 1   
    58   24   62 1   
    59   25   26 ar  
    60   25   63 1   
    61   26   64 1   
    62   27   65 1   
    63   27   66 1   
    64   27   67 1   
    65   28   29 1   
    66   29   30 1   
    67   29   68 1   
    68   29   69 1   
    69   30   31 1   
    70   30   32 1   
    71   30   70 1   
    72   31   71 1   
    73   32   33 1   
    74   32   72 1   
    75   32   73 1   
    76   33   74 1   
@<TRIPOS>SUBSTRUCTURE
     1 YR3         1 TEMP              0 ****  ****    0 ROOT
