@<TRIPOS>MOLECULE
YR4
   78    79     1     0     0
SMALL
bcc


@<TRIPOS>ATOM
      1 C1          0.2540    0.5100   -0.0850 ca        1 YR4     -0.101000
      2 C2          1.6450    0.4880   -0.0410 ca        1 YR4     -0.193000
      3 C3          2.2940    0.1870    1.1610 ca        1 YR4      0.109100
      4 C4          1.5480   -0.0790    2.3290 ca        1 YR4     -0.097300
      5 C5          0.1540   -0.0440    2.2550 ca        1 YR4     -0.105000
      6 C6         -0.5130    0.2310    1.0550 ca        1 YR4     -0.085300
      7 C7         -2.0200    0.3160    0.9950 c3        1 YR4      0.053600
      8 C8         -2.5610   -0.1370   -0.3410 ca        1 YR4     -0.098300
      9 C9         -1.9440   -1.1860   -1.0320 ca        1 YR4     -0.099000
     10 C10        -3.7280    0.4210   -0.8810 ca        1 YR4     -0.100000
     11 C11        -4.2630   -0.0260   -2.0890 ca        1 YR4     -0.102300
     12 C12        -3.6080   -1.0740   -2.7740 ca        1 YR4      0.126100
     13 C13        -2.4520   -1.6540   -2.2420 ca        1 YR4     -0.203000
     14 C14        -2.7050   -0.5530    2.0720 c3        1 YR4     -0.069400
     15 C15        -2.3550   -2.0160    2.0140 c3        1 YR4     -0.098600
     16 C16        -2.3980    1.7760    1.3230 c3        1 YR4     -0.069400
     17 C17        -1.9340    2.7870    0.3090 c3        1 YR4     -0.098600
     18 C18         2.2330   -0.3660    3.6090 c3        1 YR4     -0.043800
     19 C19        -5.4910    0.5770   -2.6540 c3        1 YR4     -0.041800
     20 O20        -4.1850   -1.4430   -3.9740 os        1 YR4     -0.330900
     21 O21         3.6700    0.1890    1.3180 os        1 YR4     -0.343900
     22 C22        -3.6300   -2.6070   -4.6010 c3        1 YR4      0.130400
     23 C23        -4.5540   -2.9040   -5.7900 c3        1 YR4      0.144100
     24 C24        -3.7880   -3.3880   -7.0400 c3        1 YR4     -0.082000
     25 O25        -5.4510   -3.9040   -5.3190 oh        1 YR4     -0.597800
     26 C26        -2.8810   -4.5560   -6.6910 c3        1 YR4     -0.090433
     27 C27        -4.7980   -3.8410   -8.0900 c3        1 YR4     -0.090433
     28 C28        -2.9720   -2.2430   -7.6180 c3        1 YR4     -0.090433
     29 C29         4.4540   -0.1190    0.1510 c3        1 YR4      0.099100
     30 C30         5.6150   -0.9840    0.6240 c3        1 YR4     -0.086400
     31 C31         4.9670    1.2010   -0.4380 c3        1 YR4      0.113400
     32 C32         5.1290   -2.3410    1.1010 c3        1 YR4      0.131400
     33 O33         5.6910    1.9620    0.5040 oh        1 YR4     -0.593800
     34 O34         6.2800   -3.0920    1.4530 oh        1 YR4     -0.600800
     35 H1         -0.2510    0.7590   -1.0330 ha        1 YR4      0.145000
     36 H2          2.2200    0.7190   -0.9480 ha        1 YR4      0.136000
     37 H5         -0.4180   -0.2420    3.1750 ha        1 YR4      0.139000
     38 H9         -1.0410   -1.6590   -0.6130 ha        1 YR4      0.140000
     39 H10        -4.2530    1.2300   -0.3490 ha        1 YR4      0.137000
     40 H13        -1.9400   -2.4760   -2.7600 ha        1 YR4      0.136000
     41 H14        -3.8150   -0.4380    1.9400 hc        1 YR4      0.041700
     42 H14A       -2.4540   -0.1440    3.0860 hc        1 YR4      0.041700
     43 H15        -2.8560   -2.5600    2.8520 hc        1 YR4      0.038533
     44 H15A       -2.6950   -2.4660    1.0490 hc        1 YR4      0.038533
     45 H15B       -1.2520   -2.1700    2.1010 hc        1 YR4      0.038533
     46 H16        -3.5110    1.8460    1.4460 hc        1 YR4      0.041700
     47 H16A       -1.9440    2.0250    2.3210 hc        1 YR4      0.041700
     48 H17        -2.3300    2.5480   -0.7080 hc        1 YR4      0.038533
     49 H17A       -2.2920    3.8060    0.5980 hc        1 YR4      0.038533
     50 H17B       -0.8180    2.8080    0.2520 hc        1 YR4      0.038533
     51 H18         3.1140   -1.0360    3.4360 hc        1 YR4      0.046367
     52 H18A        1.5430   -0.8570    4.3370 hc        1 YR4      0.046367
     53 H18B        2.6110    0.5860    4.0610 hc        1 YR4      0.046367
     54 H19        -5.2480    1.1190   -3.6020 hc        1 YR4      0.046033
     55 H19A       -5.9590    1.2950   -1.9390 hc        1 YR4      0.046033
     56 H19B       -6.2320   -0.2250   -2.9000 hc        1 YR4      0.046033
     57 H22        -2.5880   -2.3770   -4.9390 h1        1 YR4      0.056200
     58 H22A       -3.6280   -3.4700   -3.8840 h1        1 YR4      0.056200
     59 H23        -5.1300   -1.9720   -6.0570 h1        1 YR4      0.056700
     60 HO25       -6.1720   -3.9570   -5.9560 ho        1 YR4      0.403000
     61 H26        -2.4620   -5.0100   -7.6200 hc        1 YR4      0.039033
     62 H26A       -2.0340   -4.2210   -6.0470 hc        1 YR4      0.039033
     63 H26B       -3.4640   -5.3340   -6.1380 hc        1 YR4      0.039033
     64 H27        -5.3060   -4.7800   -7.7640 hc        1 YR4      0.039033
     65 H27A       -5.5680   -3.0500   -8.2560 hc        1 YR4      0.039033
     66 H27B       -4.2790   -4.0410   -9.0580 hc        1 YR4      0.039033
     67 H28        -3.6370   -1.3840   -7.8780 hc        1 YR4      0.039033
     68 H28A       -2.4480   -2.5810   -8.5450 hc        1 YR4      0.039033
     69 H28B       -2.2030   -1.8890   -6.8920 hc        1 YR4      0.039033
     70 H29         3.8430   -0.6700   -0.6130 h1        1 YR4      0.061700
     71 H30         6.1550   -0.4610    1.4560 hc        1 YR4      0.074200
     72 H30A        6.3370   -1.1150   -0.2220 hc        1 YR4      0.074200
     73 H31         5.6920    0.9980   -1.2700 h1        1 YR4      0.051200
     74 H31A        4.1010    1.8030   -0.8250 h1        1 YR4      0.051200
     75 H32         4.5680   -2.8720    0.2850 h1        1 YR4      0.025700
     76 H32A        4.4520   -2.2200    1.9890 h1        1 YR4      0.025700
     77 HO33        5.1450    2.0240    1.3000 ho        1 YR4      0.414000
     78 HO34        5.9620   -3.9140    1.8420 ho        1 YR4      0.400000
@<TRIPOS>BOND
     1    1    2 ar  
     2    1    6 ar  
     3    1   35 1   
     4    2    3 ar  
     5    2   36 1   
     6    3    4 ar  
     7    3   21 1   
     8    4    5 ar  
     9    4   18 1   
    10    5    6 ar  
    11    5   37 1   
    12    6    7 1   
    13    7    8 1   
    14    7   14 1   
    15    7   16 1   
    16    8    9 ar  
    17    8   10 ar  
    18    9   13 ar  
    19    9   38 1   
    20   10   11 ar  
    21   10   39 1   
    22   11   12 ar  
    23   11   19 1   
    24   12   13 ar  
    25   12   20 1   
    26   13   40 1   
    27   14   15 1   
    28   14   41 1   
    29   14   42 1   
    30   15   43 1   
    31   15   44 1   
    32   15   45 1   
    33   16   17 1   
    34   16   46 1   
    35   16   47 1   
    36   17   48 1   
    37   17   49 1   
    38   17   50 1   
    39   18   51 1   
    40   18   52 1   
    41   18   53 1   
    42   19   54 1   
    43   19   55 1   
    44   19   56 1   
    45   20   22 1   
    46   21   29 1   
    47   22   23 1   
    48   22   57 1   
    49   22   58 1   
    50   23   24 1   
    51   23   25 1   
    52   23   59 1   
    53   24   26 1   
    54   24   27 1   
    55   24   28 1   
    56   25   60 1   
    57   26   61 1   
    58   26   62 1   
    59   26   63 1   
    60   27   64 1   
    61   27   65 1   
    62   27   66 1   
    63   28   67 1   
    64   28   68 1   
    65   28   69 1   
    66   29   30 1   
    67   29   31 1   
    68   29   70 1   
    69   30   32 1   
    70   30   71 1   
    71   30   72 1   
    72   31   33 1   
    73   31   73 1   
    74   31   74 1   
    75   32   34 1   
    76   32   75 1   
    77   32   76 1   
    78   33   77 1   
    79   34   78 1   
@<TRIPOS>SUBSTRUCTURE
     1 YR4         1 TEMP              0 ****  ****    0 ROOT
