@<TRIPOS>MOLECULE
YR4
   78    79     1     0     0
SMALL
bcc


@<TRIPOS>ATOM
      1 C1         -1.7090   -0.6830   -0.8160 ca        1 YR4     -0.101000
      2 C2         -2.7680    0.2050   -0.9820 ca        1 YR4     -0.193000
      3 C3         -3.9460    0.0220   -0.2500 ca        1 YR4      0.109100
      4 C4         -4.0720   -1.0650    0.6410 ca        1 YR4     -0.097300
      5 C5         -2.9950   -1.9420    0.7810 ca        1 YR4     -0.105000
      6 C6         -1.7990   -1.7600    0.0760 ca        1 YR4     -0.086300
      7 C7         -0.6570   -2.7430    0.1970 c3        1 YR4      0.053600
      8 C8          0.6870   -2.0720    0.0410 ca        1 YR4     -0.097300
      9 C9          0.8910   -0.7790    0.5370 ca        1 YR4     -0.100000
     10 C10         1.7760   -2.7470   -0.5260 ca        1 YR4     -0.101000
     11 C11         3.0350   -2.1540   -0.6280 ca        1 YR4     -0.098300
     12 C12         3.2070   -0.8410   -0.1360 ca        1 YR4      0.121100
     13 C13         2.1360   -0.1590    0.4490 ca        1 YR4     -0.204000
     14 C14        -0.6410   -3.4660    1.5600 c3        1 YR4     -0.069900
     15 C15        -0.5500   -2.5540    2.7540 c3        1 YR4     -0.098600
     16 C16        -0.8990   -3.8380   -0.8640 c3        1 YR4     -0.069900
     17 C17        -0.8220   -3.3610   -2.2890 c3        1 YR4     -0.098600
     18 C18        -5.3290   -1.2800    1.3910 c3        1 YR4     -0.043800
     19 C19         4.1750   -2.8740   -1.2390 c3        1 YR4     -0.043800
     20 O20         4.4760   -0.3170   -0.2940 os        1 YR4     -0.319900
     21 O21        -5.0710    0.8200   -0.3810 os        1 YR4     -0.343900
     22 C22         4.7130    0.9420    0.3440 c3        1 YR4      0.097400
     23 C23         6.2080    1.2260    0.1480 c3        1 YR4      0.142100
     24 C24         6.5190    2.7380    0.1770 c3        1 YR4     -0.086000
     25 O25         6.9740    0.5130    1.1020 oh        1 YR4     -0.582800
     26 C26         5.9570    3.3900    1.4300 c3        1 YR4     -0.088767
     27 C27         8.0330    2.9150    0.1570 c3        1 YR4     -0.088767
     28 C28         5.9340    3.4110   -1.0560 c3        1 YR4     -0.088767
     29 C29        -4.8510    2.1850   -0.7820 c3        1 YR4      0.099100
     30 C30        -5.8290    3.0350    0.0190 c3        1 YR4     -0.086400
     31 C31        -5.1450    2.2920   -2.2840 c3        1 YR4      0.113400
     32 C32        -5.4800    3.0280    1.4960 c3        1 YR4      0.131400
     33 O33        -6.4430    1.8430   -2.6080 oh        1 YR4     -0.592800
     34 O34        -6.3960    3.8980    2.1410 oh        1 YR4     -0.600800
     35 H1         -0.7890   -0.5380   -1.4050 ha        1 YR4      0.146000
     36 H2         -2.6720    1.0360   -1.6950 ha        1 YR4      0.136000
     37 H5         -3.1080   -2.7950    1.4700 ha        1 YR4      0.138000
     38 H9          0.0560   -0.2390    1.0120 ha        1 YR4      0.140000
     39 H10         1.6560   -3.7760   -0.9020 ha        1 YR4      0.137000
     40 H13         2.2590    0.8590    0.8440 ha        1 YR4      0.133000
     41 H14        -1.5570   -4.1090    1.6440 hc        1 YR4      0.041700
     42 H14A        0.2430   -4.1600    1.5620 hc        1 YR4      0.041700
     43 H15        -0.5890   -3.1550    3.6950 hc        1 YR4      0.038367
     44 H15A        0.4090   -1.9810    2.7410 hc        1 YR4      0.038367
     45 H15B       -1.3930   -1.8220    2.7660 hc        1 YR4      0.038367
     46 H16        -0.1640   -4.6700   -0.7030 hc        1 YR4      0.041700
     47 H16A       -1.9210   -4.2670   -0.6780 hc        1 YR4      0.041700
     48 H17        -0.9580   -4.2230   -2.9860 hc        1 YR4      0.038367
     49 H17A       -1.6200   -2.6080   -2.4990 hc        1 YR4      0.038367
     50 H17B        0.1680   -2.8870   -2.5010 hc        1 YR4      0.038367
     51 H18        -6.1010   -1.7330    0.7190 hc        1 YR4      0.046700
     52 H18A       -5.1710   -1.9610    2.2620 hc        1 YR4      0.046700
     53 H18B       -5.7310   -0.3030    1.7640 hc        1 YR4      0.046700
     54 H19         4.4380   -2.4050   -2.2210 hc        1 YR4      0.048033
     55 H19A        5.0730   -2.8040   -0.5760 hc        1 YR4      0.048033
     56 H19B        3.9330   -3.9500   -1.4100 hc        1 YR4      0.048033
     57 H22         4.0810    1.7270   -0.1460 h1        1 YR4      0.044700
     58 H22A        4.4610    0.8730    1.4350 h1        1 YR4      0.044700
     59 H23         6.5460    0.7940   -0.8390 h1        1 YR4      0.097700
     60 HO25        6.7370    0.8470    1.9760 ho        1 YR4      0.395000
     61 H26         6.3910    2.9200    2.3450 hc        1 YR4      0.038811
     62 H26A        6.2100    4.4770    1.4400 hc        1 YR4      0.038811
     63 H26B        4.8460    3.2870    1.4670 hc        1 YR4      0.038811
     64 H27         8.4570    2.4790   -0.7790 hc        1 YR4      0.038811
     65 H27A        8.2940    3.9990    0.2020 hc        1 YR4      0.038811
     66 H27B        8.4940    2.3950    1.0310 hc        1 YR4      0.038811
     67 H28         4.8190    3.4380   -1.0110 hc        1 YR4      0.038811
     68 H28A        6.3040    4.4620   -1.1240 hc        1 YR4      0.038811
     69 H28B        6.2420    2.8650   -1.9800 hc        1 YR4      0.038811
     70 H29        -3.7950    2.5030   -0.5720 h1        1 YR4      0.061700
     71 H30        -5.8020    4.0840   -0.3730 hc        1 YR4      0.074200
     72 H30A       -6.8700    2.6430   -0.1270 hc        1 YR4      0.074200
     73 H31        -5.1160    3.3650   -2.6090 h1        1 YR4      0.051200
     74 H31A       -4.3850    1.6970   -2.8600 h1        1 YR4      0.051200
     75 H32        -5.5680    1.9870    1.9100 h1        1 YR4      0.025700
     76 H32A       -4.4310    3.3970    1.6590 h1        1 YR4      0.025700
     77 HO33       -6.5510    0.9710   -2.2060 ho        1 YR4      0.414000
     78 HO34       -6.2350    3.8130    3.0880 ho        1 YR4      0.400000
@<TRIPOS>BOND
     1    1    2 ar  
     2    1    6 ar  
     3    1   35 1   
     4    2    3 ar  
     5    2   36 1   
     6    3    4 ar  
     7    3   21 1   
     8    4    5 ar  
     9    4   18 1   
    10    5    6 ar  
    11    5   37 1   
    12    6    7 1   
    13    7    8 1   
    14    7   14 1   
    15    7   16 1   
    16    8    9 ar  
    17    8   10 ar  
    18    9   13 ar  
    19    9   38 1   
    20   10   11 ar  
    21   10   39 1   
    22   11   12 ar  
    23   11   19 1   
    24   12   13 ar  
    25   12   20 1   
    26   13   40 1   
    27   14   15 1   
    28   14   41 1   
    29   14   42 1   
    30   15   43 1   
    31   15   44 1   
    32   15   45 1   
    33   16   17 1   
    34   16   46 1   
    35   16   47 1   
    36   17   48 1   
    37   17   49 1   
    38   17   50 1   
    39   18   51 1   
    40   18   52 1   
    41   18   53 1   
    42   19   54 1   
    43   19   55 1   
    44   19   56 1   
    45   20   22 1   
    46   21   29 1   
    47   22   23 1   
    48   22   57 1   
    49   22   58 1   
    50   23   24 1   
    51   23   25 1   
    52   23   59 1   
    53   24   26 1   
    54   24   27 1   
    55   24   28 1   
    56   25   60 1   
    57   26   61 1   
    58   26   62 1   
    59   26   63 1   
    60   27   64 1   
    61   27   65 1   
    62   27   66 1   
    63   28   67 1   
    64   28   68 1   
    65   28   69 1   
    66   29   30 1   
    67   29   31 1   
    68   29   70 1   
    69   30   32 1   
    70   30   71 1   
    71   30   72 1   
    72   31   33 1   
    73   31   73 1   
    74   31   74 1   
    75   32   34 1   
    76   32   75 1   
    77   32   76 1   
    78   33   77 1   
    79   34   78 1   
@<TRIPOS>SUBSTRUCTURE
     1 YR4         1 TEMP              0 ****  ****    0 ROOT
