@<TRIPOS>MOLECULE
YR4
   78    74     1     0     0
SMALL
bcc


@<TRIPOS>ATOM
      1 C1          1.2730   -2.3350    2.3700 c1        1 YR4     -0.101000
      2 C2          2.5870   -1.9820    2.6470 c1        1 YR4     -0.200000
      3 C3          3.0590   -0.7280    2.2880 c1        1 YR4      0.078000
      4 C4          2.2180    0.1720    1.6520 c1        1 YR4     -0.093000
      5 C5          0.9040   -0.1810    1.3750 c1        1 YR4     -0.099000
      6 C6          0.4320   -1.4360    1.7340 c1        1 YR4     -0.084000
      7 C7         -1.0540   -1.7690    1.5660 c3        1 YR4      0.040000
      8 C8         -1.6780   -0.8140    0.5520 c2        1 YR4     -0.072000
      9 C9         -1.5790    0.5550    0.7440 c2        1 YR4     -0.128000
     10 C10        -2.4810   -1.3150   -0.4640 c1        1 YR4     -0.117000
     11 C11        -3.1850   -0.4440   -1.2880 c1        1 YR4     -0.080000
     12 C12        -3.0860    0.9230   -1.0950 c1        1 YR4      0.041000
     13 C13        -2.2820    1.4250   -0.0780 c1        1 YR4     -0.137000
     14 C14        -1.2010   -3.2050    1.0700 c3        1 YR4     -0.148500
     15 C15        -1.2720   -4.1460    2.2570 c3        1 YR4     -0.214000
     16 C16        -1.7640   -1.6190    2.9090 c3        1 YR4     -0.148500
     17 C17        -1.1770   -2.6000    3.9030 c3        1 YR4     -0.214000
     18 C18         2.7230    1.5550    1.2900 c3        1 YR4     -0.166000
     19 C19        -4.1570   -0.9930   -2.3120 c3        1 YR4     -0.190000
     20 O20        -3.9100    1.8010   -1.8400 os        1 YR4     -0.225000
     21 O21         4.3490   -0.3190    2.6930 os        1 YR4     -0.217000
     22 C22        -3.2100    2.5680   -2.8040 c3        1 YR4     -0.049000
     23 C23        -4.2020    3.2120   -3.7570 c3        1 YR4      0.026000
     24 C24        -3.4660    4.1100   -4.7150 c3        1 YR4     -0.085000
     25 O25        -4.8770    2.2110   -4.4770 oh        1 YR4     -0.316000
     26 C26        -3.0320    5.3740   -3.9930 c3        1 YR4     -0.206333
     27 C27        -4.3820    4.4750   -5.8690 c3        1 YR4     -0.206333
     28 C28        -2.2460    3.3880   -5.2480 c3        1 YR4     -0.206333
     29 C29         5.3730   -1.2080    2.3160 c3        1 YR4      0.027000
     30 C30         6.3220   -1.4050    3.4790 c3        1 YR4     -0.186000
     31 C31         6.1330   -0.6330    1.1360 c3        1 YR4     -0.027000
     32 C32         6.9880   -2.7620    3.3610 c3        1 YR4     -0.022000
     33 O33         7.3420   -1.3480    0.9610 oh        1 YR4     -0.335000
     34 O34         7.5440   -3.1230    4.6080 oh        1 YR4     -0.330000
     35 H1          0.9420   -3.2160    2.6230 ha        1 YR4      0.138000
     36 H2          3.1780   -2.6150    3.0950 ha        1 YR4      0.139000
     37 H5          0.3160    0.4490    0.9290 ha        1 YR4      0.139000
     38 H9         -1.0160    0.9080    1.4570 ha        1 YR4      0.134000
     39 H10        -2.5510   -2.2790   -0.5990 ha        1 YR4      0.144000
     40 H13        -2.2110    2.3870    0.0580 ha        1 YR4      0.142000
     41 H14        -2.0170   -3.2850    0.5430 hc        1 YR4      0.082500
     42 H14A       -0.4300   -3.4380    0.5140 hc        1 YR4      0.082500
     43 H15        -0.4340   -4.0980    2.7620 hc        1 YR4      0.076500
     44 H15A       -2.0170   -3.8860    2.8350 hc        1 YR4      0.076500
     45 H15B       -1.4090   -5.0620    1.9400 hc        1 YR4      0.076500
     46 H16        -1.6450   -0.7070    3.2400 hc        1 YR4      0.082500
     47 H16A       -2.7170   -1.8030    2.7950 hc        1 YR4      0.082500
     48 H17        -0.3970   -3.0330    3.5110 hc        1 YR4      0.076500
     49 H17A       -1.8480   -3.2780    4.1300 hc        1 YR4      0.076500
     50 H17B       -0.9100   -2.1210    4.7150 hc        1 YR4      0.076500
     51 H18         3.2790    1.4990    0.4830 hc        1 YR4      0.084667
     52 H18A        3.2580    1.9130    2.0320 hc        1 YR4      0.084667
     53 H18B        1.9620    2.1460    1.1220 hc        1 YR4      0.084667
     54 H19        -3.6610   -1.4720   -3.0090 hc        1 YR4      0.092000
     55 H19A       -4.7810   -1.6090   -1.8730 hc        1 YR4      0.092000
     56 H19B       -4.6570   -0.2530   -2.7170 hc        1 YR4      0.092000
     57 H22        -2.6050    1.9870   -3.3070 h1        1 YR4      0.083000
     58 H22A       -2.6890    3.2690   -2.3500 h1        1 YR4      0.083000
     59 H23        -4.8480    3.7390   -3.2470 h1        1 YR4      0.138000
     60 HO25       -4.2920    1.5990   -4.7550 ho        1 YR4      0.192000
     61 H26        -3.8180    5.9280   -3.8010 hc        1 YR4      0.077889
     62 H26A       -2.4090    5.8760   -4.5590 hc        1 YR4      0.077889
     63 H26B       -2.5880    5.1330   -3.1510 hc        1 YR4      0.077889
     64 H27        -5.1460    4.9900   -5.5300 hc        1 YR4      0.077889
     65 H27A       -4.7050    3.6570   -6.3020 hc        1 YR4      0.077889
     66 H27B       -3.8870    5.0160   -6.5190 hc        1 YR4      0.077889
     67 H28        -2.4860    2.4620   -5.4720 hc        1 YR4      0.077889
     68 H28A       -1.9210    3.8440   -6.0500 hc        1 YR4      0.077889
     69 H28B       -1.5420    3.3870   -4.5640 hc        1 YR4      0.077889
     70 H29         4.9830   -2.0660    2.0650 h1        1 YR4      0.114000
     71 H30         7.0050   -0.7040    3.4650 hc        1 YR4      0.107500
     72 H30A        5.8220   -1.3580    4.3200 hc        1 YR4      0.107500
     73 H31         6.3330    0.3120    1.3040 h1        1 YR4      0.082000
     74 H31A        5.5870   -0.7120    0.3260 h1        1 YR4      0.082000
     75 H32         7.6970   -2.7200    2.6880 h1        1 YR4      0.070000
     76 H32A        6.3230   -3.4300    3.0940 h1        1 YR4      0.070000
     77 HO33        7.8080   -0.9850    0.2930 ho        1 YR4      0.206000
     78 HO34        8.1350   -3.7760    4.4910 ho        1 YR4      0.200000
@<TRIPOS>BOND
     1    1    6 1   
     2    1   35 1   
     3    2    3 1   
     4    2   36 1   
     5    3   21 1   
     6    4    5 1   
     7    4   18 1   
     8    5   37 1   
     9    6    7 1   
    10    7    8 1   
    11    7   14 1   
    12    7   16 1   
    13    8    9 1   
    14    8   10 1   
    15    9   13 1   
    16    9   38 1   
    17   10   39 1   
    18   11   12 1   
    19   11   19 1   
    20   12   20 1   
    21   13   40 1   
    22   14   15 1   
    23   14   41 1   
    24   14   42 1   
    25   15   43 1   
    26   15   44 1   
    27   15   45 1   
    28   16   17 1   
    29   16   46 1   
    30   16   47 1   
    31   17   48 1   
    32   17   49 1   
    33   17   50 1   
    34   18   51 1   
    35   18   52 1   
    36   18   53 1   
    37   19   54 1   
    38   19   55 1   
    39   19   56 1   
    40   20   22 1   
    41   21   29 1   
    42   22   23 1   
    43   22   57 1   
    44   22   58 1   
    45   23   24 1   
    46   23   25 1   
    47   23   59 1   
    48   24   26 1   
    49   24   27 1   
    50   24   28 1   
    51   25   60 1   
    52   26   61 1   
    53   26   62 1   
    54   26   63 1   
    55   27   64 1   
    56   27   65 1   
    57   27   66 1   
    58   28   67 1   
    59   28   68 1   
    60   28   69 1   
    61   29   30 1   
    62   29   31 1   
    63   29   70 1   
    64   30   32 1   
    65   30   71 1   
    66   30   72 1   
    67   31   33 1   
    68   31   73 1   
    69   31   74 1   
    70   32   34 1   
    71   32   75 1   
    72   32   76 1   
    73   33   77 1   
    74   34   78 1   
@<TRIPOS>SUBSTRUCTURE
     1 YR4         1 TEMP              0 ****  ****    0 ROOT
