@<TRIPOS>MOLECULE
YRG
   31    32     1     0     0
SMALL
bcc


@<TRIPOS>ATOM
      1 CAK         1.7920    0.4150   -1.5410 ca        1 YRG     -0.183500
      2 CAI         3.0790    0.8600   -1.2690 ca        1 YRG     -0.102500
      3 CAP         3.6790    0.5390   -0.0490 ca        1 YRG     -0.038600
      4 CLAC        5.2590    1.1020    0.2870 cl        1 YRG     -0.149400
      5 CAJ         3.0060   -0.2420    0.8950 ca        1 YRG     -0.102500
      6 CAL         1.7190   -0.6970    0.6310 ca        1 YRG     -0.183500
      7 CAR         1.1020   -0.3620   -0.5870 ca        1 YRG      0.163100
      8 OAN        -0.1500   -0.7670   -0.9650 os        1 YRG     -0.325900
      9 CAS        -1.0610   -1.1640    0.0880 c3        1 YRG      0.015100
     10 CAO        -0.8820   -2.6690    0.4620 c         1 YRG      0.905600
     11 OAB        -1.4230   -3.5390   -0.2660 o         1 YRG     -0.819800
     12 OAA        -0.2340   -2.9040    1.5210 o         1 YRG     -0.819800
     13 CAM        -2.4530   -0.9150   -0.4860 c3        1 YRG     -0.045100
     14 CAQ        -3.0100    0.4170   -0.1300 ca        1 YRG     -0.050300
     15 CAG        -3.2930    1.3640   -1.1220 ca        1 YRG     -0.131500
     16 CAE        -3.8360    2.6030   -0.7830 ca        1 YRG     -0.136500
     17 CAD        -4.1020    2.9100    0.5500 ca        1 YRG     -0.154000
     18 CAF        -3.8200    1.9740    1.5450 ca        1 YRG     -0.136500
     19 CAH        -3.2780    0.7360    1.2090 ca        1 YRG     -0.131500
     20 HAK         1.3030    0.6540   -2.4950 ha        1 YRG      0.175500
     21 HAI         3.6190    1.4650   -2.0120 ha        1 YRG      0.131000
     22 HAJ         3.4910   -0.5070    1.8460 ha        1 YRG      0.131000
     23 HAL         1.1910   -1.3550    1.3520 ha        1 YRG      0.175500
     24 HAS        -0.8780   -0.5310    0.9970 h1        1 YRG      0.042700
     25 HAM        -2.4070   -1.0410   -1.6010 hc        1 YRG      0.076200
     26 HAMA       -3.1300   -1.7220   -0.0910 hc        1 YRG      0.076200
     27 HAG        -3.0780    1.1280   -2.1750 ha        1 YRG      0.137000
     28 HAE        -4.0520    3.3390   -1.5700 ha        1 YRG      0.116500
     29 HAD        -4.5280    3.8870    0.8170 ha        1 YRG      0.114000
     30 HAF        -4.0240    2.2130    2.5990 ha        1 YRG      0.116500
     31 HAH        -3.0510   -0.0040    1.9930 ha        1 YRG      0.137000
@<TRIPOS>BOND
     1    1    2 ar  
     2    1    7 ar  
     3    1   20 1   
     4    2    3 ar  
     5    2   21 1   
     6    3    4 1   
     7    3    5 ar  
     8    5    6 ar  
     9    5   22 1   
    10    6    7 ar  
    11    6   23 1   
    12    7    8 1   
    13    8    9 1   
    14    9   10 1   
    15    9   13 1   
    16    9   24 1   
    17   10   11 1   
    18   10   12 1   
    19   13   14 1   
    20   13   25 1   
    21   13   26 1   
    22   14   15 ar  
    23   14   19 ar  
    24   15   16 ar  
    25   15   27 1   
    26   16   17 ar  
    27   16   28 1   
    28   17   18 ar  
    29   17   29 1   
    30   18   19 ar  
    31   18   30 1   
    32   19   31 1   
@<TRIPOS>SUBSTRUCTURE
     1 YRG         1 TEMP              0 ****  ****    0 ROOT
