@<TRIPOS>MOLECULE
YRG
   31    27     1     0     0
SMALL
bcc


@<TRIPOS>ATOM
      1 CAK        -0.4010    3.2340    1.1630 c1        1 YRG     -0.182000
      2 CAI        -1.1100    4.3330    0.7060 c1        1 YRG     -0.099000
      3 CAP        -1.1410    4.6230   -0.6490 c1        1 YRG     -0.115000
      4 CLAC       -2.0520    5.9930   -1.2260 cl        1 YRG     -0.070000
      5 CAJ        -0.4630    3.8150   -1.5460 c1        1 YRG     -0.147500
      6 CAL         0.2470    2.7160   -1.0890 c1        1 YRG     -0.147500
      7 CAR         0.2790    2.4250    0.2660 c1        1 YRG      0.114000
      8 OAN         1.0720    1.3650    0.7380 os        1 YRG     -0.212000
      9 CAS         0.4330    0.1130    0.6950 c3        1 YRG     -0.042000
     10 CAO        -0.1870   -0.1840    2.0430 c2        1 YRG      0.326000
     11 OAB        -1.4000    0.0830    2.2500 o         1 YRG     -0.557000
     12 OAA         0.5220   -0.6530    2.9710 o         1 YRG     -0.557000
     13 CAM         1.4460   -0.9590    0.3590 c3        1 YRG     -0.132000
     14 CAQ         0.7260   -2.2120   -0.0900 c2        1 YRG     -0.048000
     15 CAG         0.7060   -3.3300    0.7290 c2        1 YRG     -0.111000
     16 CAE         0.1340   -4.5090    0.2790 c1        1 YRG     -0.138000
     17 CAD        -0.4190   -4.5710   -0.9900 c1        1 YRG     -0.147500
     18 CAF        -0.3990   -3.4530   -1.8100 c1        1 YRG     -0.147500
     19 CAH         0.1730   -2.2740   -1.3600 c1        1 YRG     -0.142000
     20 HAK        -0.3790    3.0290    2.1180 ha        1 YRG      0.216000
     21 HAI        -1.5890    4.9020    1.3390 ha        1 YRG      0.136000
     22 HAJ        -0.4850    4.0190   -2.5010 ha        1 YRG      0.121000
     23 HAL         0.7260    2.1460   -1.7220 ha        1 YRG      0.121000
     24 HAS        -0.2660    0.1260    0.0110 h1        1 YRG      0.083000
     25 HAM         2.0290   -0.6420   -0.3600 hc        1 YRG      0.103000
     26 HAMA        1.9840   -1.1580    1.1510 hc        1 YRG      0.103000
     27 HAG         1.0940   -3.2860    1.6240 ha        1 YRG      0.189000
     28 HAE         0.1200   -5.2960    0.8560 ha        1 YRG      0.121000
     29 HAD        -0.8220   -5.4020   -1.3070 ha        1 YRG      0.121000
     30 HAF        -0.7640   -3.5050   -2.7140 ha        1 YRG      0.121000
     31 HAH         0.1870   -1.4870   -1.9370 ha        1 YRG      0.120000
@<TRIPOS>BOND
     1    1    7 1   
     2    1   20 1   
     3    2    3 1   
     4    2   21 1   
     5    3    4 1   
     6    5    6 1   
     7    5   22 1   
     8    6   23 1   
     9    7    8 1   
    10    8    9 1   
    11    9   10 1   
    12    9   13 1   
    13    9   24 1   
    14   10   11 1   
    15   10   12 1   
    16   13   14 1   
    17   13   25 1   
    18   13   26 1   
    19   14   15 1   
    20   14   19 1   
    21   15   16 1   
    22   15   27 1   
    23   16   28 1   
    24   17   18 1   
    25   17   29 1   
    26   18   30 1   
    27   19   31 1   
@<TRIPOS>SUBSTRUCTURE
     1 YRG         1 TEMP              0 ****  ****    0 ROOT
