@<TRIPOS>MOLECULE
YRG
   31    32     1     0     0
SMALL
bcc


@<TRIPOS>ATOM
      1 CAK         0.0460   -0.2920    0.0130 ca        1 YRG     -0.183500
      2 CAI         1.4340   -0.3180   -0.0670 ca        1 YRG     -0.102500
      3 CAP         2.1960   -0.2960    1.1040 ca        1 YRG     -0.038600
      4 ClAC        3.9030   -0.3140    0.9980 cl        1 YRG     -0.149400
      5 CAJ         1.5780   -0.2660    2.3580 ca        1 YRG     -0.102500
      6 CAL         0.1910   -0.2450    2.4500 ca        1 YRG     -0.183500
      7 CAR        -0.5810   -0.2490    1.2760 ca        1 YRG      0.163100
      8 OAN        -1.9510   -0.2480    1.2420 os        1 YRG     -0.325900
      9 CAS        -2.6390    0.2340    2.4210 c3        1 YRG      0.015100
     10 CAO        -2.8430   -0.9040    3.4700 c         1 YRG      0.905600
     11 OAB        -3.7930   -1.7100    3.3060 o         1 YRG     -0.819800
     12 OAA        -2.0520   -0.8980    4.4550 o         1 YRG     -0.819800
     13 CAM        -3.9850    0.7390    1.9070 c3        1 YRG     -0.045100
     14 CAQ        -3.9930    2.1940    1.6000 ca        1 YRG     -0.050300
     15 CAG        -4.2140    2.6500    0.2950 ca        1 YRG     -0.131500
     16 CAE        -4.2430    4.0160    0.0180 ca        1 YRG     -0.136500
     17 CAD        -4.0510    4.9430    1.0420 ca        1 YRG     -0.154000
     18 CAF        -3.8270    4.4970    2.3450 ca        1 YRG     -0.136500
     19 CAH        -3.7990    3.1320    2.6230 ca        1 YRG     -0.131500
     20 HAK        -0.5710   -0.3120   -0.8950 ha        1 YRG      0.175500
     21 HAI         1.9250   -0.3530   -1.0500 ha        1 YRG      0.131000
     22 HAJ         2.1840   -0.2680    3.2760 ha        1 YRG      0.131000
     23 HAL        -0.3120   -0.2660    3.4390 ha        1 YRG      0.175500
     24 HAS        -2.0450    1.0670    2.8850 h1        1 YRG      0.042700
     25 HAM        -4.7520    0.5180    2.6990 hc        1 YRG      0.075700
     26 HAMA       -4.2680    0.1400    1.0000 hc        1 YRG      0.075700
     27 HAG        -4.3590    1.9220   -0.5170 ha        1 YRG      0.137000
     28 HAE        -4.4150    4.3620   -1.0110 ha        1 YRG      0.116500
     29 HAD        -4.0720    6.0190    0.8230 ha        1 YRG      0.114000
     30 HAF        -3.6710    5.2240    3.1540 ha        1 YRG      0.116500
     31 HAH        -3.6180    2.7780    3.6500 ha        1 YRG      0.137000
@<TRIPOS>BOND
     1    1    2 ar  
     2    1    7 ar  
     3    1   20 1   
     4    2    3 ar  
     5    2   21 1   
     6    3    4 1   
     7    3    5 ar  
     8    5    6 ar  
     9    5   22 1   
    10    6    7 ar  
    11    6   23 1   
    12    7    8 1   
    13    8    9 1   
    14    9   10 1   
    15    9   13 1   
    16    9   24 1   
    17   10   11 1   
    18   10   12 1   
    19   13   14 1   
    20   13   25 1   
    21   13   26 1   
    22   14   15 ar  
    23   14   19 ar  
    24   15   16 ar  
    25   15   27 1   
    26   16   17 ar  
    27   16   28 1   
    28   17   18 ar  
    29   17   29 1   
    30   18   19 ar  
    31   18   30 1   
    32   19   31 1   
@<TRIPOS>SUBSTRUCTURE
     1 YRG         1 TEMP              0 ****  ****    0 ROOT
