@<TRIPOS>MOLECULE
YRL
   20    20     1     0     0
SMALL
bcc


@<TRIPOS>ATOM
      1 C01        -0.0360    0.0100   -0.0030 ca        1 YRL     -0.117300
      2 C02         1.3580   -0.1400   -0.0390 ca        1 YRL     -0.090000
      3 C03        -0.6720    0.2080    1.2260 ca        1 YRL     -0.090000
      4 C04         2.1110   -0.0970    1.1280 ca        1 YRL     -0.183500
      5 C05         0.0630    0.2550    2.4080 ca        1 YRL     -0.183500
      6 C06         1.4550    0.1010    2.3550 ca        1 YRL      0.123100
      7 O07         2.2500    0.1340    3.4780 oh        1 YRL     -0.498100
      8 C08        -0.8220   -0.0270   -1.2640 c3        1 YRL     -0.036100
      9 C09        -0.9450   -1.4510   -1.7890 c3        1 YRL      0.134400
     10 O10        -1.6570   -1.3750   -3.0150 oh        1 YRL     -0.603800
     11 H021        1.8620   -0.2910   -1.0060 ha        1 YRL      0.135500
     12 H031       -1.7660    0.3310    1.2630 ha        1 YRL      0.135500
     13 H041        3.2030   -0.2130    1.1090 ha        1 YRL      0.142500
     14 H051       -0.4420    0.4120    3.3710 ha        1 YRL      0.142500
     15 H071        1.6780    0.2830    4.2440 ho        1 YRL      0.419000
     16 H082       -1.8500    0.3920   -1.1040 hc        1 YRL      0.061700
     17 H081       -0.3250    0.6070   -2.0470 hc        1 YRL      0.061700
     18 H092        0.0720   -1.8950   -1.9620 h1        1 YRL      0.024700
     19 H091       -1.5050   -2.0950   -1.0600 h1        1 YRL      0.024700
     20 H101       -1.7430   -2.2800   -3.3380 ho        1 YRL      0.400000
@<TRIPOS>BOND
     1    1    2 ar  
     2    1    3 ar  
     3    1    8 1   
     4    2    4 ar  
     5    2   11 1   
     6    3    5 ar  
     7    3   12 1   
     8    4    6 ar  
     9    4   13 1   
    10    5    6 ar  
    11    5   14 1   
    12    6    7 1   
    13    7   15 1   
    14    8    9 1   
    15    8   16 1   
    16    8   17 1   
    17    9   10 1   
    18    9   18 1   
    19    9   19 1   
    20   10   20 1   
@<TRIPOS>SUBSTRUCTURE
     1 YRL         1 TEMP              0 ****  ****    0 ROOT
