@<TRIPOS>MOLECULE
YRO
   32    32     1     0     0
SMALL
bcc


@<TRIPOS>ATOM
      1 OAD        -1.4050   -3.1280    0.4650 o         1 YRO     -0.791800
      2 CAL        -0.6240   -2.2310    0.0540 c         1 YRO      0.919800
      3 OAG         0.5550   -2.3870   -0.3380 o         1 YRO     -0.791800
      4 CAN        -1.2160   -0.7880    0.0130 cc        1 YRO      0.041400
      5 NAJ        -2.5500   -0.7130   -0.3610 n         1 YRO     -0.435100
      6 CAO        -3.2510    0.4980   -0.3810 c         1 YRO      0.790500
      7 OAE        -4.4680    0.5480   -0.6890 o         1 YRO     -0.700500
      8 NAK        -2.5470    1.6690   -0.0640 n         1 YRO     -0.593500
      9 CAP        -1.1880    1.6550    0.3150 c         1 YRO      0.716700
     10 OAF        -0.6750    2.7550    0.6100 o         1 YRO     -0.670500
     11 CAM        -0.5180    0.3510    0.3350 cd        1 YRO     -0.288400
     12 CAH         0.9170    0.3360    0.7170 c3        1 YRO      0.004800
     13 CAI         1.8130    0.4710   -0.5010 c3        1 YRO     -0.067400
     14 CAQ         3.3040    0.3350   -0.1900 c3        1 YRO     -0.050000
     15 CAB         3.7800    1.4840    0.6860 c3        1 YRO     -0.085433
     16 CAC         3.5810   -0.9930    0.4990 c3        1 YRO     -0.085433
     17 CAA         4.0660    0.3760   -1.5110 c3        1 YRO     -0.085433
     18 H2         -3.0470    2.5270   -0.0900 hn        1 YRO      0.329500
     19 H4          1.1160    1.1760    1.4340 hc        1 YRO      0.053700
     20 H5          1.1440   -0.6380    1.2320 hc        1 YRO      0.053700
     21 H6          1.5290   -0.3390   -1.2280 hc        1 YRO      0.050700
     22 H7          1.6310    1.4640   -0.9880 hc        1 YRO      0.050700
     23 H8          3.2540    1.4670    1.6700 hc        1 YRO      0.029700
     24 H9          4.8780    1.4000    0.8690 hc        1 YRO      0.029700
     25 H10         3.5730    2.4620    0.1900 hc        1 YRO      0.029700
     26 H11         2.9580   -1.8010    0.0360 hc        1 YRO      0.029700
     27 H12         4.6610   -1.2620    0.4120 hc        1 YRO      0.029700
     28 H13         3.3210   -0.9320    1.5830 hc        1 YRO      0.029700
     29 H14         3.8380    1.3200   -2.0610 hc        1 YRO      0.029700
     30 H15         5.1660    0.3270   -1.3280 hc        1 YRO      0.029700
     31 H16         3.7710   -0.4910   -2.1490 hc        1 YRO      0.029700
     32 H17        -3.0630   -1.5650   -0.4650 hn        1 YRO      0.365500
@<TRIPOS>BOND
     1    1    2 1   
     2    2    3 1   
     3    2    4 1   
     4    4    5 1   
     5    4   11 2   
     6    5    6 1   
     7    5   32 1   
     8    6    7 2   
     9    6    8 1   
    10    8    9 1   
    11    8   18 1   
    12    9   10 2   
    13    9   11 1   
    14   11   12 1   
    15   12   13 1   
    16   12   19 1   
    17   12   20 1   
    18   13   14 1   
    19   13   21 1   
    20   13   22 1   
    21   14   15 1   
    22   14   16 1   
    23   14   17 1   
    24   15   23 1   
    25   15   24 1   
    26   15   25 1   
    27   16   26 1   
    28   16   27 1   
    29   16   28 1   
    30   17   29 1   
    31   17   30 1   
    32   17   31 1   
@<TRIPOS>SUBSTRUCTURE
     1 YRO         1 TEMP              0 ****  ****    0 ROOT
