@<TRIPOS>MOLECULE
YRO
   32    32     1     0     0
SMALL
bcc


@<TRIPOS>ATOM
      1 OAD         0.0570    0.4200   -0.0870 o         1 YRO     -0.791800
      2 CAL         1.1970   -0.1030    0.0160 c         1 YRO      0.919800
      3 OAG         1.6790   -0.6510    1.0340 o         1 YRO     -0.791800
      4 CAN         2.0710   -0.0800   -1.2760 cc        1 YRO      0.041400
      5 NAJ         1.3700   -0.2690   -2.4590 ns        1 YRO     -0.435100
      6 CAO         1.9940   -0.2060   -3.7100 c         1 YRO      0.790500
      7 OAE         1.3420   -0.3460   -4.7760 o         1 YRO     -0.700500
      8 NAK         3.3810   -0.0030   -3.7440 ns        1 YRO     -0.593500
      9 CAP         4.1460    0.1870   -2.5740 c         1 YRO      0.716700
     10 OAF         5.3670    0.3960   -2.7270 o         1 YRO     -0.670500
     11 CAM         3.4280    0.1300   -1.2960 cd        1 YRO     -0.288400
     12 CAH         4.2340    0.3120   -0.0620 c3        1 YRO      0.004800
     13 CAI         4.7330   -1.0190    0.4720 c3        1 YRO     -0.067400
     14 CAQ         5.4630   -0.9130    1.8120 c3        1 YRO     -0.050000
     15 CAB         6.7550   -0.1250    1.6620 c3        1 YRO     -0.085433
     16 CAC         4.5680   -0.2520    2.8500 c3        1 YRO     -0.085433
     17 CAA         5.8010   -2.3260    2.2760 c3        1 YRO     -0.085433
     18 H2          3.8190    0.0300   -4.6350 hn        1 YRO      0.329500
     19 H4          3.5920    0.8030    0.7210 hc        1 YRO      0.053700
     20 H5          5.1040    0.9860   -0.2850 hc        1 YRO      0.053700
     21 H6          5.4180   -1.4870   -0.2810 hc        1 YRO      0.050700
     22 H7          3.8410   -1.6900    0.6090 hc        1 YRO      0.050700
     23 H8          7.3030   -0.0920    2.6350 hc        1 YRO      0.029700
     24 H9          6.5380    0.9230    1.3430 hc        1 YRO      0.029700
     25 H10         7.4130   -0.6000    0.8960 hc        1 YRO      0.029700
     26 H11         4.9280   -0.4830    3.8810 hc        1 YRO      0.029700
     27 H12         4.5700    0.8570    2.7180 hc        1 YRO      0.029700
     28 H13         3.5150   -0.6160    2.7350 hc        1 YRO      0.029700
     29 H14         6.3780   -2.2950    3.2310 hc        1 YRO      0.029700
     30 H15         4.8630   -2.9070    2.4440 hc        1 YRO      0.029700
     31 H16         6.4150   -2.8510    1.5060 hc        1 YRO      0.029700
     32 H17         0.3720   -0.2920   -2.4220 hn        1 YRO      0.365500
@<TRIPOS>BOND
     1    1    2 1   
     2    2    3 1   
     3    2    4 1   
     4    4    5 1   
     5    4   11 2   
     6    5    6 1   
     7    5   32 1   
     8    6    7 2   
     9    6    8 1   
    10    8    9 1   
    11    8   18 1   
    12    9   10 2   
    13    9   11 1   
    14   11   12 1   
    15   12   13 1   
    16   12   19 1   
    17   12   20 1   
    18   13   14 1   
    19   13   21 1   
    20   13   22 1   
    21   14   15 1   
    22   14   16 1   
    23   14   17 1   
    24   15   23 1   
    25   15   24 1   
    26   15   25 1   
    27   16   26 1   
    28   16   27 1   
    29   16   28 1   
    30   17   29 1   
    31   17   30 1   
    32   17   31 1   
@<TRIPOS>SUBSTRUCTURE
     1 YRO         1 TEMP              0 ****  ****    0 ROOT
