@<TRIPOS>MOLECULE
YRO
   32    32     1     0     0
SMALL
bcc


@<TRIPOS>ATOM
      1 OAD         0.0600    0.4360   -0.0640 o         1 YRO     -0.791800
      2 CAL         1.1980   -0.0920    0.0330 c         1 YRO      0.919800
      3 OAG         1.6840   -0.6430    1.0480 o         1 YRO     -0.791800
      4 CAN         2.0650   -0.0710   -1.2640 cc        1 YRO      0.041400
      5 NAJ         1.3570   -0.2570   -2.4430 n         1 YRO     -0.435100
      6 CAO         1.9740   -0.1970   -3.6980 c         1 YRO      0.790500
      7 OAE         1.3160   -0.3330   -4.7610 o         1 YRO     -0.700500
      8 NAK         3.3610    0.0010   -3.7390 n         1 YRO     -0.593500
      9 CAP         4.1340    0.1880   -2.5740 c         1 YRO      0.716700
     10 OAF         5.3550    0.3920   -2.7340 o         1 YRO     -0.670500
     11 CAM         3.4230    0.1330   -1.2920 cd        1 YRO     -0.288400
     12 CAH         4.2360    0.3110   -0.0620 c3        1 YRO      0.004800
     13 CAI         4.7330   -1.0210    0.4680 c3        1 YRO     -0.067400
     14 CAQ         5.4710   -0.9190    1.8040 c3        1 YRO     -0.050000
     15 CAB         6.7640   -0.1350    1.6480 c3        1 YRO     -0.085433
     16 CAC         4.5840   -0.2560    2.8480 c3        1 YRO     -0.085433
     17 CAA         5.8060   -2.3330    2.2660 c3        1 YRO     -0.085433
     18 H2          3.7950    0.0330   -4.6330 hn        1 YRO      0.329500
     19 H4          3.6000    0.8040    0.7240 hc        1 YRO      0.053700
     20 H5          5.1070    0.9820   -0.2900 hc        1 YRO      0.053700
     21 H6          5.4120   -1.4920   -0.2890 hc        1 YRO      0.050700
     22 H7          3.8390   -1.6890    0.6090 hc        1 YRO      0.050700
     23 H8          7.3180   -0.1050    2.6180 hc        1 YRO      0.029700
     24 H9          6.5500    0.9130    1.3300 hc        1 YRO      0.029700
     25 H10         7.4170   -0.6120    0.8780 hc        1 YRO      0.029700
     26 H11         4.9490   -0.4880    3.8770 hc        1 YRO      0.029700
     27 H12         4.5890    0.8530    2.7170 hc        1 YRO      0.029700
     28 H13         3.5290   -0.6150    2.7370 hc        1 YRO      0.029700
     29 H14         6.3890   -2.3050    3.2180 hc        1 YRO      0.029700
     30 H15         4.8670   -2.9110    2.4390 hc        1 YRO      0.029700
     31 H16         6.4140   -2.8600    1.4920 hc        1 YRO      0.029700
     32 H17         0.3590   -0.2770   -2.4010 hn        1 YRO      0.365500
@<TRIPOS>BOND
     1    1    2 1   
     2    2    3 1   
     3    2    4 1   
     4    4    5 1   
     5    4   11 2   
     6    5    6 1   
     7    5   32 1   
     8    6    7 2   
     9    6    8 1   
    10    8    9 1   
    11    8   18 1   
    12    9   10 2   
    13    9   11 1   
    14   11   12 1   
    15   12   13 1   
    16   12   19 1   
    17   12   20 1   
    18   13   14 1   
    19   13   21 1   
    20   13   22 1   
    21   14   15 1   
    22   14   16 1   
    23   14   17 1   
    24   15   23 1   
    25   15   24 1   
    26   15   25 1   
    27   16   26 1   
    28   16   27 1   
    29   16   28 1   
    30   17   29 1   
    31   17   30 1   
    32   17   31 1   
@<TRIPOS>SUBSTRUCTURE
     1 YRO         1 TEMP              0 ****  ****    0 ROOT
