@<TRIPOS>MOLECULE
YRR
   22    22     1     0     0
SMALL
bcc


@<TRIPOS>ATOM
      1 OP3         5.9680   -0.7860   -3.5420 o         1 YRR     -0.924833
      2 P           4.8340    0.1790   -3.7510 p5        1 YRR      1.314900
      3 OP1         4.7460    0.8750   -5.0770 o         1 YRR     -0.924833
      4 OP2         4.4700    0.9990   -2.5350 o         1 YRR     -0.924833
      5 O5'         3.4580   -0.8960   -3.8130 os        1 YRR     -0.570200
      6 C5'         3.4420   -1.8260   -2.8080 c3        1 YRR      0.229400
      7 C4'         2.1190   -1.7110   -2.0000 c3        1 YRR      0.074500
      8 N4'         2.0910   -2.4720   -0.7410 n3        1 YRR     -0.804200
      9 C3'         1.8280   -0.2160   -1.6850 c3        1 YRR      0.081100
     10 O3'         0.8190    0.2780   -2.5550 oh        1 YRR     -0.650800
     11 C2'         1.3000   -0.1930   -0.2480 c3        1 YRR     -0.098400
     12 C1'         1.4730   -1.6260    0.2790 c3        1 YRR      0.155800
     13 HC51        3.4720   -2.8730   -3.2380 h1        1 YRR     -0.007800
     14 HC52        4.3290   -1.6970   -2.1230 h1        1 YRR     -0.007800
     15 HC4         1.2810   -2.1120   -2.6370 h1        1 YRR      0.037700
     16 HN4         3.0360   -2.6830   -0.4690 hn        1 YRR      0.335800
     17 HC3         2.7890    0.3940   -1.8270 h1        1 YRR      0.188700
     18 HO3'        1.2720    0.3820   -3.4050 ho        1 YRR      0.434000
     19 HC21        0.2270    0.1140   -0.2220 hc        1 YRR      0.029200
     20 HC22        1.8890    0.5290    0.3660 hc        1 YRR      0.029200
     21 HC11        2.0680   -1.6270    1.2320 h1        1 YRR      0.001700
     22 HC12        0.4670   -2.0700    0.5160 h1        1 YRR      0.001700
@<TRIPOS>BOND
     1    1    2 1   
     2    2    3 1   
     3    2    4 1   
     4    2    5 1   
     5    5    6 1   
     6    6    7 1   
     7    6   13 1   
     8    6   14 1   
     9    7    8 1   
    10    7    9 1   
    11    7   15 1   
    12    8   12 1   
    13    8   16 1   
    14    9   10 1   
    15    9   11 1   
    16    9   17 1   
    17   10   18 1   
    18   11   12 1   
    19   11   19 1   
    20   11   20 1   
    21   12   21 1   
    22   12   22 1   
@<TRIPOS>SUBSTRUCTURE
     1 YRR         1 TEMP              0 ****  ****    0 ROOT
