@<TRIPOS>MOLECULE
YRZ
   38    41     1     0     0
SMALL
bcc


@<TRIPOS>ATOM
      1 N19         0.2440    1.1090    0.2790 n4        1 YRZ     -0.748700
      2 C6          1.4750    0.2520    0.1060 c3        1 YRZ      0.117500
      3 C11         2.3950    0.3710    1.3260 c3        1 YRZ     -0.104400
      4 C10         3.6200   -0.4950    1.1040 c3        1 YRZ     -0.078400
      5 C9          3.2350   -1.9380    0.7820 c3        1 YRZ      0.152800
      6 N8          2.2820   -2.0270   -0.3070 n3        1 YRZ     -0.822200
      7 C7          1.0910   -1.2370   -0.1070 c3        1 YRZ      0.163800
      8 C17        -0.5080    1.2980   -0.9860 cc        1 YRZ      0.579200
      9 C1         -1.7300    0.6040   -1.1370 cc        1 YRZ     -0.418600
     10 C5         -2.4790   -0.3430   -0.2640 c3        1 YRZ     -0.020100
     11 C4         -3.7450   -0.6910   -1.1090 c3        1 YRZ      0.214800
     12 N3         -3.6260    0.0510   -2.3620 nh        1 YRZ     -0.740600
     13 N18         0.0170    2.1320   -1.8950 nd        1 YRZ     -0.671000
     14 C13        -0.6970    2.3100   -3.0540 cd        1 YRZ      0.391500
     15 C14        -0.4620    3.0910   -4.2030 cc        1 YRZ     -0.264600
     16 C15        -1.5920    2.8450   -5.0710 cc        1 YRZ      0.409500
     17 N16        -2.4800    1.9780   -4.5250 nd        1 YRZ     -0.528100
     18 N12        -1.9780    1.6390   -3.3240 na        1 YRZ      0.004200
     19 C2         -2.4750    0.7910   -2.3530 cd        1 YRZ      0.357300
     20 H1         -0.3900    0.6710    0.9570 hn        1 YRZ      0.460300
     21 H2          2.0180    0.6350   -0.8120 hx        1 YRZ      0.143700
     22 H3          2.7170    1.4360    1.4760 hc        1 YRZ      0.062700
     23 H4          1.8590    0.0330    2.2520 hc        1 YRZ      0.062700
     24 H5          4.2380   -0.0710    0.2700 hc        1 YRZ      0.076700
     25 H6          4.2490   -0.4890    2.0330 hc        1 YRZ      0.076700
     26 H7          2.8460   -2.4240    1.7260 h1        1 YRZ      0.055700
     27 H8          4.1580   -2.5000    0.4610 h1        1 YRZ      0.055700
     28 H9          2.0460   -2.9790   -0.5140 hn        1 YRZ      0.400800
     29 H11         0.4500   -1.3320   -1.0290 h1        1 YRZ      0.044700
     30 H12         0.4800   -1.5750    0.7840 h1        1 YRZ      0.044700
     31 H13        -1.8880   -1.2690   -0.0490 hc        1 YRZ      0.061700
     32 H14        -4.6830   -0.3810   -0.5740 h1        1 YRZ      0.080200
     33 H15        -4.3100    0.0480   -3.0780 hn        1 YRZ      0.495800
     34 H16         0.3870    3.7400   -4.3980 ha        1 YRZ      0.202000
     35 H17        -1.7620    3.2800   -6.0620 h4        1 YRZ      0.081800
     36 H10        -2.7800    0.1250    0.7060 hc        1 YRZ      0.061700
     37 H18        -3.7910   -1.7920   -1.3300 h1        1 YRZ      0.080200
     38 H192        0.5400    2.0270    0.6400 hn        1 YRZ      0.460300
@<TRIPOS>BOND
     1    1    2 1   
     2    1    8 1   
     3    1   20 1   
     4    1   38 1   
     5    2    3 1   
     6    2    7 1   
     7    2   21 1   
     8    3    4 1   
     9    3   22 1   
    10    3   23 1   
    11    4    5 1   
    12    4   24 1   
    13    4   25 1   
    14    5    6 1   
    15    5   26 1   
    16    5   27 1   
    17    6    7 1   
    18    6   28 1   
    19    7   29 1   
    20    7   30 1   
    21    8    9 1   
    22    8   13 2   
    23    9   10 1   
    24    9   19 2   
    25   10   11 1   
    26   10   31 1   
    27   10   36 1   
    28   11   12 1   
    29   11   32 1   
    30   11   37 1   
    31   12   19 1   
    32   12   33 1   
    33   13   14 1   
    34   14   15 2   
    35   14   18 1   
    36   15   16 1   
    37   15   34 1   
    38   16   17 2   
    39   16   35 1   
    40   17   18 1   
    41   18   19 1   
@<TRIPOS>SUBSTRUCTURE
     1 YRZ         1 TEMP              0 ****  ****    0 ROOT
