@<TRIPOS>MOLECULE
YRZ
   37    40     1     0     0
SMALL
bcc


@<TRIPOS>ATOM
      1 N19         0.0690    0.2520    0.0390 nu        1 YRZ     -0.831900
      2 C6          1.5070    0.0650    0.0660 c3        1 YRZ      0.205500
      3 C11         2.0200    0.0200    1.5160 c3        1 YRZ     -0.083400
      4 C10         3.5240   -0.1470    1.5230 c3        1 YRZ     -0.077400
      5 C9          3.9440   -1.3910    0.7420 c3        1 YRZ      0.161800
      6 N8          3.4010   -1.4160   -0.6010 n7        1 YRZ     -0.815200
      7 C7          1.9680   -1.2300   -0.6650 c3        1 YRZ      0.136800
      8 C17        -0.6030    0.6260   -1.1290 cc        1 YRZ      0.722200
      9 C1         -2.0410    0.5240   -1.1240 cc        1 YRZ     -0.385600
     10 C5         -2.9720   -0.0010   -0.0840 c3        1 YRZ     -0.014100
     11 C4         -4.3760    0.2060   -0.7270 c3        1 YRZ      0.175800
     12 N3         -4.1860    0.9370   -1.9870 nu        1 YRZ     -0.706600
     13 N18         0.0590    1.1270   -2.2000 nd        1 YRZ     -0.737000
     14 C13        -0.6810    1.5650   -3.2620 cd        1 YRZ      0.434500
     15 C14        -0.3080    2.1270   -4.5080 cc        1 YRZ     -0.351600
     16 C15        -1.5420    2.3610   -5.2080 cc        1 YRZ      0.392500
     17 N16        -2.6290    1.9860   -4.4840 nd        1 YRZ     -0.582100
     18 N12        -2.1430    1.5090   -3.3220 na        1 YRZ      0.012200
     19 C2         -2.7960    1.0010   -2.2170 cd        1 YRZ      0.265300
     20 H1         -0.4430   -0.3990    0.5960 hn        1 YRZ      0.408800
     21 H2          1.9840    0.9510   -0.4500 h1        1 YRZ      0.104700
     22 H3          1.5440   -0.8330    2.0670 hc        1 YRZ      0.045700
     23 H4          1.7440    0.9670    2.0480 hc        1 YRZ      0.045700
     24 H5          4.0070    0.7610    1.0760 hc        1 YRZ      0.051700
     25 H6          3.8890   -0.2460    2.5770 hc        1 YRZ      0.051700
     26 H7          3.6400   -2.3010    1.3400 h1        1 YRZ      0.027700
     27 H8          5.0660   -1.4060    0.6490 h1        1 YRZ      0.027700
     28 H9          3.6550   -2.2700   -1.0610 hn        1 YRZ      0.366800
     29 H11         1.4050   -2.1060   -0.2250 h1        1 YRZ      0.033700
     30 H12         1.6910   -1.1510   -1.7540 h1        1 YRZ      0.033700
     31 H13        -2.8930    0.5750    0.8710 hc        1 YRZ      0.056200
     32 H14        -4.8800   -0.7820   -0.8980 h1        1 YRZ      0.055700
     33 H15        -4.7690    0.6910   -2.7560 hn        1 YRZ      0.428800
     34 H16         0.6980    2.3330   -4.8500 ha        1 YRZ      0.179000
     35 H17        -1.6540    2.7890   -6.2070 h4        1 YRZ      0.049800
     36 H10        -2.7880   -1.0810    0.1360 hc        1 YRZ      0.056200
     37 H18        -5.0270    0.8380   -0.0670 h1        1 YRZ      0.055700
@<TRIPOS>BOND
     1    1    2 1   
     2    1    8 1   
     3    1   20 1   
     4    2    3 1   
     5    2    7 1   
     6    2   21 1   
     7    3    4 1   
     8    3   22 1   
     9    3   23 1   
    10    4    5 1   
    11    4   24 1   
    12    4   25 1   
    13    5    6 1   
    14    5   26 1   
    15    5   27 1   
    16    6    7 1   
    17    6   28 1   
    18    7   29 1   
    19    7   30 1   
    20    8    9 1   
    21    8   13 2   
    22    9   10 1   
    23    9   19 2   
    24   10   11 1   
    25   10   31 1   
    26   10   36 1   
    27   11   12 1   
    28   11   32 1   
    29   11   37 1   
    30   12   19 1   
    31   12   33 1   
    32   13   14 1   
    33   14   15 2   
    34   14   18 1   
    35   15   16 1   
    36   15   34 1   
    37   16   17 2   
    38   16   35 1   
    39   17   18 1   
    40   18   19 1   
@<TRIPOS>SUBSTRUCTURE
     1 YRZ         1 TEMP              0 ****  ****    0 ROOT
