@<TRIPOS>MOLECULE
YRZ
   37    35     1     0     0
SMALL
bcc


@<TRIPOS>ATOM
      1 N19         0.0340   -0.4750    0.8830 n3        1 YRZ     -0.273000
      2 C6          1.4950   -0.6740    0.7130 c3        1 YRZ      0.005000
      3 C11         2.1870   -0.1760    1.9080 c3        1 YRZ     -0.187000
      4 C10         3.6310   -0.4960    1.8950 c3        1 YRZ     -0.153000
      5 C9          3.8940   -1.9720    1.6390 c3        1 YRZ     -0.076000
      6 N8          3.2000   -2.4660    0.4530 n3        1 YRZ     -0.297000
      7 C7          1.7670   -2.1520    0.4600 c3        1 YRZ     -0.075000
      8 C17        -0.7640    0.1270   -0.2150 c2        1 YRZ      0.200000
      9 C1         -2.1230    0.3920   -0.1780 c2        1 YRZ     -0.309000
     10 C5         -3.2180   -0.1140    0.6920 c3        1 YRZ     -0.100000
     11 C4         -4.4540    0.5000    0.2520 c3        1 YRZ     -0.062000
     12 N3         -4.1420    1.4090   -0.7840 n3        1 YRZ     -0.262000
     13 N18         0.0080    0.6950   -1.1640 n1        1 YRZ     -0.212000
     14 C13        -0.5650    1.5570   -2.1150 c1        1 YRZ      0.082000
     15 C14        -0.0240    2.2430   -3.1880 c1        1 YRZ     -0.266000
     16 C15        -1.0450    2.9310   -3.8110 c1        1 YRZ     -0.111000
     17 N16        -2.1990    2.6750   -3.1370 n2        1 YRZ     -0.114000
     18 N12        -1.9010    1.8200   -2.0810 n2        1 YRZ     -0.103000
     19 C2         -2.6880    1.2450   -1.1210 c1        1 YRZ      0.206000
     20 H1         -0.3620   -0.6530    1.6950 hn        1 YRZ      0.202000
     21 H2          1.7940   -0.1650   -0.0570 h1        1 YRZ      0.144000
     22 H3          1.7780   -0.5810    2.7060 hc        1 YRZ      0.088000
     23 H4          2.0790    0.7910    1.9540 hc        1 YRZ      0.088000
     24 H5          4.0660    0.0310    1.1920 hc        1 YRZ      0.091500
     25 H6          4.0190   -0.2510    2.7630 hc        1 YRZ      0.091500
     26 H7          3.5960   -2.4840    2.4130 h1        1 YRZ      0.067500
     27 H8          4.8660   -2.1080    1.5210 h1        1 YRZ      0.067500
     28 H9          3.3140   -3.3680    0.3880 hn        1 YRZ      0.161000
     29 H11         1.3310   -2.6800    1.1640 h1        1 YRZ      0.070500
     30 H12         1.3840   -2.4010   -0.4040 h1        1 YRZ      0.070500
     31 H13        -3.2840   -1.0860    0.6100 hc        1 YRZ      0.096000
     32 H14        -4.8690    0.9750    0.9960 h1        1 YRZ      0.095000
     33 H15        -4.6520    1.2170   -1.5250 hn        1 YRZ      0.224000
     34 H16         0.9100    2.2420   -3.4550 DU        1 YRZ      0.178500
     35 H17        -0.9530    3.5150   -4.5970 DU        1 YRZ      0.178500
     36 H10        -3.0410    0.1280    1.6210 hc        1 YRZ      0.096000
     37 H18        -5.0650   -0.1900   -0.0840 h1        1 YRZ      0.095000
@<TRIPOS>BOND
     1    1    2 1   
     2    1    8 1   
     3    1   20 1   
     4    2    3 1   
     5    2    7 1   
     6    2   21 1   
     7    3    4 1   
     8    3   22 1   
     9    3   23 1   
    10    4    5 1   
    11    4   24 1   
    12    4   25 1   
    13    5    6 1   
    14    5   26 1   
    15    5   27 1   
    16    6    7 1   
    17    6   28 1   
    18    7   29 1   
    19    7   30 1   
    20    8    9 1   
    21    8   13 1   
    22    9   10 1   
    23    9   19 1   
    24   10   11 1   
    25   10   31 1   
    26   10   36 1   
    27   11   12 1   
    28   11   32 1   
    29   11   37 1   
    30   12   19 1   
    31   12   33 1   
    32   14   18 1   
    33   15   16 1   
    34   16   17 1   
    35   17   18 1   
@<TRIPOS>SUBSTRUCTURE
     1 YRZ         1 TEMP              0 ****  ****    0 ROOT
