@<TRIPOS>MOLECULE
YRZ
   37    40     1     0     0
SMALL
bcc


@<TRIPOS>ATOM
      1 N19         1.1300    0.9370   -0.4120 nh        1 YRZ     -0.824900
      2 C6          2.3710    0.1860   -0.3770 c3        1 YRZ      0.166500
      3 C11         3.5280    1.0150   -0.9640 c3        1 YRZ     -0.082400
      4 C10         4.8060    0.2040   -0.9530 c3        1 YRZ     -0.114400
      5 C9          5.1190   -0.3040    0.4550 c3        1 YRZ      0.148800
      6 N8          4.0310   -1.0040    1.1110 n3        1 YRZ     -0.794200
      7 C7          2.7800   -0.2820    1.0520 c3        1 YRZ      0.125800
      8 C17        -0.1040    0.3070   -0.2100 cc        1 YRZ      0.721200
      9 C1         -1.2490    1.1560    0.0040 cc        1 YRZ     -0.382600
     10 C5         -1.3470    2.6390    0.1270 c3        1 YRZ     -0.014100
     11 C4         -2.8740    2.8770    0.3280 c3        1 YRZ      0.175800
     12 N3         -3.5200    1.5620    0.4390 nh        1 YRZ     -0.707600
     13 N18        -0.2340   -1.0400   -0.2890 nd        1 YRZ     -0.744000
     14 C13        -1.4940   -1.5650   -0.2030 cd        1 YRZ      0.434500
     15 C14        -1.9690   -2.8970   -0.2760 cc        1 YRZ     -0.353600
     16 C15        -3.3950   -2.8050   -0.1130 cc        1 YRZ      0.393500
     17 N16        -3.8160   -1.5240    0.0520 nd        1 YRZ     -0.581100
     18 N12        -2.7030   -0.7670    0.0030 na        1 YRZ      0.012200
     19 C2         -2.5390    0.5980    0.1290 cd        1 YRZ      0.265300
     20 H1          1.1850    1.8380    0.0160 hn        1 YRZ      0.409800
     21 H2          2.2350   -0.7290   -1.0270 h1        1 YRZ      0.087700
     22 H3          3.2850    1.3210   -2.0140 hc        1 YRZ      0.047200
     23 H4          3.6730    1.9490   -0.3610 hc        1 YRZ      0.047200
     24 H5          4.7120   -0.6610   -1.6590 hc        1 YRZ      0.048200
     25 H6          5.6570    0.8400   -1.3100 hc        1 YRZ      0.048200
     26 H7          6.0080   -0.9920    0.4140 h1        1 YRZ      0.052700
     27 H8          5.3920    0.5750    1.1040 h1        1 YRZ      0.052700
     28 H9          3.9160   -1.9160    0.7040 hn        1 YRZ      0.356800
     29 H11         2.8770    0.6230    1.7160 h1        1 YRZ      0.060200
     30 H12         1.9720   -0.9440    1.4710 h1        1 YRZ      0.060200
     31 H13        -0.7760    3.0210    1.0080 hc        1 YRZ      0.057200
     32 H14        -3.0680    3.4290    1.2850 h1        1 YRZ      0.056200
     33 H15        -4.4180    1.4540    0.0240 hn        1 YRZ      0.429800
     34 H16        -1.3770   -3.7910   -0.4250 ha        1 YRZ      0.178000
     35 H17        -4.1070   -3.6330   -0.1150 h4        1 YRZ      0.049800
     36 H10        -0.9770    3.1580   -0.7900 hc        1 YRZ      0.057200
     37 H18        -3.2950    3.4700   -0.5260 h1        1 YRZ      0.056200
@<TRIPOS>BOND
     1    1    2 1   
     2    1    8 1   
     3    1   20 1   
     4    2    3 1   
     5    2    7 1   
     6    2   21 1   
     7    3    4 1   
     8    3   22 1   
     9    3   23 1   
    10    4    5 1   
    11    4   24 1   
    12    4   25 1   
    13    5    6 1   
    14    5   26 1   
    15    5   27 1   
    16    6    7 1   
    17    6   28 1   
    18    7   29 1   
    19    7   30 1   
    20    8    9 1   
    21    8   13 2   
    22    9   10 1   
    23    9   19 2   
    24   10   11 1   
    25   10   31 1   
    26   10   36 1   
    27   11   12 1   
    28   11   32 1   
    29   11   37 1   
    30   12   19 1   
    31   12   33 1   
    32   13   14 1   
    33   14   15 2   
    34   14   18 1   
    35   15   16 1   
    36   15   34 1   
    37   16   17 2   
    38   16   35 1   
    39   17   18 1   
    40   18   19 1   
@<TRIPOS>SUBSTRUCTURE
     1 YRZ         1 TEMP              0 ****  ****    0 ROOT
