@<TRIPOS>MOLECULE
YS2
   65    67     1     0     0
SMALL
bcc


@<TRIPOS>ATOM
      1 O3          0.3640    0.2840   -0.6180 oh        1 YS2     -0.601800
      2 C24         1.7260   -0.0610   -0.4190 c3        1 YS2      0.131400
      3 C23         2.0110    0.0850    1.0660 c3        1 YS2     -0.084400
      4 C22         3.4530   -0.2610    1.3640 c3        1 YS2     -0.080400
      5 C20         3.7680   -0.1480    2.8550 c3        1 YS2     -0.054700
      6 C21         3.2730   -1.3910    3.5690 c3        1 YS2     -0.092100
      7 C17         5.2640    0.0650    3.0620 c3        1 YS2     -0.054700
      8 C13         5.7490    0.2200    4.5230 c3        1 YS2     -0.040000
      9 C18         4.8000    1.1030    5.3160 c3        1 YS2     -0.083100
     10 C12         6.0270   -1.0770    5.2670 c3        1 YS2     -0.067400
     11 C11         6.7120   -0.8010    6.5940 c3        1 YS2     -0.072400
     12 C9          7.9380    0.0900    6.4920 c3        1 YS2     -0.045200
     13 C16         5.7670    1.3450    2.3640 c3        1 YS2     -0.079400
     14 C15         6.8350    1.9780    3.2590 c3        1 YS2     -0.073400
     15 C14         7.1210    0.9210    4.3140 c3        1 YS2     -0.036500
     16 C8          7.7440    1.2840    5.6130 c2        1 YS2     -0.080400
     17 C7          8.1400    2.5290    5.9250 ce        1 YS2     -0.146000
     18 C6          8.8160    2.9030    7.1490 ce        1 YS2     -0.125000
     19 C5          8.7010    4.0880    7.7760 c2        1 YS2     -0.099400
     20 C4          9.4550    4.3520    9.0360 c3        1 YS2     -0.054200
     21 C10         7.8080    5.1870    7.3280 c3        1 YS2     -0.054200
     22 C1          8.5570    6.5220    7.2790 c3        1 YS2      0.184300
     23 O1          7.6670    7.5840    6.9500 oh        1 YS2     -0.599300
     24 C2          9.1950    6.8140    8.6030 c2        1 YS2     -0.171400
     25 C28         8.9730    7.9240    9.3070 c2        1 YS2     -0.174000
     26 C3         10.1210    5.7290    9.0760 c3        1 YS2      0.184300
     27 O2         11.2970    5.6460    8.2760 oh        1 YS2     -0.599300
     28 H1          0.1910    0.1860   -1.5610 ho        1 YS2      0.398000
     29 H2          1.9060   -1.1190   -0.7540 h1        1 YS2      0.019700
     30 H3          2.3850    0.6240   -1.0180 h1        1 YS2      0.019700
     31 H4          1.3150   -0.5810    1.6400 hc        1 YS2      0.055700
     32 H5          1.7910    1.1390    1.3810 hc        1 YS2      0.055700
     33 H6          4.1160    0.4260    0.7750 hc        1 YS2      0.040700
     34 H7          3.6720   -1.3060    1.0190 hc        1 YS2      0.040700
     35 H8          3.2200    0.7460    3.2680 hc        1 YS2      0.053700
     36 H9          3.1990   -1.2130    4.6680 hc        1 YS2      0.035367
     37 H10         3.9650   -2.2500    3.3920 hc        1 YS2      0.035367
     38 H11         2.2570   -1.6750    3.1980 hc        1 YS2      0.035367
     39 H12         5.7990   -0.8210    2.6190 hc        1 YS2      0.046700
     40 H13         4.4970    1.9910    4.7090 hc        1 YS2      0.038033
     41 H14         3.8820    0.5340    5.6000 hc        1 YS2      0.038033
     42 H15         5.2930    1.4700    6.2480 hc        1 YS2      0.038033
     43 H16         5.0720   -1.6320    5.4570 hc        1 YS2      0.042700
     44 H17         6.6780   -1.7370    4.6340 hc        1 YS2      0.042700
     45 H18         5.9720   -0.3260    7.2920 hc        1 YS2      0.041200
     46 H19         7.0190   -1.7780    7.0530 hc        1 YS2      0.041200
     47 H20         8.2320    0.4060    7.5280 hc        1 YS2      0.048200
     48 H21         8.7930   -0.5080    6.0690 hc        1 YS2      0.048200
     49 H22         4.9250    2.0630    2.2050 hc        1 YS2      0.042200
     50 H23         6.1960    1.0930    1.3630 hc        1 YS2      0.042200
     51 H24         7.7550    2.2370    2.6810 hc        1 YS2      0.043700
     52 H25         6.4460    2.9180    3.7240 hc        1 YS2      0.043700
     53 H26         7.8160    0.1630    3.8390 hc        1 YS2      0.055700
     54 H27         7.9730    3.3460    5.2000 ha        1 YS2      0.124000
     55 H28         9.4900    2.1350    7.5730 ha        1 YS2      0.126000
     56 H29        10.2520    3.5760    9.1880 hc        1 YS2      0.058700
     57 H30         8.7390    4.2920    9.9000 hc        1 YS2      0.058700
     58 H31         6.9470    5.2790    8.0440 hc        1 YS2      0.058700
     59 H32         7.3760    4.9770    6.3140 hc        1 YS2      0.058700
     60 H33         9.3710    6.4680    6.4960 h1        1 YS2      0.044700
     61 H34         7.2390    7.3340    6.1230 ho        1 YS2      0.403000
     62 H35         9.4590    8.1160   10.2730 ha        1 YS2      0.124500
     63 H36         8.2860    8.7070    8.9560 ha        1 YS2      0.124500
     64 H37        10.4410    5.9430   10.1390 h1        1 YS2      0.044700
     65 H38        11.6060    6.5480    8.1350 ho        1 YS2      0.403000
@<TRIPOS>BOND
     1    1    2 1   
     2    1   28 1   
     3    2    3 1   
     4    2   29 1   
     5    2   30 1   
     6    3    4 1   
     7    3   31 1   
     8    3   32 1   
     9    4    5 1   
    10    4   33 1   
    11    4   34 1   
    12    5    6 1   
    13    5    7 1   
    14    5   35 1   
    15    6   36 1   
    16    6   37 1   
    17    6   38 1   
    18    7    8 1   
    19    7   13 1   
    20    7   39 1   
    21    8    9 1   
    22    8   10 1   
    23    8   15 1   
    24    9   40 1   
    25    9   41 1   
    26    9   42 1   
    27   10   11 1   
    28   10   43 1   
    29   10   44 1   
    30   11   12 1   
    31   11   45 1   
    32   11   46 1   
    33   12   16 1   
    34   12   47 1   
    35   12   48 1   
    36   13   14 1   
    37   13   49 1   
    38   13   50 1   
    39   14   15 1   
    40   14   51 1   
    41   14   52 1   
    42   15   16 1   
    43   15   53 1   
    44   16   17 2   
    45   17   18 1   
    46   17   54 1   
    47   18   19 2   
    48   18   55 1   
    49   19   20 1   
    50   19   21 1   
    51   20   26 1   
    52   20   56 1   
    53   20   57 1   
    54   21   22 1   
    55   21   58 1   
    56   21   59 1   
    57   22   23 1   
    58   22   24 1   
    59   22   60 1   
    60   23   61 1   
    61   24   25 2   
    62   24   26 1   
    63   25   62 1   
    64   25   63 1   
    65   26   27 1   
    66   26   64 1   
    67   27   65 1   
@<TRIPOS>SUBSTRUCTURE
     1 YS2         1 TEMP              0 ****  ****    0 ROOT
