@<TRIPOS>MOLECULE
YS2
   65    67     1     0     0
SMALL
bcc


@<TRIPOS>ATOM
      1 O3         -8.1770   -2.9200   -0.4020 oh        1 YS2     -0.601800
      2 C24        -7.4420   -2.0570    0.4520 c3        1 YS2      0.131400
      3 C23        -6.3120   -1.4680   -0.3760 c3        1 YS2     -0.084400
      4 C22        -5.4780   -0.5250    0.4650 c3        1 YS2     -0.080400
      5 C20        -4.3410    0.1010   -0.3410 c3        1 YS2     -0.054700
      6 C21        -4.8870    1.2440   -1.1750 c3        1 YS2     -0.092100
      7 C17        -3.2270    0.5630    0.5920 c3        1 YS2     -0.054700
      8 C13        -1.9860    1.2050   -0.0710 c3        1 YS2     -0.040000
      9 C18        -1.5810    0.4350   -1.3170 c3        1 YS2     -0.083100
     10 C12        -2.0920    2.6930   -0.3670 c3        1 YS2     -0.067400
     11 C11        -0.7470    3.2540   -0.7950 c3        1 YS2     -0.072400
     12 C9          0.3980    2.9250    0.1480 c3        1 YS2     -0.044200
     13 C16        -2.6470   -0.6020    1.4200 c3        1 YS2     -0.079400
     14 C15        -1.1410   -0.3720    1.5630 c3        1 YS2     -0.073400
     15 C14        -0.9240    1.0460    1.0540 c3        1 YS2     -0.035500
     16 C8          0.4150    1.4990    0.5990 c2        1 YS2     -0.081400
     17 C7          1.5160    0.7320    0.6520 ce        1 YS2     -0.146000
     18 C6          2.8480    1.1630    0.2870 ce        1 YS2     -0.122000
     19 C5          3.8140    0.3750   -0.2190 c2        1 YS2     -0.105400
     20 C4          5.1510    0.9450   -0.5570 c3        1 YS2     -0.035200
     21 C10         3.6350   -1.0670   -0.5330 c3        1 YS2     -0.035200
     22 C1          4.7790   -1.8930    0.0610 c3        1 YS2      0.183300
     23 O1          4.5320   -3.2420   -0.3110 oh        1 YS2     -0.593800
     24 C2          6.1000   -1.3740   -0.4260 c2        1 YS2     -0.194400
     25 C28         6.9900   -2.1020   -1.1000 c2        1 YS2     -0.198000
     26 C3          6.3270    0.0770   -0.1040 c3        1 YS2      0.183300
     27 O2          6.4870    0.2890    1.2950 oh        1 YS2     -0.593800
     28 H1         -8.8890   -3.2920    0.1310 ho        1 YS2      0.398000
     29 H2         -8.1120   -1.2440    0.8420 h1        1 YS2      0.019700
     30 H3         -7.0340   -2.6370    1.3230 h1        1 YS2      0.019700
     31 H4         -5.6750   -2.3000   -0.7730 hc        1 YS2      0.055200
     32 H5         -6.7460   -0.9330   -1.2600 hc        1 YS2      0.055200
     33 H6         -6.1280    0.2890    0.8810 hc        1 YS2      0.040700
     34 H7         -5.0650   -1.0940    1.3390 hc        1 YS2      0.040700
     35 H8         -3.9240   -0.6830   -1.0360 hc        1 YS2      0.053700
     36 H9         -4.1750    1.5130   -1.9920 hc        1 YS2      0.035367
     37 H10        -5.8570    0.9540   -1.6470 hc        1 YS2      0.035367
     38 H11        -5.0600    2.1470   -0.5410 hc        1 YS2      0.035367
     39 H12        -3.6670    1.3220    1.2970 hc        1 YS2      0.045700
     40 H13        -2.2590    0.6830   -2.1680 hc        1 YS2      0.038033
     41 H14        -0.5340    0.6890   -1.6110 hc        1 YS2      0.038033
     42 H15        -1.6320   -0.6650   -1.1280 hc        1 YS2      0.038033
     43 H16        -2.8400    2.8780   -1.1800 hc        1 YS2      0.041700
     44 H17        -2.4530    3.2300    0.5490 hc        1 YS2      0.041700
     45 H18        -0.5000    2.8640   -1.8190 hc        1 YS2      0.040700
     46 H19        -0.8300    4.3700   -0.8780 hc        1 YS2      0.040700
     47 H20         1.3610    3.1910   -0.3610 hc        1 YS2      0.047200
     48 H21         0.3150    3.5710    1.0660 hc        1 YS2      0.047200
     49 H22        -3.1340   -0.6380    2.4250 hc        1 YS2      0.041700
     50 H23        -2.8390   -1.5790    0.9110 hc        1 YS2      0.041700
     51 H24        -0.8070   -0.4800    2.6230 hc        1 YS2      0.045200
     52 H25        -0.5730   -1.1130    0.9460 hc        1 YS2      0.045200
     53 H26        -1.2200    1.7450    1.8950 hc        1 YS2      0.054700
     54 H27         1.4320   -0.3070    1.0220 ha        1 YS2      0.128000
     55 H28         3.0670    2.2330    0.4640 ha        1 YS2      0.124000
     56 H29         5.2190    1.0570   -1.6730 hc        1 YS2      0.062950
     57 H30         5.2740    1.9610   -0.0960 hc        1 YS2      0.062950
     58 H31         2.6660   -1.4660   -0.1360 hc        1 YS2      0.062950
     59 H32         3.6200   -1.2090   -1.6470 hc        1 YS2      0.062950
     60 H33         4.7620   -1.8050    1.1880 h1        1 YS2      0.044700
     61 H34         5.2110   -3.7760    0.1170 ho        1 YS2      0.400000
     62 H35         7.9490   -1.6920   -1.4430 ha        1 YS2      0.119500
     63 H36         6.8080   -3.1520   -1.3670 ha        1 YS2      0.119500
     64 H37         7.2640    0.4390   -0.6230 h1        1 YS2      0.044700
     65 H38         7.1460   -0.3450    1.6010 ho        1 YS2      0.400000
@<TRIPOS>BOND
     1    1    2 1   
     2    1   28 1   
     3    2    3 1   
     4    2   29 1   
     5    2   30 1   
     6    3    4 1   
     7    3   31 1   
     8    3   32 1   
     9    4    5 1   
    10    4   33 1   
    11    4   34 1   
    12    5    6 1   
    13    5    7 1   
    14    5   35 1   
    15    6   36 1   
    16    6   37 1   
    17    6   38 1   
    18    7    8 1   
    19    7   13 1   
    20    7   39 1   
    21    8    9 1   
    22    8   10 1   
    23    8   15 1   
    24    9   40 1   
    25    9   41 1   
    26    9   42 1   
    27   10   11 1   
    28   10   43 1   
    29   10   44 1   
    30   11   12 1   
    31   11   45 1   
    32   11   46 1   
    33   12   16 1   
    34   12   47 1   
    35   12   48 1   
    36   13   14 1   
    37   13   49 1   
    38   13   50 1   
    39   14   15 1   
    40   14   51 1   
    41   14   52 1   
    42   15   16 1   
    43   15   53 1   
    44   16   17 2   
    45   17   18 1   
    46   17   54 1   
    47   18   19 2   
    48   18   55 1   
    49   19   20 1   
    50   19   21 1   
    51   20   26 1   
    52   20   56 1   
    53   20   57 1   
    54   21   22 1   
    55   21   58 1   
    56   21   59 1   
    57   22   23 1   
    58   22   24 1   
    59   22   60 1   
    60   23   61 1   
    61   24   25 2   
    62   24   26 1   
    63   25   62 1   
    64   25   63 1   
    65   26   27 1   
    66   26   64 1   
    67   27   65 1   
@<TRIPOS>SUBSTRUCTURE
     1 YS2         1 TEMP              0 ****  ****    0 ROOT
