@<TRIPOS>MOLECULE
YS3
   71    73     1     0     0
SMALL
bcc


@<TRIPOS>ATOM
      1 OAH        -0.0450   -0.0820   -0.3560 oh        1 YS3     -0.597800
      2 CBA         1.2830   -0.1110    0.1690 c3        1 YS3      0.147800
      3 CAC         1.2430   -0.0170    1.6900 c3        1 YS3     -0.123100
      4 CAD         1.9720   -1.4070   -0.2510 c3        1 YS3     -0.123100
      5 CAP         2.0140    1.0820   -0.4560 c3        1 YS3     -0.064400
      6 CAM         1.4130    2.4130   -0.0590 c3        1 YS3     -0.080400
      7 CAW         2.0180    3.5650   -0.8610 c3        1 YS3     -0.054700
      8 CAB         1.3300    3.6510   -2.2100 c3        1 YS3     -0.091100
      9 CAZ         1.8980    4.8710   -0.0820 c3        1 YS3     -0.053700
     10 CAN         2.6220    4.8010    1.2790 c3        1 YS3     -0.078400
     11 CAQ         3.2550    6.1680    1.5440 c3        1 YS3     -0.073400
     12 CBB         2.6630    7.0740    0.4750 c3        1 YS3     -0.037500
     13 CBC         2.4840    6.1360   -0.7520 c3        1 YS3     -0.040000
     14 CAE         3.8210    5.8310   -1.4060 c3        1 YS3     -0.082100
     15 CAO         1.5600    6.8550   -1.7230 c3        1 YS3     -0.067400
     16 CAK         2.1470    8.1940   -2.1340 c3        1 YS3     -0.072400
     17 CAL         2.5740    9.0740   -0.9710 c3        1 YS3     -0.045200
     18 CAV         3.3320    8.3430    0.0910 c2        1 YS3     -0.079400
     19 CAJ         4.4490    8.8030    0.6780 ce        1 YS3     -0.148000
     20 CAI         5.0840   10.0680    0.3790 ce        1 YS3     -0.124000
     21 CAU         6.4050   10.3160    0.4440 c2        1 YS3     -0.100400
     22 CAS         6.9370   11.6690    0.1110 c3        1 YS3     -0.054200
     23 CAR         7.4300    9.2960    0.7830 c3        1 YS3     -0.054200
     24 CAX         8.3900    9.8150    1.8590 c3        1 YS3      0.184300
     25 OAF         9.4280    8.8710    2.1010 oh        1 YS3     -0.599300
     26 CAT         9.0030   11.1140    1.4320 c2        1 YS3     -0.171400
     27 CAA        10.3170   11.3250    1.3490 c2        1 YS3     -0.174000
     28 CAY         7.9920   12.1740    1.0980 c3        1 YS3      0.184300
     29 OAG         7.2940   12.6280    2.2550 oh        1 YS3     -0.599300
     30 H1         -0.5130   -0.8310    0.0310 ho        1 YS3      0.397000
     31 H2          0.5760    0.8210    2.0030 hc        1 YS3      0.042367
     32 H3          2.2680    0.1650    2.0890 hc        1 YS3      0.042367
     33 H4          0.8500   -0.9660    2.1270 hc        1 YS3      0.042367
     34 H5          1.9780   -1.4920   -1.3630 hc        1 YS3      0.042367
     35 H6          1.4290   -2.2870    0.1700 hc        1 YS3      0.042367
     36 H7          3.0220   -1.4200    0.1220 hc        1 YS3      0.042367
     37 H8          1.9770    0.9660   -1.5710 hc        1 YS3      0.047200
     38 H9          3.0890    1.0370   -0.1400 hc        1 YS3      0.047200
     39 H10         1.5820    2.5740    1.0380 hc        1 YS3      0.050200
     40 H11         0.3030    2.3820   -0.2230 hc        1 YS3      0.050200
     41 H12         3.1110    3.3480   -1.0280 hc        1 YS3      0.047700
     42 H13         1.9440    4.2420   -2.9320 hc        1 YS3      0.035367
     43 H14         0.3290    4.1370   -2.1120 hc        1 YS3      0.035367
     44 H15         1.1830    2.6300   -2.6390 hc        1 YS3      0.035367
     45 H16         0.8040    5.0590    0.1020 hc        1 YS3      0.048700
     46 H17         3.4110    4.0080    1.2640 hc        1 YS3      0.041200
     47 H18         1.8930    4.5430    2.0870 hc        1 YS3      0.041200
     48 H19         4.3680    6.1070    1.4500 hc        1 YS3      0.042700
     49 H20         3.0170    6.5390    2.5710 hc        1 YS3      0.042700
     50 H21         1.6270    7.3640    0.8290 hc        1 YS3      0.056700
     51 H22         4.3830    6.7750   -1.6080 hc        1 YS3      0.037367
     52 H23         3.6700    5.2940   -2.3730 hc        1 YS3      0.037367
     53 H24         4.4440    5.1910   -0.7350 hc        1 YS3      0.037367
     54 H25         1.3960    6.2320   -2.6400 hc        1 YS3      0.042700
     55 H26         0.5600    7.0110   -1.2400 hc        1 YS3      0.042700
     56 H27         1.3870    8.7520   -2.7420 hc        1 YS3      0.040200
     57 H28         3.0340    8.0140   -2.7990 hc        1 YS3      0.040200
     58 H29         3.1830    9.9250   -1.3770 hc        1 YS3      0.047700
     59 H30         1.6580    9.5180   -0.4910 hc        1 YS3      0.047700
     60 H32         4.9270    8.2000    1.4720 ha        1 YS3      0.124000
     61 H33         4.3990   10.8870    0.0940 ha        1 YS3      0.125000
     62 H35         6.1050   12.4220    0.0760 hc        1 YS3      0.058450
     63 H36         7.4130   11.6260   -0.9060 hc        1 YS3      0.058450
     64 H37         6.9590    8.3450    1.1470 hc        1 YS3      0.058450
     65 H38         8.0200    9.0420   -0.1390 hc        1 YS3      0.058450
     66 H39         7.8190    9.9890    2.8190 h1        1 YS3      0.044700
     67 H40         8.9930    8.0380    2.3190 ho        1 YS3      0.403000
     68 H41        11.0470   10.5380    1.5850 ha        1 YS3      0.124500
     69 H42        10.7390   12.2900    1.0380 ha        1 YS3      0.124500
     70 H43         8.5160   13.0650    0.6400 h1        1 YS3      0.044700
     71 H44         7.9530   12.7560    2.9480 ho        1 YS3      0.403000
@<TRIPOS>BOND
     1    1    2 1   
     2    1   30 1   
     3    2    3 1   
     4    2    4 1   
     5    2    5 1   
     6    3   31 1   
     7    3   32 1   
     8    3   33 1   
     9    4   34 1   
    10    4   35 1   
    11    4   36 1   
    12    5    6 1   
    13    5   37 1   
    14    5   38 1   
    15    6    7 1   
    16    6   39 1   
    17    6   40 1   
    18    7    8 1   
    19    7    9 1   
    20    7   41 1   
    21    8   42 1   
    22    8   43 1   
    23    8   44 1   
    24    9   10 1   
    25    9   13 1   
    26    9   45 1   
    27   10   11 1   
    28   10   46 1   
    29   10   47 1   
    30   11   12 1   
    31   11   48 1   
    32   11   49 1   
    33   12   13 1   
    34   12   18 1   
    35   12   50 1   
    36   13   14 1   
    37   13   15 1   
    38   14   51 1   
    39   14   52 1   
    40   14   53 1   
    41   15   16 1   
    42   15   54 1   
    43   15   55 1   
    44   16   17 1   
    45   16   56 1   
    46   16   57 1   
    47   17   18 1   
    48   17   58 1   
    49   17   59 1   
    50   18   19 2   
    51   19   20 1   
    52   19   60 1   
    53   20   21 2   
    54   20   61 1   
    55   21   22 1   
    56   21   23 1   
    57   22   28 1   
    58   22   62 1   
    59   22   63 1   
    60   23   24 1   
    61   23   64 1   
    62   23   65 1   
    63   24   25 1   
    64   24   26 1   
    65   24   66 1   
    66   25   67 1   
    67   26   27 2   
    68   26   28 1   
    69   27   68 1   
    70   27   69 1   
    71   28   29 1   
    72   28   70 1   
    73   29   71 1   
@<TRIPOS>SUBSTRUCTURE
     1 YS3         1 TEMP              0 ****  ****    0 ROOT
