@<TRIPOS>MOLECULE
YS3
   71    73     1     0     0
SMALL
bcc


@<TRIPOS>ATOM
      1 OAH         7.8450   -0.3890   -0.1590 oh        1 YS3     -0.597800
      2 CBA         7.0690   -1.5620    0.0960 c3        1 YS3      0.147800
      3 CAC         6.8270   -2.3180   -1.2040 c3        1 YS3     -0.123100
      4 CAD         7.8070   -2.4590    1.0870 c3        1 YS3     -0.123100
      5 CAP         5.7590   -1.0760    0.7250 c3        1 YS3     -0.064400
      6 CAM         4.9450   -0.2070   -0.2090 c3        1 YS3     -0.080400
      7 CAW         3.7580    0.4340    0.5100 c3        1 YS3     -0.054700
      8 CAB         4.2310    1.6690    1.2530 c3        1 YS3     -0.091100
      9 CAZ         2.6520    0.7640   -0.4870 c3        1 YS3     -0.053700
     10 CAN         2.1460   -0.4930   -1.2260 c3        1 YS3     -0.078400
     11 CAQ         0.6360   -0.3440   -1.4230 c3        1 YS3     -0.073400
     12 CBB         0.3440    1.1010   -1.0440 c3        1 YS3     -0.036500
     13 CBC         1.3660    1.4030    0.0880 c3        1 YS3     -0.040000
     14 CAE         0.9600    0.7260    1.3860 c3        1 YS3     -0.083100
     15 CAO         1.4000    2.9140    0.2560 c3        1 YS3     -0.067400
     16 CAK         0.0220    3.4490    0.6010 c3        1 YS3     -0.072400
     17 CAL        -1.0810    2.9890   -0.3380 c3        1 YS3     -0.044200
     18 CAV        -1.0250    1.5310   -0.6630 c2        1 YS3     -0.079400
     19 CAJ        -2.0910    0.7130   -0.6750 ce        1 YS3     -0.148000
     20 CAI        -3.4500    1.1130   -0.3800 ce        1 YS3     -0.121000
     21 CAU        -4.3940    0.3290    0.1700 c2        1 YS3     -0.106400
     22 CAS        -5.7630    0.8650    0.4260 c3        1 YS3     -0.034200
     23 CAR        -4.1610   -1.0710    0.6130 c3        1 YS3     -0.034200
     24 CAX        -5.2520   -1.9960    0.0660 c3        1 YS3      0.183300
     25 OAF        -4.9580   -3.2960    0.5600 oh        1 YS3     -0.594300
     26 CAT        -6.6070   -1.4980    0.4750 c2        1 YS3     -0.193400
     27 CAA        -7.4830   -2.2050    1.1890 c2        1 YS3     -0.198000
     28 CAY        -6.8880   -0.0910    0.0230 c3        1 YS3      0.183300
     29 OAG        -7.0190   -0.0070   -1.3930 oh        1 YS3     -0.594300
     30 H1          8.6720   -0.6860   -0.5550 ho        1 YS3      0.396000
     31 H2          7.7720   -2.7960   -1.5570 hc        1 YS3      0.042200
     32 H3          6.0590   -3.1120   -1.0470 hc        1 YS3      0.042200
     33 H4          6.4680   -1.6150   -1.9940 hc        1 YS3      0.042200
     34 H5          8.0100   -1.8990    2.0300 hc        1 YS3      0.042200
     35 H6          7.1910   -3.3580    1.3210 hc        1 YS3      0.042200
     36 H7          8.7810   -2.7920    0.6550 hc        1 YS3      0.042200
     37 H8          5.1630   -1.9760    1.0280 hc        1 YS3      0.047700
     38 H9          6.0120   -0.5000    1.6540 hc        1 YS3      0.047700
     39 H10         5.6040    0.5940   -0.6380 hc        1 YS3      0.049700
     40 H11         4.5860   -0.8350   -1.0660 hc        1 YS3      0.049700
     41 H12         3.3540   -0.3040    1.2590 hc        1 YS3      0.047700
     42 H13         4.3710    2.5230    0.5480 hc        1 YS3      0.035033
     43 H14         3.4920    1.9680    2.0350 hc        1 YS3      0.035033
     44 H15         5.2070    1.4700    1.7590 hc        1 YS3      0.035033
     45 H16         3.0790    1.4790   -1.2440 hc        1 YS3      0.047700
     46 H17         2.6610   -0.5910   -2.2130 hc        1 YS3      0.041700
     47 H18         2.3670   -1.4130   -0.6300 hc        1 YS3      0.041700
     48 H19         0.3360   -0.5570   -2.4770 hc        1 YS3      0.044700
     49 H20         0.0840   -1.0540   -0.7580 hc        1 YS3      0.044700
     50 H21         0.6330    1.7380   -1.9350 hc        1 YS3      0.055700
     51 H22         1.6040    1.0760    2.2280 hc        1 YS3      0.037367
     52 H23        -0.1040    0.9580    1.6320 hc        1 YS3      0.037367
     53 H24         1.0630   -0.3830    1.2940 hc        1 YS3      0.037367
     54 H25         2.1170    3.2010    1.0690 hc        1 YS3      0.042700
     55 H26         1.7640    3.3870   -0.6940 hc        1 YS3      0.042700
     56 H27        -0.2370    3.1380    1.6480 hc        1 YS3      0.040200
     57 H28         0.0540    4.5710    0.5890 hc        1 YS3      0.040200
     58 H29        -2.0690    3.2550    0.1230 hc        1 YS3      0.046700
     59 H30        -1.0000    3.5570   -1.3050 hc        1 YS3      0.046700
     60 H32        -1.9520   -0.3480   -0.9510 ha        1 YS3      0.128000
     61 H33        -3.7100    2.1530   -0.6550 ha        1 YS3      0.124000
     62 H35        -5.8670    1.0700    1.5260 hc        1 YS3      0.062950
     63 H36        -5.9170    1.8310   -0.1260 hc        1 YS3      0.062950
     64 H37        -3.1650   -1.4580    0.2750 hc        1 YS3      0.062950
     65 H38        -4.1710   -1.1160    1.7360 hc        1 YS3      0.062950
     66 H39        -5.2080   -2.0050   -1.0630 h1        1 YS3      0.044700
     67 H40        -5.6020   -3.8950    0.1630 ho        1 YS3      0.400000
     68 H41        -7.2630   -3.2190    1.5500 ha        1 YS3      0.119500
     69 H42        -8.4680   -1.8110    1.4720 ha        1 YS3      0.119500
     70 H43        -7.8530    0.2710    0.4860 h1        1 YS3      0.044700
     71 H44        -7.6420   -0.6950   -1.6570 ho        1 YS3      0.400000
@<TRIPOS>BOND
     1    1    2 1   
     2    1   30 1   
     3    2    3 1   
     4    2    4 1   
     5    2    5 1   
     6    3   31 1   
     7    3   32 1   
     8    3   33 1   
     9    4   34 1   
    10    4   35 1   
    11    4   36 1   
    12    5    6 1   
    13    5   37 1   
    14    5   38 1   
    15    6    7 1   
    16    6   39 1   
    17    6   40 1   
    18    7    8 1   
    19    7    9 1   
    20    7   41 1   
    21    8   42 1   
    22    8   43 1   
    23    8   44 1   
    24    9   10 1   
    25    9   13 1   
    26    9   45 1   
    27   10   11 1   
    28   10   46 1   
    29   10   47 1   
    30   11   12 1   
    31   11   48 1   
    32   11   49 1   
    33   12   13 1   
    34   12   18 1   
    35   12   50 1   
    36   13   14 1   
    37   13   15 1   
    38   14   51 1   
    39   14   52 1   
    40   14   53 1   
    41   15   16 1   
    42   15   54 1   
    43   15   55 1   
    44   16   17 1   
    45   16   56 1   
    46   16   57 1   
    47   17   18 1   
    48   17   58 1   
    49   17   59 1   
    50   18   19 2   
    51   19   20 1   
    52   19   60 1   
    53   20   21 2   
    54   20   61 1   
    55   21   22 1   
    56   21   23 1   
    57   22   28 1   
    58   22   62 1   
    59   22   63 1   
    60   23   24 1   
    61   23   64 1   
    62   23   65 1   
    63   24   25 1   
    64   24   26 1   
    65   24   66 1   
    66   25   67 1   
    67   26   27 2   
    68   26   28 1   
    69   27   68 1   
    70   27   69 1   
    71   28   29 1   
    72   28   70 1   
    73   29   71 1   
@<TRIPOS>SUBSTRUCTURE
     1 YS3         1 TEMP              0 ****  ****    0 ROOT
