@<TRIPOS>MOLECULE
YS4
   42    42     1     0     0
SMALL
bcc


@<TRIPOS>ATOM
      1 O5         -4.2500  132.8270  202.6070 o         1 YS4     -0.908833
      2 P2         -5.7050  133.0070  202.9510 p5        1 YS4      0.884900
      3 O6         -6.5920  133.5260  201.8600 o         1 YS4     -0.908833
      4 O7         -6.3000  132.0030  203.8910 o         1 YS4     -0.908833
      5 C13        -5.5880  134.5380  204.0780 c2        1 YS4      0.550000
      6 P1         73.9850-1311.7480-1971.4380 p4        1 YS4      1.451300
      7 O3         73.9790-1311.5240-1969.9810 o         1 YS4     -0.800500
      8 O2         73.9090-1313.1190-1971.9730 o         1 YS4     -0.800500
      9 O4         74.0680-1310.6010-1972.3600 o         1 YS4     -0.849300
     10 N1         -4.4030  135.0120  204.2500 nh        1 YS4     -0.578900
     11 C12        -3.9840  136.1540  205.0330 ca        1 YS4      0.527200
     12 C11        -4.8900  136.8560  205.8190 ca        1 YS4     -0.297300
     13 N2         -2.6330  136.4640  204.9280 nb        1 YS4     -0.910000
     14 C14        -2.2540  137.5340  205.6700 ca        1 YS4      0.417200
     15 C15        -3.0570  138.3010  206.4800 ca        1 YS4     -0.388300
     16 C10        -4.4720  138.0010  206.6090 cp        1 YS4     -0.056000
     17 C9         -5.3250  138.7310  207.4070 cp        1 YS4     -0.094000
     18 C6         -6.7420  138.4400  207.5410 ca        1 YS4     -0.228500
     19 C5         -7.5710  139.1580  208.3510 ca        1 YS4     -0.084500
     20 C8         -4.8770  139.8670  208.1980 ca        1 YS4     -0.228500
     21 C7         -5.7120  140.5820  209.0050 ca        1 YS4     -0.084500
     22 C4         -7.0910  140.2690  209.0920 ca        1 YS4     -0.277900
     23 O1         -7.9360  141.0120  209.8930 os        1 YS4     -0.323900
     24 C2         -7.9390  140.5990  211.2770 c3        1 YS4      0.102100
     25 C1         -8.4770  141.7690  212.0810 c3        1 YS4     -0.092600
     26 C3         -8.7980  139.3640  211.4670 c3        1 YS4     -0.092600
     27 H3         -6.4800  134.9750  204.5400 h4        1 YS4      0.000800
     28 H6         -3.6640  134.5050  203.7520 hn        1 YS4      0.492800
     29 H7         -5.9430  136.5560  205.8620 ha        1 YS4      0.104000
     30 H8         -1.1760  137.7690  205.5770 h4        1 YS4     -0.071900
     31 H9         -2.6300  139.1430  207.0300 ha        1 YS4      0.081000
     32 H10        -7.1560  137.6080  206.9570 ha        1 YS4      0.076000
     33 H11        -8.6400  138.9050  208.4280 ha        1 YS4      0.052500
     34 H12        -3.8210  140.1590  208.1360 ha        1 YS4      0.076000
     35 H13        -5.3320  141.4300  209.5960 ha        1 YS4      0.052500
     36 H14        -6.8840  140.3700  211.5950 h1        1 YS4      0.031700
     37 H15        -9.5010  142.0410  211.7290 hc        1 YS4      0.014367
     38 H16        -8.5270  141.5050  213.1640 hc        1 YS4      0.014367
     39 H17        -7.8140  142.6560  211.9520 hc        1 YS4      0.014367
     40 H18        -8.7190  138.9830  212.5130 hc        1 YS4      0.014367
     41 H19        -9.8680  139.5920  211.2500 hc        1 YS4      0.014367
     42 H20        -8.4510  138.5750  210.7540 hc        1 YS4      0.014367
@<TRIPOS>BOND
     1    1    2 1   
     2    2    3 1   
     3    2    4 1   
     4    2    5 2   
     5    5   10 1   
     6    5   27 1   
     7    6    7 1   
     8    6    8 1   
     9    6    9 2   
    10   10   11 1   
    11   10   28 1   
    12   11   12 ar  
    13   11   13 ar  
    14   12   16 ar  
    15   12   29 1   
    16   13   14 ar  
    17   14   15 ar  
    18   14   30 1   
    19   15   16 ar  
    20   15   31 1   
    21   16   17 1   
    22   17   18 ar  
    23   17   20 ar  
    24   18   19 ar  
    25   18   32 1   
    26   19   22 ar  
    27   19   33 1   
    28   20   21 ar  
    29   20   34 1   
    30   21   22 ar  
    31   21   35 1   
    32   22   23 1   
    33   23   24 1   
    34   24   25 1   
    35   24   26 1   
    36   24   36 1   
    37   25   37 1   
    38   25   38 1   
    39   25   39 1   
    40   26   40 1   
    41   26   41 1   
    42   26   42 1   
@<TRIPOS>SUBSTRUCTURE
     1 YS4         1 TEMP              0 ****  ****    0 ROOT
