@<TRIPOS>MOLECULE
YS4
   43    44     1     0     0
SMALL
bcc


@<TRIPOS>ATOM
      1 O5         -0.9350    1.0680    0.0210 o         1 YS4     -1.197667
      2 P2          0.2670    0.3380    0.5240 p3        1 YS4      2.528000
      3 O6          0.7700    0.8850    1.8250 o         1 YS4     -1.197667
      4 O7          0.4200   -1.1140    0.2770 o         1 YS4     -1.197667
      5 C13         1.8430    1.4860   -0.6190 c2        1 YS4     -1.369000
      6 P1          2.4150    1.3250   -2.1640 p5        1 YS4      2.062000
      7 O3          3.7660    0.6950   -2.1560 o         1 YS4     -0.892000
      8 O2          2.7830    2.9550   -2.5340 os        1 YS4     -0.733000
      9 O4          1.4520    0.9840   -3.2360 o         1 YS4     -0.892000
     10 N1          1.2110    2.7050   -0.2110 n4        1 YS4      0.125000
     11 C12         1.9430    3.9560   -0.5350 c2        1 YS4     -0.170000
     12 C11         3.1730    3.7120   -1.4390 c3        1 YS4      0.210000
     13 N2          1.4930    5.1090   -0.0980 n2        1 YS4     -0.136000
     14 C14         2.1780    6.2380   -0.4870 c2        1 YS4     -0.339000
     15 C15         3.2800    6.2100   -1.3250 c2        1 YS4     -0.033000
     16 C10         3.8310    5.0210   -1.8150 c2        1 YS4     -0.290000
     17 C9          5.0110    5.0150   -2.6030 ca        1 YS4      0.114000
     18 C6          5.6370    3.7910   -2.9940 ca        1 YS4     -0.198500
     19 C5          6.8100    3.7750   -3.7180 ca        1 YS4     -0.123000
     20 C8          5.6560    6.2110   -3.0220 ca        1 YS4     -0.198500
     21 C7          6.8290    6.2000   -3.7630 ca        1 YS4     -0.123000
     22 C4          7.4230    4.9840   -4.1020 ca        1 YS4     -0.124000
     23 O1          8.6490    4.9790   -4.7720 os        1 YS4     -0.237000
     24 C2          8.5210    4.6440   -6.1630 c3        1 YS4      0.021000
     25 C1          8.0500    5.8490   -6.9560 c3        1 YS4     -0.219000
     26 C3          9.8940    4.1850   -6.6200 c3        1 YS4     -0.219000
     27 H3          2.5700    1.1200    0.1330 hx        1 YS4      0.144000
     28 H6          0.2720    2.7120   -0.6510 hn        1 YS4      0.249000
     29 H7          3.9120    3.1020   -0.8260 h1        1 YS4      0.051000
     30 H8          1.7650    7.1760   -0.0950 h4        1 YS4      0.094000
     31 H9          3.7310    7.1790   -1.5880 ha        1 YS4      0.069000
     32 H10         5.1500    2.8340   -2.7240 ha        1 YS4      0.149500
     33 H11         7.2740    2.8210   -4.0040 ha        1 YS4      0.094000
     34 H12         5.2180    7.1860   -2.7720 ha        1 YS4      0.149500
     35 H13         7.3000    7.1420   -4.0760 ha        1 YS4      0.094000
     36 H14         7.7770    3.8060   -6.2750 h1        1 YS4      0.096000
     37 H15         7.8370    5.5600   -8.0110 hc        1 YS4      0.065333
     38 H16         8.8250    6.6520   -6.9500 hc        1 YS4      0.065333
     39 H17         7.1190    6.2530   -6.4860 hc        1 YS4      0.065333
     40 H18        10.6480    4.9910   -6.4590 hc        1 YS4      0.065333
     41 H19        10.2080    3.2880   -6.0350 hc        1 YS4      0.065333
     42 H20         9.8630    3.9260   -7.7040 hc        1 YS4      0.065333
     43 H121        1.0610    2.6590    0.8180 hn        1 YS4      0.249000
@<TRIPOS>BOND
     1    1    2 1   
     2    2    3 1   
     3    2    4 1   
     4    5    6 1   
     5    5   10 1   
     6    5   27 1   
     7    6    7 1   
     8    6    8 1   
     9    6    9 1   
    10    8   12 1   
    11   10   11 1   
    12   10   28 1   
    13   10   43 1   
    14   11   12 1   
    15   11   13 1   
    16   12   16 1   
    17   12   29 1   
    18   13   14 1   
    19   14   15 1   
    20   14   30 1   
    21   15   16 1   
    22   15   31 1   
    23   16   17 1   
    24   17   18 1   
    25   17   20 1   
    26   18   19 1   
    27   18   32 1   
    28   19   22 1   
    29   19   33 1   
    30   20   21 1   
    31   20   34 1   
    32   21   22 1   
    33   21   35 1   
    34   22   23 1   
    35   23   24 1   
    36   24   25 1   
    37   24   26 1   
    38   24   36 1   
    39   25   37 1   
    40   25   38 1   
    41   25   39 1   
    42   26   40 1   
    43   26   41 1   
    44   26   42 1   
@<TRIPOS>SUBSTRUCTURE
     1 YS4         1 TEMP              0 ****  ****    0 ROOT
