@<TRIPOS>MOLECULE
YS4
   42    43     1     0     0
SMALL
bcc


@<TRIPOS>ATOM
      1 O5          0.0000    0.0000    0.0000 o         1 YS4     -0.705667
      2 P2          1.4800    0.0000    0.0000 p5        1 YS4      0.451200
      3 O6          2.0180    0.0000    1.5170 o         1 YS4     -0.705667
      4 O7          2.0170   -1.3140   -0.7590 o         1 YS4     -0.705667
      5 C13         2.0870    1.4890   -0.8600 c3        1 YS4      0.222100
      6 P1          1.4790    1.4890   -2.5790 p5        1 YS4      0.451200
      7 O3          2.0160    2.8040   -3.3370 o         1 YS4     -0.705667
      8 O2          2.0160    0.1750   -3.3380 o         1 YS4     -0.705667
      9 O4         -0.0000    1.4890   -2.5780 o         1 YS4     -0.705667
     10 N1          1.5990    2.6850   -0.1690 nu        1 YS4     -0.115900
     11 C12         2.1700    3.9240   -0.4360 ca        1 YS4      0.363200
     12 C11         3.2030    4.0200   -1.3610 ca        1 YS4     -0.044300
     13 N2          1.7190    5.0020    0.1880 nb        1 YS4     -0.849000
     14 C14         2.2280    6.2000   -0.0320 ca        1 YS4      0.452200
     15 C15         3.2580    6.3800   -0.9310 ca        1 YS4     -0.494300
     16 C10         3.7640    5.2710   -1.6180 cp        1 YS4     -0.089000
     17 C9          4.8720    5.4210   -2.5920 cp        1 YS4     -0.023000
     18 C6          5.3610    4.3060   -3.2720 ca        1 YS4     -0.131000
     19 C5          6.3900    4.4480   -4.1780 ca        1 YS4     -0.164000
     20 C8          5.4240    6.6770   -2.8330 ca        1 YS4     -0.131000
     21 C7          6.4540    6.8150   -3.7400 ca        1 YS4     -0.164000
     22 C4          6.9420    5.7010   -4.4120 ca        1 YS4     -0.102900
     23 O1          7.9570    5.8390   -5.3040 os        1 YS4     -0.324900
     24 C2          8.3260    4.6770   -6.0510 c3        1 YS4      0.158100
     25 C1          8.9840    5.1050   -7.3650 c3        1 YS4     -0.017100
     26 C3          9.3130    3.8400   -5.2350 c3        1 YS4     -0.017100
     27 H3          3.1710    1.4890   -0.8600 h1        1 YS4      0.030700
     28 H6          0.8680    2.6070    0.5100 hn        1 YS4      0.273800
     29 H7          3.6910    3.1230   -1.7210 ha        1 YS4      0.143000
     30 H8          1.8300    7.0550    0.5020 h4        1 YS4     -0.106900
     31 H9          3.6680    7.3670   -1.1040 ha        1 YS4      0.069000
     32 H10         4.9310    3.3280   -3.0900 ha        1 YS4      0.122000
     33 H11         6.7720    3.5820   -4.7050 ha        1 YS4      0.067000
     34 H12         5.0250    7.5500   -2.3320 ha        1 YS4      0.122000
     35 H13         6.8850    7.7910   -3.9260 ha        1 YS4      0.067000
     36 H14         7.4420    4.0880   -6.2640 h1        1 YS4      0.045700
     37 H15         8.2670    5.6490   -7.9670 hc        1 YS4     -0.004800
     38 H16         9.8340    5.7420   -7.1520 hc        1 YS4     -0.004800
     39 H17         9.3170    4.2270   -7.9040 hc        1 YS4     -0.004800
     40 H18         9.3220    4.1890   -4.2100 hc        1 YS4     -0.004800
     41 H19         9.0100    2.8000   -5.2600 hc        1 YS4     -0.004800
     42 H20        10.3050    3.9370   -5.6590 hc        1 YS4     -0.004800
@<TRIPOS>BOND
     1    1    2 1   
     2    2    3 1   
     3    2    4 1   
     4    2    5 1   
     5    5    6 1   
     6    5   10 1   
     7    5   27 1   
     8    6    7 1   
     9    6    8 1   
    10    6    9 1   
    11   10   11 1   
    12   10   28 1   
    13   11   12 ar  
    14   11   13 ar  
    15   12   16 ar  
    16   12   29 1   
    17   13   14 ar  
    18   14   15 ar  
    19   14   30 1   
    20   15   16 ar  
    21   15   31 1   
    22   16   17 1   
    23   17   18 ar  
    24   17   20 ar  
    25   18   19 ar  
    26   18   32 1   
    27   19   22 ar  
    28   19   33 1   
    29   20   21 ar  
    30   20   34 1   
    31   21   22 ar  
    32   21   35 1   
    33   22   23 1   
    34   23   24 1   
    35   24   25 1   
    36   24   26 1   
    37   24   36 1   
    38   25   37 1   
    39   25   38 1   
    40   25   39 1   
    41   26   40 1   
    42   26   41 1   
    43   26   42 1   
@<TRIPOS>SUBSTRUCTURE
     1 YS4         1 TEMP              0 ****  ****    0 ROOT
