@<TRIPOS>MOLECULE
YS5
   89    91     1     0     0
SMALL
bcc


@<TRIPOS>ATOM
      1 CAV         6.7690    1.1270   -1.1530 c3        1 YS5     -0.035200
      2 CBB         7.6340   -0.0610   -0.7290 c3        1 YS5      0.183300
      3 OAG         8.8340    0.0270   -1.4850 oh        1 YS5     -0.593800
      4 CAY         7.8610   -0.0250    0.7540 c2        1 YS5     -0.194400
      5 CAA         9.0600    0.0510    1.3290 c2        1 YS5     -0.198000
      6 CBC         6.5850   -0.0570    1.5490 c3        1 YS5      0.183300
      7 OAH         5.9260   -1.3150    1.4330 oh        1 YS5     -0.593800
      8 CAW         5.5930    1.0110    1.0830 c3        1 YS5     -0.035200
      9 CAZ         5.4860    1.1500   -0.3940 c2        1 YS5     -0.104400
     10 CAJ         4.3210    1.3370   -1.0420 ce        1 YS5     -0.124000
     11 CAK         3.0240    1.4560   -0.4120 ce        1 YS5     -0.145000
     12 CBA         1.8510    1.1440   -0.9890 c2        1 YS5     -0.078400
     13 CAQ         1.7010    0.6190   -2.3800 c3        1 YS5     -0.044200
     14 CAP         0.7520   -0.5630   -2.4830 c3        1 YS5     -0.073400
     15 CAT        -0.5520   -0.3920   -1.7230 c3        1 YS5     -0.065400
     16 CBI        -0.2930    0.0270   -0.2840 c3        1 YS5     -0.036000
     17 CAF         0.4860   -1.0570    0.4370 c3        1 YS5     -0.083100
     18 CBG         0.5340    1.3490   -0.3330 c3        1 YS5     -0.038500
     19 CAU         0.4410    1.8900    1.0880 c3        1 YS5     -0.074400
     20 CAS        -0.9450    1.4610    1.5730 c3        1 YS5     -0.081400
     21 CBF        -1.5320    0.5180    0.5020 c3        1 YS5     -0.048700
     22 CBD        -2.5780   -0.4190    1.1020 c3        1 YS5     -0.056700
     23 CAE        -2.0170   -1.4910    2.0090 c3        1 YS5     -0.087100
     24 CBE        -3.5040   -0.9950    0.0200 c3        1 YS5     -0.048700
     25 CAX        -4.3950    0.0650   -0.6220 c3        1 YS5     -0.101400
     26 CBH        -5.2240    1.0370    0.2320 c3        1 YS5      0.159800
     27 CAN        -6.0210    0.3210    1.3290 c3        1 YS5     -0.090900
     28 CAD        -7.0110    1.2110    2.0350 c3        1 YS5     -0.094100
     29 OAI        -4.3910    1.9730    0.9180 oh        1 YS5     -0.600800
     30 CAM        -6.1910    1.8060   -0.6890 c3        1 YS5     -0.090900
     31 CAC        -5.5500    2.3970   -1.9170 c3        1 YS5     -0.094100
     32 CAR        -4.2720   -2.2160    0.5110 c3        1 YS5     -0.080400
     33 CAO        -5.1970   -2.8120   -0.5300 c3        1 YS5     -0.080400
     34 CAL        -5.6260   -4.2130   -0.1410 c3        1 YS5     -0.081400
     35 CAB        -6.5950   -4.7920   -1.1390 c3        1 YS5     -0.093100
     36 H1          7.3340    2.0780   -0.9590 hc        1 YS5      0.063200
     37 H2          6.5910    1.0620   -2.2580 hc        1 YS5      0.063200
     38 H3          7.1020   -1.0260   -0.9800 h1        1 YS5      0.044700
     39 H4          9.3570   -0.7530   -1.2650 ho        1 YS5      0.399500
     40 H6          9.9890    0.1100    0.7450 ha        1 YS5      0.119500
     41 H8          9.1910    0.0770    2.4190 ha        1 YS5      0.119500
     42 H9          6.8150    0.1190    2.6420 h1        1 YS5      0.044700
     43 H10         6.5830   -1.9930    1.6260 ho        1 YS5      0.399500
     44 H11         4.5930    0.7560    1.5280 hc        1 YS5      0.063200
     45 H12         5.9250    1.9960    1.5100 hc        1 YS5      0.063200
     46 H14         4.3300    1.4330   -2.1430 ha        1 YS5      0.122000
     47 H15         3.0280    1.8540    0.6190 ha        1 YS5      0.125000
     48 H17         1.3160    1.4580   -3.0230 hc        1 YS5      0.046700
     49 H18         2.6950    0.3080   -2.7980 hc        1 YS5      0.046700
     50 H19         0.5200   -0.7400   -3.5660 hc        1 YS5      0.041200
     51 H20         1.2750   -1.4810   -2.1020 hc        1 YS5      0.041200
     52 H21        -1.1930    0.3760   -2.2300 hc        1 YS5      0.039200
     53 H22        -1.1050   -1.3670   -1.7490 hc        1 YS5      0.039200
     54 H23         1.5420   -1.0870    0.0680 hc        1 YS5      0.039033
     55 H24         0.5130   -0.8600    1.5350 hc        1 YS5      0.039033
     56 H25         0.0280   -2.0580    0.2530 hc        1 YS5      0.039033
     57 H26        -0.0290    2.0730   -0.9980 hc        1 YS5      0.050700
     58 H27         1.2360    1.4460    1.7380 hc        1 YS5      0.043700
     59 H28         0.5590    3.0000    1.1090 hc        1 YS5      0.043700
     60 H29        -0.8670    0.9470    2.5620 hc        1 YS5      0.045200
     61 H30        -1.6210    2.3410    1.7050 hc        1 YS5      0.045200
     62 H31        -2.0980    1.1740   -0.2250 hc        1 YS5      0.032700
     63 H32        -3.2180    0.2490    1.7580 hc        1 YS5      0.071700
     64 H33        -1.5770   -2.3370    1.4290 hc        1 YS5      0.033700
     65 H34        -1.2270   -1.0710    2.6770 hc        1 YS5      0.033700
     66 H35        -2.8280   -1.9000    2.6620 hc        1 YS5      0.033700
     67 H36        -2.8410   -1.3680   -0.8170 hc        1 YS5      0.044700
     68 H37        -3.7320    0.6960   -1.2780 hc        1 YS5      0.043200
     69 H38        -5.1150   -0.4570   -1.3090 hc        1 YS5      0.043200
     70 H39        -6.5500   -0.5500    0.8610 hc        1 YS5      0.051450
     71 H40        -5.2920   -0.0740    2.0860 hc        1 YS5      0.051450
     72 H41        -6.5200    2.1640    2.3480 hc        1 YS5      0.034700
     73 H42        -7.8770    1.4560    1.3730 hc        1 YS5      0.034700
     74 H43        -7.4040    0.6950    2.9450 hc        1 YS5      0.034700
     75 H44        -3.8410    2.4040    0.2550 ho        1 YS5      0.398000
     76 H45        -7.0160    1.1120   -0.9930 hc        1 YS5      0.051450
     77 H46        -6.6450    2.6360   -0.0840 hc        1 YS5      0.051450
     78 H47        -6.2720    3.0790   -2.4310 hc        1 YS5      0.034700
     79 H48        -4.6420    2.9900   -1.6510 hc        1 YS5      0.034700
     80 H49        -5.2520    1.6010   -2.6420 hc        1 YS5      0.034700
     81 H50        -3.5290   -3.0090    0.8000 hc        1 YS5      0.043700
     82 H51        -4.8580   -1.9680    1.4340 hc        1 YS5      0.043700
     83 H52        -6.1120   -2.1720   -0.6470 hc        1 YS5      0.038200
     84 H53        -4.6810   -2.8440   -1.5260 hc        1 YS5      0.038200
     85 H54        -4.7230   -4.8750   -0.0660 hc        1 YS5      0.038700
     86 H55        -6.1010   -4.1880    0.8760 hc        1 YS5      0.038700
     87 H56        -6.1330   -4.8390   -2.1550 hc        1 YS5      0.032367
     88 H57        -6.8900   -5.8260   -0.8380 hc        1 YS5      0.032367
     89 H58        -7.5170   -4.1660   -1.2030 hc        1 YS5      0.032367
@<TRIPOS>BOND
     1    1    2 1   
     2    1    9 1   
     3    1   36 1   
     4    1   37 1   
     5    2    3 1   
     6    2    4 1   
     7    2   38 1   
     8    3   39 1   
     9    4    5 2   
    10    4    6 1   
    11    5   40 1   
    12    5   41 1   
    13    6    7 1   
    14    6    8 1   
    15    6   42 1   
    16    7   43 1   
    17    8    9 1   
    18    8   44 1   
    19    8   45 1   
    20    9   10 2   
    21   10   11 1   
    22   10   46 1   
    23   11   12 2   
    24   11   47 1   
    25   12   13 1   
    26   12   18 1   
    27   13   14 1   
    28   13   48 1   
    29   13   49 1   
    30   14   15 1   
    31   14   50 1   
    32   14   51 1   
    33   15   16 1   
    34   15   52 1   
    35   15   53 1   
    36   16   17 1   
    37   16   18 1   
    38   16   21 1   
    39   17   54 1   
    40   17   55 1   
    41   17   56 1   
    42   18   19 1   
    43   18   57 1   
    44   19   20 1   
    45   19   58 1   
    46   19   59 1   
    47   20   21 1   
    48   20   60 1   
    49   20   61 1   
    50   21   22 1   
    51   21   62 1   
    52   22   23 1   
    53   22   24 1   
    54   22   63 1   
    55   23   64 1   
    56   23   65 1   
    57   23   66 1   
    58   24   25 1   
    59   24   32 1   
    60   24   67 1   
    61   25   26 1   
    62   25   68 1   
    63   25   69 1   
    64   26   27 1   
    65   26   29 1   
    66   26   30 1   
    67   27   28 1   
    68   27   70 1   
    69   27   71 1   
    70   28   72 1   
    71   28   73 1   
    72   28   74 1   
    73   29   75 1   
    74   30   31 1   
    75   30   76 1   
    76   30   77 1   
    77   31   78 1   
    78   31   79 1   
    79   31   80 1   
    80   32   33 1   
    81   32   81 1   
    82   32   82 1   
    83   33   34 1   
    84   33   83 1   
    85   33   84 1   
    86   34   35 1   
    87   34   85 1   
    88   34   86 1   
    89   35   87 1   
    90   35   88 1   
    91   35   89 1   
@<TRIPOS>SUBSTRUCTURE
     1 YS5         1 TEMP              0 ****  ****    0 ROOT
