@<TRIPOS>MOLECULE
YS5
   89    91     1     0     0
SMALL
bcc


@<TRIPOS>ATOM
      1 CAV        -0.6890    0.6310    0.6680 c3        1 YS5     -0.053700
      2 CBB         0.6990    1.0940    0.2190 c3        1 YS5      0.184300
      3 OAG         0.6410    2.4170   -0.3060 oh        1 YS5     -0.598300
      4 CAY         1.6500    1.0680    1.3760 c2        1 YS5     -0.170400
      5 CAA         2.3320    2.1300    1.8050 c2        1 YS5     -0.175000
      6 CBC         1.7650   -0.2840    2.0210 c3        1 YS5      0.184300
      7 OAH         2.4170   -1.2220    1.1680 oh        1 YS5     -0.598300
      8 CAW         0.3990   -0.8790    2.3740 c3        1 YS5     -0.053700
      9 CAZ        -0.6340   -0.7090    1.3170 c2        1 YS5     -0.102400
     10 CAJ        -1.5150   -1.6670    0.9730 ce        1 YS5     -0.123000
     11 CAK        -1.6100   -2.9750    1.5820 ce        1 YS5     -0.148000
     12 CBA        -2.1070   -4.0730    0.9880 c2        1 YS5     -0.074400
     13 CAQ        -2.6440   -4.1190   -0.4060 c3        1 YS5     -0.044200
     14 CAP        -2.1750   -5.3250   -1.2020 c3        1 YS5     -0.073400
     15 CAT        -2.2140   -6.6390   -0.4410 c3        1 YS5     -0.067400
     16 CBI        -1.5090   -6.5120    0.9040 c3        1 YS5     -0.036000
     17 CAF        -0.0500   -6.1600    0.6940 c3        1 YS5     -0.083100
     18 CBG        -2.2510   -5.3810    1.6760 c3        1 YS5     -0.038500
     19 CAU        -1.8050   -5.5660    3.1180 c3        1 YS5     -0.072400
     20 CAS        -1.7020   -7.0830    3.2810 c3        1 YS5     -0.077400
     21 CBF        -1.7050   -7.7060    1.8680 c3        1 YS5     -0.056700
     22 CBD        -0.8250   -8.9540    1.8040 c3        1 YS5     -0.042700
     23 CAE         0.6410   -8.7180    2.1100 c3        1 YS5     -0.091100
     24 CBE        -0.9950   -9.7210    0.4850 c3        1 YS5     -0.049700
     25 CAX        -2.4210  -10.2030    0.2490 c3        1 YS5     -0.067400
     26 CBH        -3.1780  -11.0210    1.3080 c3        1 YS5      0.160800
     27 CAN        -2.3380  -12.1610    1.8920 c3        1 YS5     -0.110900
     28 CAD        -3.1110  -13.1430    2.7340 c3        1 YS5     -0.094600
     29 OAI        -3.5420  -10.1050    2.3430 oh        1 YS5     -0.599800
     30 CAM        -4.4570  -11.5960    0.6680 c3        1 YS5     -0.110900
     31 CAC        -5.3110  -10.5510   -0.0000 c3        1 YS5     -0.094600
     32 CAR         0.0550  -10.8150    0.3260 c3        1 YS5     -0.082400
     33 CAO        -0.0800  -11.6050   -0.9600 c3        1 YS5     -0.080400
     34 CAL         1.1700  -12.4160   -1.2350 c3        1 YS5     -0.081400
     35 CAB         1.0250  -13.2480   -2.4830 c3        1 YS5     -0.093100
     36 H1         -1.3730    0.6180   -0.2220 hc        1 YS5      0.058200
     37 H2         -1.1030    1.3780    1.3980 hc        1 YS5      0.058200
     38 H3          1.0900    0.3970   -0.5800 h1        1 YS5      0.044700
     39 H4         -0.0120    2.4000   -1.0150 ho        1 YS5      0.402000
     40 H6          3.0260    2.0800    2.6550 ha        1 YS5      0.124000
     41 H8          2.2310    3.1160    1.3290 ha        1 YS5      0.124000
     42 H9          2.3740   -0.1990    2.9700 h1        1 YS5      0.044700
     43 H10         3.1870   -0.7760    0.7970 ho        1 YS5      0.402000
     44 H11         0.5560   -1.9680    2.6000 hc        1 YS5      0.058200
     45 H12         0.0370   -0.3740    3.3110 hc        1 YS5      0.058200
     46 H14        -2.2520   -1.4550    0.1770 ha        1 YS5      0.119000
     47 H15        -1.2520   -3.0450    2.6250 ha        1 YS5      0.126000
     48 H17        -2.3590   -3.1930   -0.9730 hc        1 YS5      0.045200
     49 H18        -3.7670   -4.1370   -0.3380 hc        1 YS5      0.045200
     50 H19        -2.8190   -5.4190   -2.1170 hc        1 YS5      0.039700
     51 H20        -1.1260   -5.1420   -1.5560 hc        1 YS5      0.039700
     52 H21        -1.7280   -7.4300   -1.0680 hc        1 YS5      0.039700
     53 H22        -3.2800   -6.9500   -0.2760 hc        1 YS5      0.039700
     54 H23         0.4240   -6.8850   -0.0110 hc        1 YS5      0.037700
     55 H24         0.5010   -6.1780    1.6650 hc        1 YS5      0.037700
     56 H25         0.0500   -5.1330    0.2630 hc        1 YS5      0.037700
     57 H26        -3.3570   -5.6260    1.6470 hc        1 YS5      0.054700
     58 H27        -0.8110   -5.0840    3.2970 hc        1 YS5      0.042200
     59 H28        -2.5370   -5.1230    3.8350 hc        1 YS5      0.042200
     60 H29        -2.5770   -7.4770    3.8560 hc        1 YS5      0.041700
     61 H30        -0.7840   -7.3490    3.8580 hc        1 YS5      0.041700
     62 H31        -2.7590   -8.0740    1.6860 hc        1 YS5      0.066700
     63 H32        -1.2290   -9.6200    2.6270 hc        1 YS5      0.056700
     64 H33         1.2020   -8.3790    1.2060 hc        1 YS5      0.032367
     65 H34         1.1080   -9.6670    2.4740 hc        1 YS5      0.032367
     66 H35         0.7770   -7.9490    2.9070 hc        1 YS5      0.032367
     67 H36        -0.7870   -8.9820   -0.3470 hc        1 YS5      0.045700
     68 H37        -3.0460   -9.2860    0.0530 hc        1 YS5      0.050200
     69 H38        -2.4320  -10.8140   -0.6930 hc        1 YS5      0.050200
     70 H39        -1.5310  -11.7050    2.5250 hc        1 YS5      0.049450
     71 H40        -1.8490  -12.7070    1.0430 hc        1 YS5      0.049450
     72 H41        -3.7940  -13.7650    2.1060 hc        1 YS5      0.035533
     73 H42        -2.4020  -13.8310    3.2570 hc        1 YS5      0.035533
     74 H43        -3.7220  -12.6200    3.5090 hc        1 YS5      0.035533
     75 H44        -4.0640  -10.5990    2.9850 ho        1 YS5      0.396000
     76 H45        -4.1610  -12.3850   -0.0710 hc        1 YS5      0.049450
     77 H46        -5.0620  -12.0940    1.4720 hc        1 YS5      0.049450
     78 H47        -6.3220  -10.9690   -0.2290 hc        1 YS5      0.035533
     79 H48        -5.4320   -9.6650    0.6700 hc        1 YS5      0.035533
     80 H49        -4.8510  -10.2090   -0.9590 hc        1 YS5      0.035533
     81 H50         1.0720  -10.3350    0.3210 hc        1 YS5      0.042200
     82 H51         0.0350  -11.5130    1.2020 hc        1 YS5      0.042200
     83 H52        -0.9590  -12.3000   -0.8990 hc        1 YS5      0.038200
     84 H53        -0.2670  -10.9050   -1.8170 hc        1 YS5      0.038200
     85 H54         1.3810  -13.0840   -0.3580 hc        1 YS5      0.038700
     86 H55         2.0490  -11.7270   -1.3440 hc        1 YS5      0.038700
     87 H56         1.9580  -13.8310   -2.6720 hc        1 YS5      0.032367
     88 H57         0.8290  -12.5980   -3.3700 hc        1 YS5      0.032367
     89 H58         0.1750  -13.9670   -2.3820 hc        1 YS5      0.032367
@<TRIPOS>BOND
     1    1    2 1   
     2    1    9 1   
     3    1   36 1   
     4    1   37 1   
     5    2    3 1   
     6    2    4 1   
     7    2   38 1   
     8    3   39 1   
     9    4    5 2   
    10    4    6 1   
    11    5   40 1   
    12    5   41 1   
    13    6    7 1   
    14    6    8 1   
    15    6   42 1   
    16    7   43 1   
    17    8    9 1   
    18    8   44 1   
    19    8   45 1   
    20    9   10 2   
    21   10   11 1   
    22   10   46 1   
    23   11   12 2   
    24   11   47 1   
    25   12   13 1   
    26   12   18 1   
    27   13   14 1   
    28   13   48 1   
    29   13   49 1   
    30   14   15 1   
    31   14   50 1   
    32   14   51 1   
    33   15   16 1   
    34   15   52 1   
    35   15   53 1   
    36   16   17 1   
    37   16   18 1   
    38   16   21 1   
    39   17   54 1   
    40   17   55 1   
    41   17   56 1   
    42   18   19 1   
    43   18   57 1   
    44   19   20 1   
    45   19   58 1   
    46   19   59 1   
    47   20   21 1   
    48   20   60 1   
    49   20   61 1   
    50   21   22 1   
    51   21   62 1   
    52   22   23 1   
    53   22   24 1   
    54   22   63 1   
    55   23   64 1   
    56   23   65 1   
    57   23   66 1   
    58   24   25 1   
    59   24   32 1   
    60   24   67 1   
    61   25   26 1   
    62   25   68 1   
    63   25   69 1   
    64   26   27 1   
    65   26   29 1   
    66   26   30 1   
    67   27   28 1   
    68   27   70 1   
    69   27   71 1   
    70   28   72 1   
    71   28   73 1   
    72   28   74 1   
    73   29   75 1   
    74   30   31 1   
    75   30   76 1   
    76   30   77 1   
    77   31   78 1   
    78   31   79 1   
    79   31   80 1   
    80   32   33 1   
    81   32   81 1   
    82   32   82 1   
    83   33   34 1   
    84   33   83 1   
    85   33   84 1   
    86   34   35 1   
    87   34   85 1   
    88   34   86 1   
    89   35   87 1   
    90   35   88 1   
    91   35   89 1   
@<TRIPOS>SUBSTRUCTURE
     1 YS5         1 TEMP              0 ****  ****    0 ROOT
