@<TRIPOS>MOLECULE
YS9
   86    88     1     0     0
SMALL
bcc


@<TRIPOS>ATOM
      1 O30         0.8290   -0.3880   -0.5760 oh        1 YS9     -0.597800
      2 C27         2.0440   -0.1280    0.1300 c3        1 YS9      0.147800
      3 C29         1.8100   -0.2500    1.6310 c3        1 YS9     -0.123600
      4 C28         3.1150   -1.1220   -0.3100 c3        1 YS9     -0.123600
      5 C26         2.4690    1.2910   -0.2640 c3        1 YS9     -0.065400
      6 C25         1.4710    2.3450    0.1660 c3        1 YS9     -0.078400
      7 C20         1.8020    3.7110   -0.4300 c3        1 YS9     -0.061700
      8 C21         1.2880    4.8300    0.4660 c3        1 YS9     -0.075400
      9 C22         2.1960    5.0770    1.6530 c3        1 YS9     -0.080400
     10 C23         1.6510    6.1780    2.5380 c3        1 YS9     -0.080400
     11 C24         2.5530    6.4360    3.7170 c3        1 YS9     -0.092100
     12 C18         1.2440    3.8220   -1.8600 c3        1 YS9     -0.053700
     13 C19        -0.2370    4.1450   -1.8330 c3        1 YS9     -0.089100
     14 C17         2.0350    4.8400   -2.6760 c3        1 YS9     -0.054700
     15 C16         3.5340    4.4810   -2.7550 c3        1 YS9     -0.079400
     16 C15         4.0370    4.8690   -4.1460 c3        1 YS9     -0.073400
     17 C13         1.6190    5.0170   -4.1560 c3        1 YS9     -0.040000
     18 C14         2.8960    5.6740   -4.7520 c3        1 YS9     -0.036500
     19 C34         1.3430    3.6720   -4.8060 c3        1 YS9     -0.083100
     20 C12         0.4700    5.9830   -4.4070 c3        1 YS9     -0.067400
     21 C11         0.3100    6.2550   -5.8920 c3        1 YS9     -0.072400
     22 C10         1.5900    6.6750   -6.5940 c3        1 YS9     -0.044200
     23 C9          2.7790    5.8470   -6.2230 c2        1 YS9     -0.079400
     24 C8          3.6750    5.3670   -7.1010 ce        1 YS9     -0.148000
     25 C7          3.6320    5.5780   -8.5310 ce        1 YS9     -0.120000
     26 C6          4.0990    4.7260   -9.4620 c2        1 YS9     -0.106400
     27 C1          3.9920    5.0610  -10.9120 c3        1 YS9     -0.034200
     28 C2          5.2620    4.7630  -11.7120 c3        1 YS9      0.183300
     29 O32         6.1820    5.8160  -11.4420 oh        1 YS9     -0.594300
     30 C5          4.6870    3.3950   -9.1540 c3        1 YS9     -0.034200
     31 C4          6.0210    3.2160   -9.8850 c3        1 YS9      0.183300
     32 O31         6.4890    1.9170   -9.5500 oh        1 YS9     -0.594300
     33 C3          5.8340    3.4180  -11.3600 c2        1 YS9     -0.193400
     34 C33         6.1190    2.5010  -12.2850 c2        1 YS9     -0.199000
     35 H1          0.5570   -1.2820   -0.3370 ho        1 YS9      0.396000
     36 H2          1.6470   -1.3180    1.9120 hc        1 YS9      0.042533
     37 H3          0.9060    0.3350    1.9250 hc        1 YS9      0.042533
     38 H4          2.6930    0.1380    2.1890 hc        1 YS9      0.042533
     39 H5          2.8040   -2.1630   -0.0570 hc        1 YS9      0.042533
     40 H6          4.0780   -0.8990    0.2060 hc        1 YS9      0.042533
     41 H7          3.2670   -1.0540   -1.4130 hc        1 YS9      0.042533
     42 H8          2.5940    1.3220   -1.3780 hc        1 YS9      0.047200
     43 H9          3.4680    1.4960    0.2010 hc        1 YS9      0.047200
     44 H10         1.4730    2.4170    1.2860 hc        1 YS9      0.050200
     45 H11         0.4420    2.0250   -0.1440 hc        1 YS9      0.050200
     46 H12         2.9250    3.8000   -0.4790 hc        1 YS9      0.047700
     47 H13         0.2560    4.5800    0.8270 hc        1 YS9      0.041700
     48 H14         1.2090    5.7780   -0.1310 hc        1 YS9      0.041700
     49 H15         2.3080    4.1360    2.2530 hc        1 YS9      0.038200
     50 H16         3.2200    5.3610    1.2910 hc        1 YS9      0.038200
     51 H17         1.5370    7.1190    1.9380 hc        1 YS9      0.038700
     52 H18         0.6280    5.8930    2.9010 hc        1 YS9      0.038700
     53 H19         2.6590    5.5170    4.3420 hc        1 YS9      0.031700
     54 H20         2.1330    7.2500    4.3560 hc        1 YS9      0.031700
     55 H21         3.5700    6.7460    3.3760 hc        1 YS9      0.031700
     56 H22         1.3710    2.8130   -2.3480 hc        1 YS9      0.057700
     57 H23        -0.7160    3.8680   -2.8030 hc        1 YS9      0.034033
     58 H24        -0.7470    3.5700   -1.0230 hc        1 YS9      0.034033
     59 H25        -0.4060    5.2340   -1.6530 hc        1 YS9      0.034033
     60 H26         1.9320    5.8420   -2.1750 hc        1 YS9      0.046700
     61 H27         4.1020    5.0310   -1.9650 hc        1 YS9      0.041700
     62 H28         3.6830    3.3850   -2.5850 hc        1 YS9      0.041700
     63 H29         4.9760    5.4710   -4.0910 hc        1 YS9      0.044200
     64 H30         4.2500    3.9540   -4.7530 hc        1 YS9      0.044200
     65 H31         2.9680    6.7190   -4.3220 hc        1 YS9      0.054700
     66 H32         0.3430    3.2850   -4.4970 hc        1 YS9      0.038367
     67 H33         2.1220    2.9290   -4.5080 hc        1 YS9      0.038367
     68 H34         1.3600    3.7650   -5.9200 hc        1 YS9      0.038367
     69 H35         0.6670    6.9440   -3.8640 hc        1 YS9      0.042200
     70 H36        -0.4880    5.5620   -4.0070 hc        1 YS9      0.042200
     71 H37        -0.4550    7.0640   -6.0320 hc        1 YS9      0.040200
     72 H38        -0.0920    5.3320   -6.3890 hc        1 YS9      0.040200
     73 H39         1.4130    6.6400   -7.7010 hc        1 YS9      0.046700
     74 H40         1.8220    7.7430   -6.3260 hc        1 YS9      0.046700
     75 H41         4.5350    4.7820   -6.7270 ha        1 YS9      0.128000
     76 H42         3.1870    6.5360   -8.8580 ha        1 YS9      0.123000
     77 H43         3.1570    4.4560  -11.3580 hc        1 YS9      0.062950
     78 H44         3.7460    6.1490  -11.0470 hc        1 YS9      0.062950
     79 H45         5.0100    4.7930  -12.8130 h1        1 YS9      0.044700
     80 H46         7.0200    5.5660  -11.8470 ho        1 YS9      0.399500
     81 H47         3.9790    2.5870   -9.4810 hc        1 YS9      0.062950
     82 H48         4.8630    3.2570   -8.0560 hc        1 YS9      0.062950
     83 H49         6.7600    3.9880   -9.5170 h1        1 YS9      0.044700
     84 H50         7.3610    1.8240   -9.9520 ho        1 YS9      0.399500
     85 H51         6.5020    1.5040  -12.0260 ha        1 YS9      0.119500
     86 H52         5.9710    2.6800  -13.3580 ha        1 YS9      0.119500
@<TRIPOS>BOND
     1    1    2 1   
     2    1   35 1   
     3    2    3 1   
     4    2    4 1   
     5    2    5 1   
     6    3   36 1   
     7    3   37 1   
     8    3   38 1   
     9    4   39 1   
    10    4   40 1   
    11    4   41 1   
    12    5    6 1   
    13    5   42 1   
    14    5   43 1   
    15    6    7 1   
    16    6   44 1   
    17    6   45 1   
    18    7    8 1   
    19    7   12 1   
    20    7   46 1   
    21    8    9 1   
    22    8   47 1   
    23    8   48 1   
    24    9   10 1   
    25    9   49 1   
    26    9   50 1   
    27   10   11 1   
    28   10   51 1   
    29   10   52 1   
    30   11   53 1   
    31   11   54 1   
    32   11   55 1   
    33   12   13 1   
    34   12   14 1   
    35   12   56 1   
    36   13   57 1   
    37   13   58 1   
    38   13   59 1   
    39   14   15 1   
    40   14   17 1   
    41   14   60 1   
    42   15   16 1   
    43   15   61 1   
    44   15   62 1   
    45   16   18 1   
    46   16   63 1   
    47   16   64 1   
    48   17   18 1   
    49   17   19 1   
    50   17   20 1   
    51   18   23 1   
    52   18   65 1   
    53   19   66 1   
    54   19   67 1   
    55   19   68 1   
    56   20   21 1   
    57   20   69 1   
    58   20   70 1   
    59   21   22 1   
    60   21   71 1   
    61   21   72 1   
    62   22   23 1   
    63   22   73 1   
    64   22   74 1   
    65   23   24 2   
    66   24   25 1   
    67   24   75 1   
    68   25   26 2   
    69   25   76 1   
    70   26   27 1   
    71   26   30 1   
    72   27   28 1   
    73   27   77 1   
    74   27   78 1   
    75   28   29 1   
    76   28   33 1   
    77   28   79 1   
    78   29   80 1   
    79   30   31 1   
    80   30   81 1   
    81   30   82 1   
    82   31   32 1   
    83   31   33 1   
    84   31   83 1   
    85   32   84 1   
    86   33   34 2   
    87   34   85 1   
    88   34   86 1   
@<TRIPOS>SUBSTRUCTURE
     1 YS9         1 TEMP              0 ****  ****    0 ROOT
