@<TRIPOS>MOLECULE
YSA
   58    61     1     0     0
SMALL
bcc


@<TRIPOS>ATOM
      1 CD1         0.0510   -0.1260    0.4100 ca        1 YSA     -0.078000
      2 CE1         1.4210   -0.3580    0.3670 ca        1 YSA     -0.186000
      3 CZ          2.1920   -0.1010    1.5130 ca        1 YSA      0.129100
      4 OH          3.5420   -0.3470    1.4120 oh        1 YSA     -0.496100
      5 CE2         1.5940    0.3810    2.6860 ca        1 YSA     -0.186000
      6 CD2         0.2210    0.6050    2.7080 ca        1 YSA     -0.078000
      7 CG         -0.5610    0.3570    1.5740 ca        1 YSA     -0.124300
      8 CB         -2.0300    0.5830    1.6070 c3        1 YSA     -0.023100
      9 CA         -2.3800    2.0740    1.4210 c3        1 YSA      0.127500
     10 N          -2.0470    2.8760    2.5690 n3        1 YSA     -0.894800
     11 C          -3.8820    2.1410    1.0450 c         1 YSA      0.634100
     12 O          -4.7570    2.4570    1.8650 o         1 YSA     -0.558100
     13 NAT        -4.2540    1.8480   -0.2740 n         1 YSA     -0.701300
     14 SBI        -5.7660    1.7320   -0.8870 s6        1 YSA      1.699100
     15 OAD        -5.6590    1.6770   -2.2740 o         1 YSA     -0.635300
     16 OAE        -6.5760    0.8500   -0.2070 o         1 YSA     -0.635300
     17 O5'        -6.4560    3.2290   -0.5880 os        1 YSA     -0.552500
     18 C5'        -6.3480    4.3060   -1.4870 c3        1 YSA      0.160400
     19 C4'        -7.5230    5.2510   -1.2300 c3        1 YSA      0.091100
     20 O4'        -7.5260    5.7090    0.1280 os        1 YSA     -0.380600
     21 C3'        -7.4250    6.4950   -2.1430 c3        1 YSA      0.128100
     22 O3'        -8.6390    6.7490   -2.8030 oh        1 YSA     -0.570800
     23 C2'        -6.9680    7.6380   -1.2070 c3        1 YSA      0.080100
     24 O2'        -7.9500    8.6490   -1.2270 oh        1 YSA     -0.589800
     25 C1'        -6.9250    7.0010    0.2240 c3        1 YSA      0.217800
     26 N9         -5.5930    6.8930    0.7760 na        1 YSA     -0.293000
     27 C8         -4.9670    5.7430    1.3180 cc        1 YSA      0.427700
     28 N7         -3.7400    5.9850    1.8010 nd        1 YSA     -0.576100
     29 C5         -3.5240    7.3560    1.5950 ca        1 YSA     -0.225200
     30 C4         -4.6890    7.9510    0.9520 ca        1 YSA      0.448800
     31 N3         -4.7890    9.2770    0.6290 nb        1 YSA     -0.756000
     32 C2         -3.6860    9.9790    0.9790 ca        1 YSA      0.688900
     33 N1         -2.5380    9.5660    1.5790 nb        1 YSA     -0.791000
     34 C6         -2.4260    8.2320    1.8950 ca        1 YSA      0.757200
     35 N6         -1.2760    7.7330    2.4510 nh        1 YSA     -0.952500
     36 HD1        -0.5570   -0.3330   -0.4840 ha        1 YSA      0.136000
     37 HE1         1.9090   -0.7390   -0.5410 ha        1 YSA      0.144000
     38 HOH         3.9490   -0.1330    2.2640 ho        1 YSA      0.421000
     39 HE2         2.2040    0.5800    3.5780 ha        1 YSA      0.144000
     40 HD2        -0.2540    0.9900    3.6250 ha        1 YSA      0.136000
     41 HB1        -2.5190   -0.0060    0.7860 hc        1 YSA      0.058200
     42 HB2        -2.4520    0.2130    2.5800 hc        1 YSA      0.058200
     43 HA         -1.7800    2.4770    0.5500 h1        1 YSA      0.081700
     44 HN1        -2.5590    2.5790    3.3780 hn        1 YSA      0.374800
     45 HN2        -2.2340    3.8450    2.3950 hn        1 YSA      0.374800
     46 HAT        -3.4770    1.7060   -0.8840 hn        1 YSA      0.343500
     47 H5'1       -5.3730    4.8310   -1.2920 h1        1 YSA      0.053700
     48 H5'2       -6.3870    3.9360   -2.5490 h1        1 YSA      0.053700
     49 H4'        -8.4990    4.7070   -1.3500 h1        1 YSA      0.112700
     50 H3'        -6.6810    6.3380   -2.9720 h1        1 YSA      0.092700
     51 H3         -9.2580    7.1290   -2.1630 ho        1 YSA      0.427000
     52 H2'        -5.9730    8.0400   -1.5310 h1        1 YSA      0.083700
     53 H1         -7.5420    9.4440   -0.8560 ho        1 YSA      0.433000
     54 H1'        -7.5730    7.5850    0.9460 h2        1 YSA      0.108700
     55 H8         -5.4900    4.7690    1.3230 h5        1 YSA      0.110800
     56 H2         -3.7190   11.0650    0.7440 h5        1 YSA      0.053100
     57 HN61       -0.5620    8.3500    2.7530 hn        1 YSA      0.445300
     58 HN62       -1.2860    6.8040    2.7940 hn        1 YSA      0.445300
@<TRIPOS>BOND
     1    1    2 ar  
     2    1    7 ar  
     3    1   36 1   
     4    2    3 ar  
     5    2   37 1   
     6    3    4 1   
     7    3    5 ar  
     8    4   38 1   
     9    5    6 ar  
    10    5   39 1   
    11    6    7 ar  
    12    6   40 1   
    13    7    8 1   
    14    8    9 1   
    15    8   41 1   
    16    8   42 1   
    17    9   10 1   
    18    9   11 1   
    19    9   43 1   
    20   10   44 1   
    21   10   45 1   
    22   11   12 2   
    23   11   13 1   
    24   13   14 1   
    25   13   46 1   
    26   14   15 2   
    27   14   16 2   
    28   14   17 1   
    29   17   18 1   
    30   18   19 1   
    31   18   47 1   
    32   18   48 1   
    33   19   20 1   
    34   19   21 1   
    35   19   49 1   
    36   20   25 1   
    37   21   22 1   
    38   21   23 1   
    39   21   50 1   
    40   22   51 1   
    41   23   24 1   
    42   23   25 1   
    43   23   52 1   
    44   24   53 1   
    45   25   26 1   
    46   25   54 1   
    47   26   27 1   
    48   26   30 1   
    49   27   28 2   
    50   27   55 1   
    51   28   29 1   
    52   29   30 ar  
    53   29   34 ar  
    54   30   31 ar  
    55   31   32 ar  
    56   32   33 ar  
    57   32   56 1   
    58   33   34 ar  
    59   34   35 1   
    60   35   57 1   
    61   35   58 1   
@<TRIPOS>SUBSTRUCTURE
     1 YSA         1 TEMP              0 ****  ****    0 ROOT
