@<TRIPOS>MOLECULE
YSA
   60    62     1     0     0
SMALL
bcc


@<TRIPOS>ATOM
      1 CD1         0.4360   -2.4370    0.6460 ca        1 YSA     -0.086000
      2 CE1         1.1700   -3.6120    0.6880 ca        1 YSA     -0.179500
      3 CZ          1.4790   -4.1850    1.9390 ca        1 YSA      0.175100
      4 OH          2.2070   -5.3390    1.9100 oh        1 YSA     -0.466100
      5 CE2         1.0520   -3.5730    3.1300 ca        1 YSA     -0.179500
      6 CD2         0.3180   -2.3930    3.0650 ca        1 YSA     -0.086000
      7 CG          0.0130   -1.8100    1.8290 ca        1 YSA     -0.228300
      8 CB         -0.8110   -0.5760    1.7650 c3        1 YSA     -0.037100
      9 CA          0.0400    0.6520    1.4000 c3        1 YSA      0.033500
     10 N           1.2510    0.7600    2.2800 nz        1 YSA     -0.834600
     11 C          -0.8190    1.9370    1.5350 c         1 YSA      0.645100
     12 O          -0.5770    2.7280    2.4740 o         1 YSA     -0.613100
     13 NAT        -1.7960    2.1460    0.6220 nt        1 YSA     -0.623000
     14 SBI        -4.2570    5.5490   -0.7420 s6        1 YSA      1.832000
     15 OAD        -3.6950    6.7780   -0.8200 o         1 YSA     -0.641800
     16 OAE        -3.7250    4.4800   -0.0900 o         1 YSA     -0.641800
     17 O5'        -4.8460    5.0400   -2.1930 os        1 YSA     -0.542500
     18 C5'        -6.2480    4.9090   -2.3130 c3        1 YSA      0.145400
     19 C4'        -6.8770    5.4740   -1.0170 c3        1 YSA      0.094100
     20 O4'        -5.8180    5.8380   -0.1560 os        1 YSA     -0.596500
     21 C3'        -7.7390    6.7140   -1.3190 c3        1 YSA      0.147100
     22 O3'        -8.7400    6.3980   -2.2520 oh        1 YSA     -0.552800
     23 C2'        -8.4030    7.2670   -0.0300 c3        1 YSA      0.014800
     24 O2'        -9.2090    6.2260    0.4870 oh        1 YSA     -0.586800
     25 C1'        -7.3500    7.5800    1.0080 c2        1 YSA      0.444200
     26 N9         -6.6220    8.6590    1.0880 na        1 YSA     -0.222000
     27 C8         -5.6010    8.9640    2.1270 cc        1 YSA      0.384700
     28 N7         -5.0480   10.1450    1.9790 nd        1 YSA     -0.393100
     29 C5         -5.6370   10.7390    0.8400 ca        1 YSA     -0.273200
     30 C4         -6.6190    9.8500    0.2470 ca        1 YSA      0.467800
     31 N3         -7.3440   10.1170   -0.8410 nb        1 YSA     -0.724000
     32 C2         -7.0620   11.3730   -1.3670 ca        1 YSA      0.732900
     33 N1         -6.1970   12.2900   -0.9370 nb        1 YSA     -0.714000
     34 C6         -5.4330   12.0090    0.2060 ca        1 YSA      0.801200
     35 N6         -4.5440   12.9080    0.6800 nv        1 YSA     -0.892500
     36 HD1         0.1700   -2.0020   -0.3300 ha        1 YSA      0.138000
     37 HE1         1.5020   -4.1170   -0.2330 ha        1 YSA      0.169500
     38 HOH         2.3010   -5.6770    2.8150 ho        1 YSA      0.443000
     39 HE2         1.2790   -4.0340    4.1030 ha        1 YSA      0.169500
     40 HD2        -0.0490   -1.9370    3.9980 ha        1 YSA      0.138000
     41 HB1        -1.3360   -0.3970    2.7420 hc        1 YSA      0.090200
     42 HB2        -1.6010   -0.6820    0.9720 hc        1 YSA      0.090200
     43 HA          0.4150    0.5420    0.3390 hx        1 YSA      0.120700
     44 HN1         2.0130    1.2190    1.7760 hn        1 YSA      0.472800
     45 HN2         1.5430   -0.1830    2.5750 hn        1 YSA      0.472800
     46 HAT        -2.3770    2.9550    0.6970 hn        1 YSA      0.349500
     47 H5'1       -6.5660    5.4870   -3.2220 h1        1 YSA      0.108200
     48 H5'2       -6.4800    3.8190   -2.4420 h1        1 YSA      0.108200
     49 H4'        -7.4960    4.6950   -0.4880 h1        1 YSA      0.111700
     50 H3'        -7.1280    7.5260   -1.8070 h1        1 YSA      0.118700
     51 H3         -9.3310    5.7400   -1.8530 ho        1 YSA      0.432000
     52 H2'        -9.0160    8.1760   -0.3010 h1        1 YSA      0.137700
     53 H1        -10.0310    6.6140    0.8220 ho        1 YSA      0.448000
     54 H1'        -7.1920    6.7800    1.7780 h4        1 YSA      0.085800
     55 H8         -5.3960    8.2170    2.9080 h5        1 YSA      0.112800
     56 H2         -7.6520   11.6360   -2.2790 h5        1 YSA      0.099100
     57 HN61       -4.4160   13.7900    0.2320 hn        1 YSA      0.478800
     58 HN62       -4.0110   12.6960    1.4920 hn        1 YSA      0.478800
     59 HN3         1.0170    1.3300    3.1100 hn        1 YSA      0.472800
     60 HAT2       -1.9860    1.4900   -0.0950 hn        1 YSA      0.349500
@<TRIPOS>BOND
     1    1    2 ar  
     2    1    7 ar  
     3    1   36 1   
     4    2    3 ar  
     5    2   37 1   
     6    3    4 1   
     7    3    5 ar  
     8    4   38 1   
     9    5    6 ar  
    10    5   39 1   
    11    6    7 ar  
    12    6   40 1   
    13    7    8 1   
    14    8    9 1   
    15    8   41 1   
    16    8   42 1   
    17    9   10 1   
    18    9   11 1   
    19    9   43 1   
    20   10   44 1   
    21   10   45 1   
    22   10   59 1   
    23   11   12 2   
    24   11   13 1   
    25   13   46 1   
    26   13   60 1   
    27   14   15 2   
    28   14   16 2   
    29   14   17 1   
    30   14   20 1   
    31   17   18 1   
    32   18   19 1   
    33   18   47 1   
    34   18   48 1   
    35   19   20 1   
    36   19   21 1   
    37   19   49 1   
    38   21   22 1   
    39   21   23 1   
    40   21   50 1   
    41   22   51 1   
    42   23   24 1   
    43   23   25 1   
    44   23   52 1   
    45   24   53 1   
    46   25   26 2   
    47   25   54 1   
    48   26   27 1   
    49   26   30 1   
    50   27   28 2   
    51   27   55 1   
    52   28   29 1   
    53   29   30 ar  
    54   29   34 ar  
    55   30   31 ar  
    56   31   32 ar  
    57   32   33 ar  
    58   32   56 1   
    59   33   34 ar  
    60   34   35 1   
    61   35   57 1   
    62   35   58 1   
@<TRIPOS>SUBSTRUCTURE
     1 YSA         1 TEMP              0 ****  ****    0 ROOT
