@<TRIPOS>MOLECULE
YSA
   58    61     1     0     0
SMALL
bcc


@<TRIPOS>ATOM
      1 CD1        -5.5850    1.5600   -0.6380 ca        1 YSA     -0.093500
      2 CE1        -6.3990    2.6670   -0.4330 ca        1 YSA     -0.182500
      3 CZ         -5.8090    3.8920   -0.0770 ca        1 YSA      0.128100
      4 OH         -6.6650    4.9510    0.1170 oh        1 YSA     -0.494100
      5 CE2        -4.4200    4.0030    0.0670 ca        1 YSA     -0.182500
      6 CD2        -3.6220    2.8820   -0.1450 ca        1 YSA     -0.093500
      7 CG         -4.1940    1.6530   -0.4930 ca        1 YSA     -0.126300
      8 CB         -3.3330    0.4640   -0.7220 c3        1 YSA     -0.069100
      9 CA         -3.0510   -0.2780    0.5990 c3        1 YSA      0.108500
     10 N          -2.4080    0.5050    1.6330 n3        1 YSA     -0.913800
     11 C          -2.2210   -1.5350    0.2710 c         1 YSA      0.690100
     12 O          -1.8750   -1.8230   -0.8830 o         1 YSA     -0.555100
     13 NAT        -1.8690   -2.3760    1.3320 n         1 YSA     -0.700300
     14 SBI        -1.1100   -3.8210    1.2670 s6        1 YSA      1.701100
     15 OAD        -0.7680   -4.1840    2.5670 o         1 YSA     -0.634300
     16 OAE        -1.7000   -4.7280    0.4140 o         1 YSA     -0.634300
     17 O5'         0.3640   -3.4910    0.5410 os        1 YSA     -0.550500
     18 C5'         1.4230   -2.8880    1.2440 c3        1 YSA      0.161400
     19 C4'         2.6930   -3.0640    0.4110 c3        1 YSA      0.093100
     20 O4'         2.5980   -2.3320   -0.8180 os        1 YSA     -0.384600
     21 C3'         3.9280   -2.5410    1.1790 c3        1 YSA      0.128100
     22 O3'         4.9670   -3.4850    1.1930 oh        1 YSA     -0.569800
     23 C2'         4.3000   -1.2130    0.4790 c3        1 YSA      0.081100
     24 O2'         5.6180   -1.3190   -0.0090 oh        1 YSA     -0.588800
     25 C1'         3.3180   -1.1020   -0.7360 c3        1 YSA      0.216800
     26 N9          2.3980    0.0120   -0.6450 na        1 YSA     -0.291000
     27 C8          0.9930   -0.0010   -0.8220 cc        1 YSA      0.431700
     28 N7          0.4400    1.2200   -0.7680 nd        1 YSA     -0.576100
     29 C5          1.5110    2.1040   -0.5690 ca        1 YSA     -0.219200
     30 C4          2.7620    1.3580   -0.4930 ca        1 YSA      0.446800
     31 N3          3.9860    1.9400   -0.3120 nb        1 YSA     -0.749000
     32 C2          3.9100    3.2880   -0.2180 ca        1 YSA      0.685900
     33 N1          2.8280    4.1100   -0.2800 nb        1 YSA     -0.784000
     34 C6          1.5940    3.5310   -0.4480 ca        1 YSA      0.742200
     35 N6          0.4450    4.2940   -0.4470 nh        1 YSA     -0.939500
     36 HD1        -6.0390    0.5980   -0.9230 ha        1 YSA      0.136000
     37 HE1        -7.4910    2.6030   -0.5460 ha        1 YSA      0.145000
     38 HOH        -6.1340    5.7280    0.3450 ho        1 YSA      0.421000
     39 HE2        -3.9660    4.9660    0.3420 ha        1 YSA      0.145000
     40 HD2        -2.5280    2.9660   -0.0450 ha        1 YSA      0.136000
     41 HB1        -2.3600    0.7680   -1.1930 hc        1 YSA      0.080200
     42 HB2        -3.8310   -0.2520   -1.4290 hc        1 YSA      0.080200
     43 HA         -4.0410   -0.6420    1.0130 h1        1 YSA      0.082700
     44 HN1        -1.5630    0.9200    1.2880 hn        1 YSA      0.369300
     45 HN2        -3.0260    1.2340    1.9360 hn        1 YSA      0.369300
     46 HAT        -2.0900   -1.9940    2.2310 hn        1 YSA      0.359500
     47 H5'1        1.1930   -1.7960    1.3790 h1        1 YSA      0.051200
     48 H5'2        1.5520   -3.3890    2.2440 h1        1 YSA      0.051200
     49 H4'         2.8080   -4.1370    0.0970 h1        1 YSA      0.115700
     50 H3'         3.6930   -2.3650    2.2640 h1        1 YSA      0.094700
     51 H3          5.3760   -3.5000    0.3170 ho        1 YSA      0.426000
     52 H2'         4.2040   -0.3530    1.1910 h1        1 YSA      0.083700
     53 H1          5.9200   -0.4200   -0.2000 ho        1 YSA      0.433000
     54 H1'         3.8910   -1.0190   -1.7100 h2        1 YSA      0.106700
     55 H8          0.4560   -0.9500   -0.9940 h5        1 YSA      0.108800
     56 H2          4.8800    3.8120   -0.0750 h5        1 YSA      0.054100
     57 HN61       -0.3700    3.8720   -0.8270 hn        1 YSA      0.434300
     58 HN62        0.5300    5.2790   -0.5320 hn        1 YSA      0.434300
@<TRIPOS>BOND
     1    1    2 ar  
     2    1    7 ar  
     3    1   36 1   
     4    2    3 ar  
     5    2   37 1   
     6    3    4 1   
     7    3    5 ar  
     8    4   38 1   
     9    5    6 ar  
    10    5   39 1   
    11    6    7 ar  
    12    6   40 1   
    13    7    8 1   
    14    8    9 1   
    15    8   41 1   
    16    8   42 1   
    17    9   10 1   
    18    9   11 1   
    19    9   43 1   
    20   10   44 1   
    21   10   45 1   
    22   11   12 2   
    23   11   13 1   
    24   13   14 1   
    25   13   46 1   
    26   14   15 2   
    27   14   16 2   
    28   14   17 1   
    29   17   18 1   
    30   18   19 1   
    31   18   47 1   
    32   18   48 1   
    33   19   20 1   
    34   19   21 1   
    35   19   49 1   
    36   20   25 1   
    37   21   22 1   
    38   21   23 1   
    39   21   50 1   
    40   22   51 1   
    41   23   24 1   
    42   23   25 1   
    43   23   52 1   
    44   24   53 1   
    45   25   26 1   
    46   25   54 1   
    47   26   27 1   
    48   26   30 1   
    49   27   28 2   
    50   27   55 1   
    51   28   29 1   
    52   29   30 ar  
    53   29   34 ar  
    54   30   31 ar  
    55   31   32 ar  
    56   32   33 ar  
    57   32   56 1   
    58   33   34 ar  
    59   34   35 1   
    60   35   57 1   
    61   35   58 1   
@<TRIPOS>SUBSTRUCTURE
     1 YSA         1 TEMP              0 ****  ****    0 ROOT
