@<TRIPOS>MOLECULE
YSD
   77    79     1     0     0
SMALL
bcc


@<TRIPOS>ATOM
      1 CAB        -0.2660   -0.9920    0.5850 c3        1 YSD     -0.093600
      2 CAK         1.2300   -0.8620    0.4700 c3        1 YSD     -0.108400
      3 CBD         1.8920   -0.0990    1.6250 c3        1 YSD      0.152800
      4 CAL         1.1420    1.2130    1.8970 c3        1 YSD     -0.108400
      5 CAC         1.7920    2.0570    2.9620 c3        1 YSD     -0.093600
      6 OAH         1.9070   -0.9080    2.8010 oh        1 YSD     -0.597800
      7 CAS         3.3640    0.1920    1.3030 c3        1 YSD     -0.066400
      8 CAP         4.1340   -1.0370    0.8670 c3        1 YSD     -0.080400
      9 CAY         5.6390   -0.7700    0.8230 c3        1 YSD     -0.054700
     10 CAD         6.2120   -0.9110    2.2200 c3        1 YSD     -0.092100
     11 CBC         6.3160   -1.7160   -0.1630 c3        1 YSD     -0.053700
     12 CAQ         5.7580   -1.5570   -1.5930 c3        1 YSD     -0.078400
     13 CAO         6.9210   -1.7280   -2.5720 c3        1 YSD     -0.073400
     14 CBB         8.0650   -2.2490   -1.7140 c3        1 YSD     -0.036500
     15 CBE         7.8440   -1.5580   -0.3390 c3        1 YSD     -0.040000
     16 CAE         8.2330   -0.0910   -0.3960 c3        1 YSD     -0.083100
     17 CAR         8.7040   -2.3040    0.6700 c3        1 YSD     -0.067400
     18 CAM        10.1660   -2.2680    0.2640 c3        1 YSD     -0.072400
     19 CAN        10.4290   -2.7060   -1.1680 c3        1 YSD     -0.044200
     20 CAX         9.4760   -2.1230   -2.1610 c2        1 YSD     -0.079400
     21 CAJ         9.8360   -1.6030   -3.3460 ce        1 YSD     -0.147000
     22 CAI        11.1930   -1.5300   -3.8440 ce        1 YSD     -0.121000
     23 CAW        11.6740   -0.5800   -4.6670 c2        1 YSD     -0.106400
     24 CAU        10.8840    0.5840   -5.1490 c3        1 YSD     -0.034200
     25 CAT        13.0980   -0.6180   -5.1090 c3        1 YSD     -0.034200
     26 CAZ        13.2920   -0.3320   -6.5990 c3        1 YSD      0.183300
     27 OAF        12.9470   -1.5230   -7.3000 oh        1 YSD     -0.594300
     28 CAV        12.4650    0.8410   -7.0500 c2        1 YSD     -0.193400
     29 CAA        12.9930    1.8750   -7.7050 c2        1 YSD     -0.198000
     30 CBA        11.0190    0.7330   -6.6670 c3        1 YSD      0.183300
     31 OAG        10.2550    1.8760   -7.0260 oh        1 YSD     -0.594300
     32 H1         -0.5600   -1.3910    1.5860 hc        1 YSD      0.035867
     33 H2         -0.7690   -0.0050    0.4360 hc        1 YSD      0.035867
     34 H3         -0.6470   -1.6950   -0.1950 hc        1 YSD      0.035867
     35 H4          1.4880   -0.3430   -0.4890 hc        1 YSD      0.047700
     36 H5          1.6830   -1.8900    0.4360 hc        1 YSD      0.047700
     37 H6          0.0960    0.9640    2.2210 hc        1 YSD      0.047700
     38 H7          1.0720    1.7880    0.9380 hc        1 YSD      0.047700
     39 H8          2.7290    2.5300    2.5810 hc        1 YSD      0.035867
     40 H9          2.0500    1.4280    3.8490 hc        1 YSD      0.035867
     41 H10         1.0980    2.8690    3.2880 hc        1 YSD      0.035867
     42 H11         0.9880   -1.0780    3.0350 ho        1 YSD      0.397000
     43 H12         3.8410    0.6210    2.2240 hc        1 YSD      0.049200
     44 H13         3.3990    0.9710    0.4980 hc        1 YSD      0.049200
     45 H14         3.7700   -1.3560   -0.1450 hc        1 YSD      0.049200
     46 H15         3.9220   -1.8790    1.5780 hc        1 YSD      0.049200
     47 H16         5.8030    0.2880    0.4720 hc        1 YSD      0.048700
     48 H17         7.2090   -0.4120    2.2920 hc        1 YSD      0.035367
     49 H18         6.3320   -1.9880    2.4900 hc        1 YSD      0.035367
     50 H19         5.5340   -0.4360    2.9700 hc        1 YSD      0.035367
     51 H20         6.1200   -2.7680    0.1850 hc        1 YSD      0.047700
     52 H21         5.2920   -0.5480   -1.7230 hc        1 YSD      0.041200
     53 H22         4.9700   -2.3260   -1.7840 hc        1 YSD      0.041200
     54 H23         7.1840   -0.7470   -3.0410 hc        1 YSD      0.044700
     55 H24         6.6670   -2.4430   -3.3910 hc        1 YSD      0.044700
     56 H25         7.8840   -3.3570   -1.5650 hc        1 YSD      0.055700
     57 H26         7.5160    0.4760   -1.0390 hc        1 YSD      0.037367
     58 H27         8.2260    0.3560    0.6270 hc        1 YSD      0.037367
     59 H28         9.2560    0.0270   -0.8290 hc        1 YSD      0.037367
     60 H29         8.5970   -1.8480    1.6880 hc        1 YSD      0.042700
     61 H30         8.3560   -3.3680    0.7420 hc        1 YSD      0.042700
     62 H31        10.5570   -1.2240    0.4030 hc        1 YSD      0.040200
     63 H32        10.7510   -2.9330    0.9530 hc        1 YSD      0.040200
     64 H33        11.4870   -2.4380   -1.4290 hc        1 YSD      0.046700
     65 H34        10.3430   -3.8260   -1.2300 hc        1 YSD      0.046700
     66 H35         9.0540   -1.2140   -4.0240 ha        1 YSD      0.128000
     67 H36        11.8640   -2.3450   -3.5170 ha        1 YSD      0.124000
     68 H37        11.2560    1.5210   -4.6540 hc        1 YSD      0.062950
     69 H38         9.7960    0.4860   -4.8970 hc        1 YSD      0.062950
     70 H39        13.6710    0.1610   -4.5350 hc        1 YSD      0.062950
     71 H40        13.5530   -1.6200   -4.8870 hc        1 YSD      0.062950
     72 H41        14.3860   -0.1200   -6.7870 h1        1 YSD      0.044700
     73 H42        12.9530   -1.3060   -8.2400 ho        1 YSD      0.400000
     74 H44        12.3970    2.7480   -8.0020 ha        1 YSD      0.119500
     75 H45        14.0580    1.9230   -7.9710 ha        1 YSD      0.119500
     76 H47        10.5890   -0.1800   -7.1750 h1        1 YSD      0.044700
     77 H48        10.2800    1.9350   -7.9880 ho        1 YSD      0.400000
@<TRIPOS>BOND
     1    1    2 1   
     2    1   32 1   
     3    1   33 1   
     4    1   34 1   
     5    2    3 1   
     6    2   35 1   
     7    2   36 1   
     8    3    4 1   
     9    3    6 1   
    10    3    7 1   
    11    4    5 1   
    12    4   37 1   
    13    4   38 1   
    14    5   39 1   
    15    5   40 1   
    16    5   41 1   
    17    6   42 1   
    18    7    8 1   
    19    7   43 1   
    20    7   44 1   
    21    8    9 1   
    22    8   45 1   
    23    8   46 1   
    24    9   10 1   
    25    9   11 1   
    26    9   47 1   
    27   10   48 1   
    28   10   49 1   
    29   10   50 1   
    30   11   12 1   
    31   11   15 1   
    32   11   51 1   
    33   12   13 1   
    34   12   52 1   
    35   12   53 1   
    36   13   14 1   
    37   13   54 1   
    38   13   55 1   
    39   14   15 1   
    40   14   20 1   
    41   14   56 1   
    42   15   16 1   
    43   15   17 1   
    44   16   57 1   
    45   16   58 1   
    46   16   59 1   
    47   17   18 1   
    48   17   60 1   
    49   17   61 1   
    50   18   19 1   
    51   18   62 1   
    52   18   63 1   
    53   19   20 1   
    54   19   64 1   
    55   19   65 1   
    56   20   21 2   
    57   21   22 1   
    58   21   66 1   
    59   22   23 2   
    60   22   67 1   
    61   23   24 1   
    62   23   25 1   
    63   24   30 1   
    64   24   68 1   
    65   24   69 1   
    66   25   26 1   
    67   25   70 1   
    68   25   71 1   
    69   26   27 1   
    70   26   28 1   
    71   26   72 1   
    72   27   73 1   
    73   28   29 2   
    74   28   30 1   
    75   29   74 1   
    76   29   75 1   
    77   30   31 1   
    78   30   76 1   
    79   31   77 1   
@<TRIPOS>SUBSTRUCTURE
     1 YSD         1 TEMP              0 ****  ****    0 ROOT
