@<TRIPOS>MOLECULE
YSD
   77    76     1     0     0
SMALL
bcc


@<TRIPOS>ATOM
      1 CAB        -0.6800    1.7840   -6.1000 c3        1 YSD     -0.211000
      2 CAK        -0.3470    1.6890   -4.5950 c3        1 YSD     -0.186000
      3 CBD        -1.5160    2.2920   -3.7670 c3        1 YSD      0.082000
      4 CAL        -1.4150    3.8310   -3.7830 c3        1 YSD     -0.186000
      5 CAC         0.0530    4.2500   -3.6540 c3        1 YSD     -0.211000
      6 OAH        -2.7640    1.8910   -4.3400 oh        1 YSD     -0.327000
      7 CAS        -1.4320    1.7780   -2.2850 c3        1 YSD     -0.144000
      8 CAP        -1.9600    0.3100   -2.2080 c3        1 YSD     -0.150000
      9 CAY        -2.3990    0.0190   -0.8310 c3        1 YSD     -0.097000
     10 CAD        -3.7370    0.5260   -0.6340 c3        1 YSD     -0.212000
     11 CBC        -2.3840   -1.6460   -0.5710 c3        1 YSD     -0.090000
     12 CAQ        -1.0560   -2.3620   -1.4040 c3        1 YSD     -0.161000
     13 CAO        -0.2500   -2.6490   -0.5420 c3        1 YSD     -0.149000
     14 CBB        -0.7190   -1.9670    0.6430 c3        1 YSD     -0.070000
     15 CBE        -2.2260   -1.8470    0.4280 c3        1 YSD     -0.037000
     16 CAE        -2.7400   -0.6610    1.2500 c3        1 YSD     -0.201000
     17 CAR        -2.6580   -2.5350    0.6540 c3        1 YSD     -0.148000
     18 CAM        -1.6260   -4.0570    0.7840 c3        1 YSD     -0.153000
     19 CAN        -0.6900   -3.5670    2.0330 c3        1 YSD     -0.125000
     20 CAX        -0.1160   -2.5710    1.7050 c2        1 YSD     -0.075000
     21 CAJ         0.5620   -1.7900    2.6760 c1        1 YSD     -0.154000
     22 CAI         1.3150   -0.4870    2.2490 c1        1 YSD     -0.121000
     23 CAW         2.2760    0.0990    3.1200 c1        1 YSD     -0.098000
     24 CAU         3.0420    1.3760    2.7500 c3        1 YSD     -0.117000
     25 CAT         2.6140   -0.5070    4.4940 c2        1 YSD     -0.117000
     26 CAZ         4.1460   -0.7270    4.6060 c3        1 YSD      0.069000
     27 OAF         4.5610   -1.8580    3.8190 oh        1 YSD     -0.320000
     28 CAV         4.9060    0.5510    4.2330 c2        1 YSD     -0.185000
     29 CAA         5.8400    1.1180    5.0700 c1        1 YSD     -0.198000
     30 CBA         4.5600    1.1530    2.8720 c3        1 YSD      0.067000
     31 OAG         5.3180    2.3730    2.6040 oh        1 YSD     -0.323000
     32 H1         -1.5910    1.4390   -6.2570 hc        1 YSD      0.074167
     33 H2         -0.6310    2.7170   -6.3860 hc        1 YSD      0.074167
     34 H3         -0.0320    1.2480   -6.6150 hc        1 YSD      0.074167
     35 H4         -0.2220    0.7520   -4.3470 hc        1 YSD      0.088000
     36 H5          0.4820    2.1920   -4.4090 hc        1 YSD      0.088000
     37 H6         -1.7780    4.1720   -4.6260 hc        1 YSD      0.088000
     38 H7         -1.9300    4.2020   -3.0300 hc        1 YSD      0.088000
     39 H8          0.1020    5.1720   -3.3080 hc        1 YSD      0.074167
     40 H9          0.5100    3.6480   -3.0390 hc        1 YSD      0.074167
     41 H10         0.4820    4.2080   -4.5300 hc        1 YSD      0.074167
     42 H11        -3.1670    2.6060   -4.7090 ho        1 YSD      0.196000
     43 H12        -0.4990    1.8060   -1.9820 hc        1 YSD      0.085000
     44 H13        -1.9820    2.3550   -1.7060 hc        1 YSD      0.085000
     45 H14        -1.2440   -0.3090   -2.4600 hc        1 YSD      0.090000
     46 H15        -2.7100    0.2030   -2.8160 hc        1 YSD      0.090000
     47 H16        -1.7890    0.4530   -0.1960 hc        1 YSD      0.085000
     48 H17        -3.7320    1.1930    0.0800 hc        1 YSD      0.073000
     49 H18        -4.0570    0.9430   -1.4690 hc        1 YSD      0.073000
     50 H19        -4.3370   -0.2170   -0.3870 hc        1 YSD      0.073000
     51 H20        -3.2320   -2.0460   -0.8700 hc        1 YSD      0.090000
     52 H21        -1.3500   -3.1740   -1.8800 hc        1 YSD      0.085500
     53 H22        -0.6660   -1.7230   -2.0320 hc        1 YSD      0.085500
     54 H23        -0.2380   -3.6190   -0.3950 hc        1 YSD      0.082000
     55 H24         0.6410   -2.3300   -0.7890 hc        1 YSD      0.082000
     56 H25        -0.3650   -1.0610    0.6100 hc        1 YSD      0.095000
     57 H26        -2.1250   -0.4880    1.9940 hc        1 YSD      0.075333
     58 H27        -2.7930    0.1220    0.6870 hc        1 YSD      0.075333
     59 H28        -3.6310   -0.8710    1.6040 hc        1 YSD      0.075333
     60 H29        -3.3650   -2.6930   -0.0090 hc        1 YSD      0.078500
     61 H30        -3.0800   -2.3680    1.5280 hc        1 YSD      0.078500
     62 H31        -1.1020   -4.2050   -0.0200 hc        1 YSD      0.081500
     63 H32        -2.1670   -4.8440    1.0230 hc        1 YSD      0.081500
     64 H33        -1.2160   -3.5690    2.8620 hc        1 YSD      0.087500
     65 H34         0.0040   -4.2290    2.2570 hc        1 YSD      0.087500
     66 H35         0.5640   -2.0710    3.6140 ha        1 YSD      0.128000
     67 H36         1.1290   -0.0790    1.3860 ha        1 YSD      0.124000
     68 H37         2.8890    1.7400    1.8630 hc        1 YSD      0.101500
     69 H38         2.7040    2.1010    3.3100 hc        1 YSD      0.101500
     70 H39         2.2280   -0.1190    5.3070 ha        1 YSD      0.102500
     71 H40         2.1710   -1.3750    4.4970 ha        1 YSD      0.102500
     72 H41         4.3950   -1.0220    5.5050 h1        1 YSD      0.075000
     73 H42         5.2990   -2.2010    4.1630 ho        1 YSD      0.199000
     74 H44         6.3140    1.9460    4.7970 DU        1 YSD      0.123000
     75 H45         6.0370    0.7050    5.9330 ha        1 YSD      0.116000
     76 H47         4.8770    0.5780    2.1570 h1        1 YSD      0.094000
     77 H48         5.7220    2.3040    1.8110 ho        1 YSD      0.199000
@<TRIPOS>BOND
     1    1    2 1   
     2    1   32 1   
     3    1   33 1   
     4    1   34 1   
     5    2    3 1   
     6    2   35 1   
     7    2   36 1   
     8    3    4 1   
     9    3    6 1   
    10    3    7 1   
    11    4    5 1   
    12    4   37 1   
    13    4   38 1   
    14    5   39 1   
    15    5   40 1   
    16    5   41 1   
    17    6   42 1   
    18    7    8 1   
    19    7   43 1   
    20    7   44 1   
    21    8    9 1   
    22    8   45 1   
    23    8   46 1   
    24    9   10 1   
    25    9   11 1   
    26    9   47 1   
    27   10   48 1   
    28   10   49 1   
    29   10   50 1   
    30   11   12 1   
    31   11   15 1   
    32   11   51 1   
    33   12   13 1   
    34   12   52 1   
    35   12   53 1   
    36   13   14 1   
    37   13   54 1   
    38   13   55 1   
    39   14   15 1   
    40   14   20 1   
    41   14   56 1   
    42   15   16 1   
    43   15   17 1   
    44   16   57 1   
    45   16   58 1   
    46   16   59 1   
    47   17   18 1   
    48   17   60 1   
    49   17   61 1   
    50   18   19 1   
    51   18   62 1   
    52   18   63 1   
    53   19   20 1   
    54   19   64 1   
    55   19   65 1   
    56   20   21 1   
    57   21   66 1   
    58   22   23 1   
    59   22   67 1   
    60   23   24 1   
    61   24   30 1   
    62   24   68 1   
    63   24   69 1   
    64   25   26 1   
    65   25   70 1   
    66   25   71 1   
    67   26   27 1   
    68   26   28 1   
    69   26   72 1   
    70   27   73 1   
    71   28   29 1   
    72   28   30 1   
    73   29   75 1   
    74   30   31 1   
    75   30   76 1   
    76   31   77 1   
@<TRIPOS>SUBSTRUCTURE
     1 YSD         1 TEMP              0 ****  ****    0 ROOT
