@<TRIPOS>MOLECULE
YSD
   77    79     1     0     0
SMALL
bcc


@<TRIPOS>ATOM
      1 CAB         7.7580    2.3320    1.7170 c3        1 YSD     -0.092600
      2 CAK         6.4690    1.7600    1.1850 c3        1 YSD     -0.086400
      3 CBD         6.6430    1.0220   -0.1490 c3        1 YSD      0.152800
      4 CAL         7.3400    1.9310   -1.1710 c3        1 YSD     -0.086400
      5 CAC         7.4030    1.3390   -2.5550 c3        1 YSD     -0.092600
      6 OAH         7.5120   -0.0990    0.0210 oh        1 YSD     -0.597800
      7 CAS         5.2840    0.5590   -0.6920 c3        1 YSD     -0.110400
      8 CAP         4.4110   -0.1370    0.3300 c3        1 YSD     -0.080400
      9 CAY         3.2040   -0.8080   -0.3290 c3        1 YSD     -0.054700
     10 CAD         3.6240   -2.1510   -0.8940 c3        1 YSD     -0.093100
     11 CBC         2.0640   -0.9480    0.6750 c3        1 YSD     -0.054700
     12 CAQ         1.6130    0.4180    1.2310 c3        1 YSD     -0.079400
     13 CAO         0.0930    0.3720    1.4080 c3        1 YSD     -0.073400
     14 CBB        -0.2670   -1.0930    1.2130 c3        1 YSD     -0.035500
     15 CBE         0.7570   -1.5920    0.1550 c3        1 YSD     -0.040000
     16 CAE         0.4120   -1.0700   -1.2290 c3        1 YSD     -0.083100
     17 CAR         0.7140   -3.1120    0.1850 c3        1 YSD     -0.067400
     18 CAM        -0.6850   -3.6170   -0.1220 c3        1 YSD     -0.072400
     19 CAN        -1.7790   -2.9830    0.7210 c3        1 YSD     -0.044200
     20 CAX        -1.6510   -1.4990    0.8560 c2        1 YSD     -0.081400
     21 CAJ        -2.6710   -0.6340    0.7350 ce        1 YSD     -0.145000
     22 CAI        -4.0440   -1.0010    0.4610 ce        1 YSD     -0.122000
     23 CAW        -4.9340   -0.2490   -0.2110 c2        1 YSD     -0.104400
     24 CAU        -4.6180    1.0660   -0.8290 c3        1 YSD     -0.035200
     25 CAT        -6.3250   -0.7430   -0.4290 c3        1 YSD     -0.035200
     26 CAZ        -7.4040    0.3140   -0.1850 c3        1 YSD      0.183300
     27 OAF        -7.5650    0.4260    1.2260 oh        1 YSD     -0.594300
     28 CAV        -7.0390    1.6320   -0.8110 c2        1 YSD     -0.194400
     29 CAA        -7.8620    2.2810   -1.6350 c2        1 YSD     -0.198000
     30 CBA        -5.6670    2.1110   -0.4370 c3        1 YSD      0.183300
     31 OAG        -5.2940    3.3160   -1.0900 oh        1 YSD     -0.594300
     32 H1          8.0750    3.2230    1.1230 hc        1 YSD      0.037200
     33 H2          7.6280    2.6500    2.7800 hc        1 YSD      0.037200
     34 H3          8.5700    1.5660    1.6670 hc        1 YSD      0.037200
     35 H4          6.0550    1.0400    1.9400 hc        1 YSD      0.045450
     36 H5          5.7140    2.5760    1.0450 hc        1 YSD      0.045450
     37 H6          6.7960    2.9110   -1.1930 hc        1 YSD      0.045450
     38 H7          8.3850    2.1200   -0.8080 hc        1 YSD      0.045450
     39 H8          8.0790    1.9490   -3.2010 hc        1 YSD      0.037200
     40 H9          7.7970    0.2940   -2.5100 hc        1 YSD      0.037200
     41 H10         6.3920    1.3170   -3.0300 hc        1 YSD      0.037200
     42 H11         7.1010   -0.6760    0.6730 ho        1 YSD      0.397000
     43 H12         4.7410    1.4540   -1.0940 hc        1 YSD      0.053700
     44 H13         5.4800   -0.1360   -1.5520 hc        1 YSD      0.053700
     45 H14         5.0040   -0.9130    0.8820 hc        1 YSD      0.039200
     46 H15         4.0650    0.6150    1.0870 hc        1 YSD      0.039200
     47 H16         2.8540   -0.1540   -1.1770 hc        1 YSD      0.052700
     48 H17         4.6160   -2.0700   -1.4020 hc        1 YSD      0.035700
     49 H18         3.7070   -2.9130   -0.0810 hc        1 YSD      0.035700
     50 H19         2.8820   -2.5130   -1.6470 hc        1 YSD      0.035700
     51 H20         2.4380   -1.5790    1.5290 hc        1 YSD      0.046700
     52 H21         2.1140    0.6180    2.2100 hc        1 YSD      0.041200
     53 H22         1.8930    1.2410    0.5280 hc        1 YSD      0.041200
     54 H23        -0.2140    0.7370    2.4180 hc        1 YSD      0.045700
     55 H24        -0.4070    1.0160    0.6430 hc        1 YSD      0.045700
     56 H25        -0.0300   -1.6210    2.1860 hc        1 YSD      0.054700
     57 H26         1.0500   -1.5600   -2.0030 hc        1 YSD      0.038033
     58 H27        -0.6590   -1.2770   -1.4690 hc        1 YSD      0.038033
     59 H28         0.5720    0.0350   -1.2790 hc        1 YSD      0.038033
     60 H29         1.4290   -3.5380   -0.5650 hc        1 YSD      0.041700
     61 H30         1.0340   -3.4740    1.1970 hc        1 YSD      0.041700
     62 H31        -0.9080   -3.4320   -1.2070 hc        1 YSD      0.040700
     63 H32        -0.7120   -4.7270    0.0360 hc        1 YSD      0.040700
     64 H33        -2.7710   -3.2560    0.2740 hc        1 YSD      0.047200
     65 H34        -1.7460   -3.4230    1.7560 hc        1 YSD      0.047200
     66 H35        -2.4810    0.4460    0.8750 ha        1 YSD      0.128000
     67 H36        -4.3640   -1.9790    0.8630 ha        1 YSD      0.124000
     68 H37        -3.6090    1.4440   -0.5190 hc        1 YSD      0.062950
     69 H38        -4.6040    0.9620   -1.9470 hc        1 YSD      0.062950
     70 H39        -6.4190   -1.0870   -1.4950 hc        1 YSD      0.062950
     71 H40        -6.5410   -1.6180    0.2400 hc        1 YSD      0.062950
     72 H41        -8.3790   -0.0570   -0.6200 h1        1 YSD      0.044700
     73 H42        -8.1560    1.1730    1.3810 ho        1 YSD      0.400000
     74 H44        -8.8620    1.9040   -1.8890 ha        1 YSD      0.119500
     75 H45        -7.5810    3.2250   -2.1220 ha        1 YSD      0.119500
     76 H47        -5.6440    2.2670    0.6820 h1        1 YSD      0.044700
     77 H48        -5.9120    3.9950   -0.7940 ho        1 YSD      0.400000
@<TRIPOS>BOND
     1    1    2 1   
     2    1   32 1   
     3    1   33 1   
     4    1   34 1   
     5    2    3 1   
     6    2   35 1   
     7    2   36 1   
     8    3    4 1   
     9    3    6 1   
    10    3    7 1   
    11    4    5 1   
    12    4   37 1   
    13    4   38 1   
    14    5   39 1   
    15    5   40 1   
    16    5   41 1   
    17    6   42 1   
    18    7    8 1   
    19    7   43 1   
    20    7   44 1   
    21    8    9 1   
    22    8   45 1   
    23    8   46 1   
    24    9   10 1   
    25    9   11 1   
    26    9   47 1   
    27   10   48 1   
    28   10   49 1   
    29   10   50 1   
    30   11   12 1   
    31   11   15 1   
    32   11   51 1   
    33   12   13 1   
    34   12   52 1   
    35   12   53 1   
    36   13   14 1   
    37   13   54 1   
    38   13   55 1   
    39   14   15 1   
    40   14   20 1   
    41   14   56 1   
    42   15   16 1   
    43   15   17 1   
    44   16   57 1   
    45   16   58 1   
    46   16   59 1   
    47   17   18 1   
    48   17   60 1   
    49   17   61 1   
    50   18   19 1   
    51   18   62 1   
    52   18   63 1   
    53   19   20 1   
    54   19   64 1   
    55   19   65 1   
    56   20   21 2   
    57   21   22 1   
    58   21   66 1   
    59   22   23 2   
    60   22   67 1   
    61   23   24 1   
    62   23   25 1   
    63   24   30 1   
    64   24   68 1   
    65   24   69 1   
    66   25   26 1   
    67   25   70 1   
    68   25   71 1   
    69   26   27 1   
    70   26   28 1   
    71   26   72 1   
    72   27   73 1   
    73   28   29 2   
    74   28   30 1   
    75   29   74 1   
    76   29   75 1   
    77   30   31 1   
    78   30   76 1   
    79   31   77 1   
@<TRIPOS>SUBSTRUCTURE
     1 YSD         1 TEMP              0 ****  ****    0 ROOT
