@<TRIPOS>MOLECULE
YSE
   71    73     1     0     0
SMALL
bcc


@<TRIPOS>ATOM
      1 O2          0.2100   -1.0420    0.0090 oh        1 YSE     -0.601800
      2 C23         1.6160   -1.0030    0.2000 c3        1 YSE      0.131400
      3 C22         1.8690   -0.2190    1.4770 c3        1 YSE     -0.083400
      4 C21         3.3600   -0.0140    1.7140 c3        1 YSE     -0.062700
      5 C24         3.6490    0.1370    3.2030 c3        1 YSE     -0.076400
      6 C25         3.6480   -1.1850    3.9260 c3        1 YSE     -0.094100
      7 C19         3.8750    1.1900    0.9060 c3        1 YSE     -0.052700
      8 C20         3.5350    2.4900    1.6070 c3        1 YSE     -0.090100
      9 C17         5.3710    1.0640    0.6320 c3        1 YSE     -0.054700
     10 C16         5.7120   -0.2310   -0.1350 c3        1 YSE     -0.078400
     11 C15         6.8510    0.0860   -1.1050 c3        1 YSE     -0.073400
     12 C10         7.3170    1.4770   -0.7040 c3        1 YSE     -0.036500
     13 C11         6.0170    2.1810   -0.2210 c3        1 YSE     -0.040000
     14 C18         5.1280    2.5500   -1.3960 c3        1 YSE     -0.083100
     15 C12         6.4480    3.4260    0.5400 c3        1 YSE     -0.067400
     16 C13         7.2740    4.3410   -0.3470 c3        1 YSE     -0.072400
     17 C14         8.4330    3.6540   -1.0480 c3        1 YSE     -0.045200
     18 C8          8.0740    2.3340   -1.6530 c2        1 YSE     -0.080400
     19 C7          8.4440    1.9360   -2.8810 ce        1 YSE     -0.146000
     20 C6          9.2450    2.7160   -3.8000 ce        1 YSE     -0.125000
     21 C5          9.1530    2.6820   -5.1420 c2        1 YSE     -0.099400
     22 C          10.0400    3.5370   -5.9820 c3        1 YSE     -0.054200
     23 C4          8.1630    1.8650   -5.8910 c3        1 YSE     -0.054200
     24 C3          8.8390    1.0650   -7.0090 c3        1 YSE      0.184300
     25 O           7.8680    0.3700   -7.7840 oh        1 YSE     -0.599300
     26 C2          9.6180    1.9770   -7.9080 c2        1 YSE     -0.171400
     27 C9          9.4320    2.0600   -9.2260 c2        1 YSE     -0.174000
     28 C1         10.6430    2.8040   -7.1830 c3        1 YSE      0.184300
     29 O1         11.7160    2.0080   -6.6880 oh        1 YSE     -0.599300
     30 H1          0.0560   -1.5460   -0.7980 ho        1 YSE      0.398000
     31 H2          2.0180   -2.0480    0.2910 h1        1 YSE      0.019200
     32 H3          2.1070   -0.5060   -0.6800 h1        1 YSE      0.019200
     33 H4          1.3400    0.7670    1.4130 hc        1 YSE      0.057200
     34 H5          1.4150   -0.7800    2.3350 hc        1 YSE      0.057200
     35 H6          3.8960   -0.9380    1.3560 hc        1 YSE      0.048700
     36 H7          2.8880    0.8200    3.6640 hc        1 YSE      0.042200
     37 H8          4.6530    0.6220    3.3360 hc        1 YSE      0.042200
     38 H9          3.8580   -1.0280    5.0120 hc        1 YSE      0.032700
     39 H10         2.6590   -1.6960    3.8310 hc        1 YSE      0.032700
     40 H11         4.4330   -1.8640    3.5120 hc        1 YSE      0.032700
     41 H12         3.3400    1.1800   -0.0880 hc        1 YSE      0.050700
     42 H13         2.5060    2.4440    2.0400 hc        1 YSE      0.035367
     43 H14         4.2550    2.6990    2.4340 hc        1 YSE      0.035367
     44 H15         3.5650    3.3430    0.8870 hc        1 YSE      0.035367
     45 H16         5.9030    1.0460    1.6230 hc        1 YSE      0.048700
     46 H17         4.8190   -0.6000   -0.6980 hc        1 YSE      0.040700
     47 H18         6.0200   -1.0320    0.5830 hc        1 YSE      0.040700
     48 H19         6.4790    0.0740   -2.1600 hc        1 YSE      0.043700
     49 H20         7.6790   -0.6600   -1.0250 hc        1 YSE      0.043700
     50 H21         7.9860    1.3510    0.2010 hc        1 YSE      0.056700
     51 H22         4.2820    3.1970   -1.0610 hc        1 YSE      0.037367
     52 H23         5.7130    3.1030   -2.1710 hc        1 YSE      0.037367
     53 H24         4.7070    1.6290   -1.8690 hc        1 YSE      0.037367
     54 H25         5.5520    3.9880    0.9100 hc        1 YSE      0.042700
     55 H26         7.0490    3.1240    1.4380 hc        1 YSE      0.042700
     56 H27         6.6020    4.8020   -1.1190 hc        1 YSE      0.041200
     57 H28         7.6820    5.1790    0.2770 hc        1 YSE      0.041200
     58 H29         8.8350    4.3500   -1.8310 hc        1 YSE      0.048200
     59 H30         9.2580    3.4740   -0.3040 hc        1 YSE      0.048200
     60 H31         8.1500    0.9310   -3.2330 ha        1 YSE      0.123000
     61 H32        10.0000    3.3740   -3.3320 ha        1 YSE      0.126000
     62 H33        10.8840    3.9500   -5.3690 hc        1 YSE      0.058700
     63 H34         9.4370    4.4000   -6.3750 hc        1 YSE      0.058700
     64 H35         7.6210    1.1530   -5.2140 hc        1 YSE      0.058700
     65 H36         7.3910    2.5450   -6.3450 hc        1 YSE      0.058700
     66 H37         9.5540    0.3170   -6.5560 h1        1 YSE      0.044700
     67 H38         7.3580   -0.1660   -7.1650 ho        1 YSE      0.403000
     68 H39        10.0220    2.7330   -9.8620 ha        1 YSE      0.124500
     69 H40         8.6720    1.4580   -9.7440 ha        1 YSE      0.124500
     70 H41        11.0790    3.5710   -7.8910 h1        1 YSE      0.044700
     71 H42        11.9660    1.4030   -7.3960 ho        1 YSE      0.403000
@<TRIPOS>BOND
     1    1    2 1   
     2    1   30 1   
     3    2    3 1   
     4    2   31 1   
     5    2   32 1   
     6    3    4 1   
     7    3   33 1   
     8    3   34 1   
     9    4    5 1   
    10    4    7 1   
    11    4   35 1   
    12    5    6 1   
    13    5   36 1   
    14    5   37 1   
    15    6   38 1   
    16    6   39 1   
    17    6   40 1   
    18    7    8 1   
    19    7    9 1   
    20    7   41 1   
    21    8   42 1   
    22    8   43 1   
    23    8   44 1   
    24    9   10 1   
    25    9   13 1   
    26    9   45 1   
    27   10   11 1   
    28   10   46 1   
    29   10   47 1   
    30   11   12 1   
    31   11   48 1   
    32   11   49 1   
    33   12   13 1   
    34   12   18 1   
    35   12   50 1   
    36   13   14 1   
    37   13   15 1   
    38   14   51 1   
    39   14   52 1   
    40   14   53 1   
    41   15   16 1   
    42   15   54 1   
    43   15   55 1   
    44   16   17 1   
    45   16   56 1   
    46   16   57 1   
    47   17   18 1   
    48   17   58 1   
    49   17   59 1   
    50   18   19 2   
    51   19   20 1   
    52   19   60 1   
    53   20   21 2   
    54   20   61 1   
    55   21   22 1   
    56   21   23 1   
    57   22   28 1   
    58   22   62 1   
    59   22   63 1   
    60   23   24 1   
    61   23   64 1   
    62   23   65 1   
    63   24   25 1   
    64   24   26 1   
    65   24   66 1   
    66   25   67 1   
    67   26   27 2   
    68   26   28 1   
    69   27   68 1   
    70   27   69 1   
    71   28   29 1   
    72   28   70 1   
    73   29   71 1   
@<TRIPOS>SUBSTRUCTURE
     1 YSE         1 TEMP              0 ****  ****    0 ROOT
