@<TRIPOS>MOLECULE
YSH
   38    39     1     0     0
SMALL
bcc


@<TRIPOS>ATOM
      1 C1         -0.0470    0.2100    0.2430 cc        1 YSH     -0.131300
      2 N2          1.3070   -0.2020    0.0940 na        1 YSH      0.101300
      3 N3          1.7840   -0.7290    1.2560 nc        1 YSH     -0.557800
      4 C4          0.7760   -0.6660    2.1470 cd        1 YSH      0.343200
      5 C5         -0.4180   -0.0750    1.5510 cd        1 YSH     -0.248900
      6 C6          2.0720   -0.0770   -1.0790 ca        1 YSH      0.048800
      7 C7          3.3220   -0.7260   -1.2110 ca        1 YSH     -0.088000
      8 C8          4.0700   -0.6000   -2.3840 ca        1 YSH     -0.036000
      9 C9          3.5770    0.1790   -3.4540 ca        1 YSH      0.120100
     10 C10         2.3440    0.8250   -3.3290 ca        1 YSH     -0.187000
     11 C11         1.6040    0.7050   -2.1590 ca        1 YSH     -0.122000
     12 C12         5.3230   -1.2610   -2.4920 cg        1 YSH      0.268800
     13 N13         6.3500   -1.7990   -2.5850 n1        1 YSH     -0.398800
     14 O14         4.3870    0.2390   -4.5730 os        1 YSH     -0.324900
     15 C15         3.8800    1.0200   -5.6610 c3        1 YSH      0.135400
     16 C16         4.9130    0.9480   -6.7950 c3        1 YSH     -0.054000
     17 C17         4.3850    1.7770   -7.9560 c3        1 YSH     -0.087433
     18 C18         5.0960   -0.4950   -7.2340 c3        1 YSH     -0.087433
     19 C19         6.2400    1.5160   -6.3200 c3        1 YSH     -0.087433
     20 C20        -1.7400    0.1620    2.2240 c         1 YSH      0.934200
     21 O21        -1.8530   -0.1860    3.4330 o         1 YSH     -0.826800
     22 O22        -2.6590    0.6960    1.5410 o         1 YSH     -0.826800
     23 H1         -0.6280    0.6450   -0.5680 h4        1 YSH      0.178000
     24 H4          0.8600   -1.0180    3.1770 h4        1 YSH      0.052100
     25 H7          3.7240   -1.3400   -0.3870 ha        1 YSH      0.172000
     26 H10         1.9440    1.4390   -4.1480 ha        1 YSH      0.137000
     27 H11         0.6420    1.2380   -2.0890 ha        1 YSH      0.152000
     28 H151        2.8990    0.5960   -6.0020 h1        1 YSH      0.039700
     29 H152        3.7440    2.0820   -5.3270 h1        1 YSH      0.039700
     30 H171        5.1110    1.7480   -8.8030 hc        1 YSH      0.038367
     31 H172        3.4070    1.3730   -8.3120 hc        1 YSH      0.038367
     32 H173        4.2420    2.8390   -7.6460 hc        1 YSH      0.038367
     33 H181        5.8520   -0.5560   -8.0530 hc        1 YSH      0.038367
     34 H182        5.4460   -1.1130   -6.3720 hc        1 YSH      0.038367
     35 H183        4.1310   -0.9140   -7.6050 hc        1 YSH      0.038367
     36 H191        6.9980    1.4590   -7.1370 hc        1 YSH      0.038367
     37 H192        6.6100    0.9330   -5.4410 hc        1 YSH      0.038367
     38 H193        6.1200    2.5830   -6.0160 hc        1 YSH      0.038367
@<TRIPOS>BOND
     1    1    2 1   
     2    1    5 2   
     3    1   23 1   
     4    2    3 1   
     5    2    6 1   
     6    3    4 2   
     7    4    5 1   
     8    4   24 1   
     9    5   20 1   
    10    6    7 ar  
    11    6   11 ar  
    12    7    8 ar  
    13    7   25 1   
    14    8    9 ar  
    15    8   12 1   
    16    9   10 ar  
    17    9   14 1   
    18   10   11 ar  
    19   10   26 1   
    20   11   27 1   
    21   12   13 3   
    22   14   15 1   
    23   15   16 1   
    24   15   28 1   
    25   15   29 1   
    26   16   17 1   
    27   16   18 1   
    28   16   19 1   
    29   17   30 1   
    30   17   31 1   
    31   17   32 1   
    32   18   33 1   
    33   18   34 1   
    34   18   35 1   
    35   19   36 1   
    36   19   37 1   
    37   19   38 1   
    38   20   21 1   
    39   20   22 1   
@<TRIPOS>SUBSTRUCTURE
     1 YSH         1 TEMP              0 ****  ****    0 ROOT
