@<TRIPOS>MOLECULE
YSH
   38    39     1     0     0
SMALL
bcc


@<TRIPOS>ATOM
      1 C1         -0.0460    0.2000    0.2430 cc        1 YSH     -0.131300
      2 N2          1.3120   -0.1990    0.0970 na        1 YSH      0.101300
      3 N3          1.7950   -0.7140    1.2630 nc        1 YSH     -0.557800
      4 C4          0.7860   -0.6550    2.1530 cd        1 YSH      0.343200
      5 C5         -0.4140   -0.0800    1.5530 cd        1 YSH     -0.248900
      6 C6          2.0760   -0.0740   -1.0770 ca        1 YSH      0.048800
      7 C7          3.3320   -0.7110   -1.2040 ca        1 YSH     -0.088000
      8 C8          4.0790   -0.5850   -2.3780 ca        1 YSH     -0.036000
      9 C9          3.5780    0.1820   -3.4540 ca        1 YSH      0.120100
     10 C10         2.3380    0.8160   -3.3330 ca        1 YSH     -0.187000
     11 C11         1.5990    0.6960   -2.1630 ca        1 YSH     -0.122000
     12 C12         5.3400   -1.2320   -2.4810 cg        1 YSH      0.268800
     13 N13         6.3720   -1.7600   -2.5710 n1        1 YSH     -0.398800
     14 O14         4.3880    0.2430   -4.5730 os        1 YSH     -0.324900
     15 C15         3.8730    1.0140   -5.6650 c3        1 YSH      0.135400
     16 C16         4.9080    0.9460   -6.7980 c3        1 YSH     -0.054000
     17 C17         4.3720    1.7630   -7.9640 c3        1 YSH     -0.087433
     18 C18         5.1060   -0.4980   -7.2290 c3        1 YSH     -0.087433
     19 C19         6.2290    1.5300   -6.3250 c3        1 YSH     -0.087433
     20 C20        -1.7380    0.1470    2.2250 c         1 YSH      0.934200
     21 O21        -1.8480   -0.1940    3.4360 o         1 YSH     -0.826800
     22 O22        -2.6630    0.6680    1.5380 o         1 YSH     -0.826800
     23 H1         -0.6320    0.6230   -0.5700 h4        1 YSH      0.178000
     24 H4          0.8730   -0.9990    3.1860 h4        1 YSH      0.052100
     25 H7          3.7410   -1.3140   -0.3770 ha        1 YSH      0.172000
     26 H10         1.9320    1.4200   -4.1560 ha        1 YSH      0.137000
     27 H11         0.6310    1.2180   -2.0960 ha        1 YSH      0.152000
     28 H151        2.8970    0.5770   -6.0040 h1        1 YSH      0.039700
     29 H152        3.7260    2.0760   -5.3370 h1        1 YSH      0.039700
     30 H171        5.0990    1.7370   -8.8110 hc        1 YSH      0.038367
     31 H172        3.3980    1.3470   -8.3190 hc        1 YSH      0.038367
     32 H173        4.2170    2.8250   -7.6590 hc        1 YSH      0.038367
     33 H181        5.8630   -0.5550   -8.0470 hc        1 YSH      0.038367
     34 H182        5.4620   -1.1070   -6.3630 hc        1 YSH      0.038367
     35 H183        4.1450   -0.9280   -7.5990 hc        1 YSH      0.038367
     36 H191        6.9880    1.4770   -7.1420 hc        1 YSH      0.038367
     37 H192        6.6040    0.9560   -5.4440 hc        1 YSH      0.038367
     38 H193        6.0970    2.5970   -6.0270 hc        1 YSH      0.038367
@<TRIPOS>BOND
     1    1    2 1   
     2    1    5 2   
     3    1   23 1   
     4    2    3 1   
     5    2    6 1   
     6    3    4 2   
     7    4    5 1   
     8    4   24 1   
     9    5   20 1   
    10    6    7 ar  
    11    6   11 ar  
    12    7    8 ar  
    13    7   25 1   
    14    8    9 ar  
    15    8   12 1   
    16    9   10 ar  
    17    9   14 1   
    18   10   11 ar  
    19   10   26 1   
    20   11   27 1   
    21   12   13 3   
    22   14   15 1   
    23   15   16 1   
    24   15   28 1   
    25   15   29 1   
    26   16   17 1   
    27   16   18 1   
    28   16   19 1   
    29   17   30 1   
    30   17   31 1   
    31   17   32 1   
    32   18   33 1   
    33   18   34 1   
    34   18   35 1   
    35   19   36 1   
    36   19   37 1   
    37   19   38 1   
    38   20   21 1   
    39   20   22 1   
@<TRIPOS>SUBSTRUCTURE
     1 YSH         1 TEMP              0 ****  ****    0 ROOT
