@<TRIPOS>MOLECULE
YSH
   38    33     1     0     0
SMALL
bcc


@<TRIPOS>ATOM
      1 C1         -2.0790    0.0090    4.1240 c1        1 YSH     -0.104000
      2 N2         -2.4520    0.3850    2.8640 nh        1 YSH      0.094700
      3 N3         -3.7470    0.8120    2.9180 n2        1 YSH     -0.529800
      4 C4         -4.1790    0.6990    4.2170 c1        1 YSH      0.098400
      5 C5         -3.1520    0.2050    4.9620 c1        1 YSH     -0.163000
      6 C6         -1.6590    0.4170    1.7850 c1        1 YSH      0.040700
      7 C7         -0.7890    1.4930    1.5910 c1        1 YSH     -0.054500
      8 C8          0.0660    1.5090    0.4780 cg        1 YSH     -0.027000
      9 C9          0.0470    0.4480   -0.4350 c1        1 YSH      0.103600
     10 C10        -0.8290   -0.6320   -0.2360 c1        1 YSH     -0.134500
     11 C11        -1.6780   -0.6480    0.8680 c1        1 YSH     -0.041500
     12 C12         0.9450    2.7140    0.2180 cg        1 YSH      0.261800
     13 N13         1.6180    3.6350    0.0180 n1        1 YSH     -0.394800
     14 O14         0.8780    0.4880   -1.5880 os        1 YSH     -0.307400
     15 C15         1.2020   -0.8030   -2.1190 c3        1 YSH      0.135400
     16 C16         2.2240   -0.6440   -3.2640 c3        1 YSH     -0.054000
     17 C17         2.0840    0.7350   -3.8790 c3        1 YSH     -0.087433
     18 C18         1.9650   -1.7070   -4.3350 c3        1 YSH     -0.087433
     19 C19         3.6540   -0.8180   -2.7080 c3        1 YSH     -0.087433
     20 C20        -3.1980   -0.1070    6.4550 c1        1 YSH      0.850000
     21 O21        -3.6960   -1.2020    6.8590 o         1 YSH     -0.794500
     22 O22        -2.8060    0.7530    7.2900 o         1 YSH     -0.794500
     23 H1         -1.1730   -0.2800    4.3970 DU        1 YSH      0.184500
     24 H4         -5.0680    0.9330    4.5500 DU        1 YSH      0.184500
     25 H7         -0.8510    2.2600    2.1550 ha        1 YSH      0.102500
     26 H10        -0.8430   -1.3610   -0.8640 ha        1 YSH      0.077500
     27 H11        -2.2120   -1.4390    1.0560 ha        1 YSH      0.105500
     28 H151        1.5930   -1.3710   -1.3990 h1        1 YSH      0.039200
     29 H152        0.3790   -1.2320   -2.4690 h1        1 YSH      0.039200
     30 H171        2.3130    1.4160   -3.2090 hc        1 YSH      0.038367
     31 H172        1.1730    0.8660   -4.1730 hc        1 YSH      0.038367
     32 H173        2.7040    0.8160   -4.6630 hc        1 YSH      0.038367
     33 H181        1.2050   -2.2930   -4.0480 hc        1 YSH      0.038367
     34 H182        1.7350   -1.2620   -5.1990 hc        1 YSH      0.038367
     35 H183        2.7540   -2.2420   -4.4510 hc        1 YSH      0.038367
     36 H191        3.6460   -1.4900   -1.9960 hc        1 YSH      0.038367
     37 H192        4.2480   -1.1120   -3.4260 hc        1 YSH      0.038367
     38 H193        3.9780    0.0490   -2.3430 hc        1 YSH      0.038367
@<TRIPOS>BOND
     1    1    2 2   
     2    1    5 2   
     3    2    3 1   
     4    2    6 1   
     5    3    4 2   
     6    4    5 2   
     7    6   11 3   
     8    7    8 3   
     9    7   25 1   
    10    8   12 1   
    11    9   10 3   
    12    9   14 1   
    13   10   26 1   
    14   11   27 1   
    15   12   13 3   
    16   14   15 1   
    17   15   16 1   
    18   15   28 1   
    19   15   29 1   
    20   16   17 1   
    21   16   18 1   
    22   16   19 1   
    23   17   30 1   
    24   17   31 1   
    25   17   32 1   
    26   18   33 1   
    27   18   34 1   
    28   18   35 1   
    29   19   36 1   
    30   19   37 1   
    31   19   38 1   
    32   20   21 2   
    33   20   22 2   
@<TRIPOS>SUBSTRUCTURE
     1 YSH         1 TEMP              0 ****  ****    0 ROOT
