@<TRIPOS>MOLECULE
YSH
   38    39     1     0     0
SMALL
bcc


@<TRIPOS>ATOM
      1 C1          0.6890   -0.0100   -3.3730 cc        1 YSH     -0.131300
      2 N2         -0.3960    0.1030   -2.4590 na        1 YSH      0.101300
      3 N3         -1.5780    0.2440   -3.1220 nc        1 YSH     -0.557800
      4 C4         -1.2830    0.2270   -4.4360 cd        1 YSH      0.343200
      5 C5          0.1520    0.0660   -4.6530 cd        1 YSH     -0.248900
      6 C6         -0.2840    0.0890   -1.0580 ca        1 YSH      0.048800
      7 C7         -1.4260   -0.0350   -0.2330 ca        1 YSH     -0.088000
      8 C8         -1.3020   -0.0540    1.1590 ca        1 YSH     -0.036000
      9 C9         -0.0250    0.0460    1.7540 ca        1 YSH      0.120100
     10 C10         1.1080    0.1720    0.9450 ca        1 YSH     -0.187000
     11 C11         0.9830    0.1980   -0.4390 ca        1 YSH     -0.122000
     12 C12        -2.4650   -0.1780    1.9660 cg        1 YSH      0.268800
     13 N13        -3.4140   -0.2790    2.6310 n1        1 YSH     -0.398800
     14 O14        -0.0050    0.0130    3.1360 os        1 YSH     -0.324900
     15 C15         1.2920    0.1040    3.7370 c3        1 YSH      0.135400
     16 C16         1.0950    0.0380    5.2580 c3        1 YSH     -0.054000
     17 C17         2.4680    0.1360    5.9070 c3        1 YSH     -0.087433
     18 C18         0.4400   -1.2800    5.6360 c3        1 YSH     -0.087433
     19 C19         0.2260    1.1970    5.7170 c3        1 YSH     -0.087433
     20 C20         0.8630    0.0010   -5.9740 c         1 YSH      0.934200
     21 O21         0.1640    0.0860   -7.0220 o         1 YSH     -0.826800
     22 O22         2.1200   -0.1350   -5.9570 o         1 YSH     -0.826800
     23 H1          1.7210   -0.1450   -3.0570 h4        1 YSH      0.178000
     24 H4         -2.0330    0.3210   -5.2240 h4        1 YSH      0.052100
     25 H7         -2.4320   -0.1160   -0.6780 ha        1 YSH      0.172000
     26 H10         2.1100    0.2560    1.3870 ha        1 YSH      0.137000
     27 H11         1.8940    0.3110   -1.0480 ha        1 YSH      0.152000
     28 H151        1.7690    1.0780    3.4490 h1        1 YSH      0.039700
     29 H152        1.9270   -0.7530    3.3890 h1        1 YSH      0.039700
     30 H171        2.3660    0.0900    7.0180 hc        1 YSH      0.038367
     31 H172        3.1190   -0.7080    5.5750 hc        1 YSH      0.038367
     32 H173        2.9630    1.0980    5.6340 hc        1 YSH      0.038367
     33 H181        1.0830   -2.1370    5.3230 hc        1 YSH      0.038367
     34 H182        0.2870   -1.3320    6.7410 hc        1 YSH      0.038367
     35 H183       -0.5500   -1.3710    5.1280 hc        1 YSH      0.038367
     36 H191        0.7100    2.1700    5.4630 hc        1 YSH      0.038367
     37 H192       -0.7680    1.1490    5.2100 hc        1 YSH      0.038367
     38 H193        0.0730    1.1500    6.8220 hc        1 YSH      0.038367
@<TRIPOS>BOND
     1    1    2 1   
     2    1    5 2   
     3    1   23 1   
     4    2    3 1   
     5    2    6 1   
     6    3    4 2   
     7    4    5 1   
     8    4   24 1   
     9    5   20 1   
    10    6    7 ar  
    11    6   11 ar  
    12    7    8 ar  
    13    7   25 1   
    14    8    9 ar  
    15    8   12 1   
    16    9   10 ar  
    17    9   14 1   
    18   10   11 ar  
    19   10   26 1   
    20   11   27 1   
    21   12   13 3   
    22   14   15 1   
    23   15   16 1   
    24   15   28 1   
    25   15   29 1   
    26   16   17 1   
    27   16   18 1   
    28   16   19 1   
    29   17   30 1   
    30   17   31 1   
    31   17   32 1   
    32   18   33 1   
    33   18   34 1   
    34   18   35 1   
    35   19   36 1   
    36   19   37 1   
    37   19   38 1   
    38   20   21 1   
    39   20   22 1   
@<TRIPOS>SUBSTRUCTURE
     1 YSH         1 TEMP              0 ****  ****    0 ROOT
