@<TRIPOS>MOLECULE
YSL
   83    85     1     0     0
SMALL
bcc


@<TRIPOS>ATOM
      1 O33        -0.0600   -0.6900   -0.1440 oh        1 YSL     -0.602800
      2 C26         1.3490   -0.7700    0.0110 c3        1 YSL      0.130400
      3 C25         1.6840   -0.1340    1.3500 c3        1 YSL     -0.083400
      4 C20         3.1900   -0.0670    1.5690 c3        1 YSL     -0.062700
      5 C21         3.5170   -0.0790    3.0570 c3        1 YSL     -0.075400
      6 C22         3.4410   -1.4720    3.6490 c3        1 YSL     -0.080400
      7 C23         3.7510   -1.4520    5.1310 c3        1 YSL     -0.079400
      8 C24         3.6840   -2.8420    5.7240 c3        1 YSL     -0.079400
      9 C31         3.9940   -2.8240    7.2060 c3        1 YSL     -0.080400
     10 C32         3.9300   -4.2070    7.8020 c3        1 YSL     -0.092100
     11 C18         3.7840    1.1650    0.8640 c3        1 YSL     -0.052700
     12 C19         3.5580    2.4150    1.6910 c3        1 YSL     -0.090100
     13 C17         5.2600    0.9530    0.5430 c3        1 YSL     -0.054700
     14 C13         5.9750    2.0930   -0.2200 c3        1 YSL     -0.040000
     15 C34         5.0960    2.6360   -1.3330 c3        1 YSL     -0.083100
     16 C12         6.5140    3.2250    0.6410 c3        1 YSL     -0.067400
     17 C11         7.3920    4.1540   -0.1790 c3        1 YSL     -0.072400
     18 C10         8.4820    3.4500   -0.9690 c3        1 YSL     -0.044200
     19 C9          8.0110    2.2240   -1.6830 c2        1 YSL     -0.081400
     20 C14         7.2080    1.3410   -0.7980 c3        1 YSL     -0.036500
     21 C15         6.6290    0.0330   -1.3140 c3        1 YSL     -0.073400
     22 C16         5.4860   -0.2870   -0.3480 c3        1 YSL     -0.078400
     23 C8          8.3250    1.9150   -2.9520 ce        1 YSL     -0.146000
     24 C7          9.1630    2.7140   -3.8190 ce        1 YSL     -0.122000
     25 C6          9.0550    2.7920   -5.1580 c2        1 YSL     -0.105400
     26 C5          9.9850    3.6570   -5.9400 c3        1 YSL     -0.035200
     27 C4         10.5230    2.9970   -7.2110 c3        1 YSL      0.183300
     28 O31        11.5510    2.0960   -6.8090 oh        1 YSL     -0.594300
     29 C3          9.4340    2.2960   -7.9750 c2        1 YSL     -0.194400
     30 C33         9.2110    2.5250   -9.2690 c2        1 YSL     -0.198000
     31 C2          8.6280    1.3510   -7.1320 c3        1 YSL      0.183300
     32 O32         7.5510    0.7480   -7.8360 oh        1 YSL     -0.594300
     33 C1          8.0040    2.1000   -5.9500 c3        1 YSL     -0.035200
     34 H1         -0.2660   -1.0900   -0.9970 ho        1 YSL      0.398000
     35 H2          1.8570   -0.2260   -0.8300 h1        1 YSL      0.019700
     36 H3          1.6740   -1.8450   -0.0090 h1        1 YSL      0.019700
     37 H4          1.2020   -0.7390    2.1630 hc        1 YSL      0.057200
     38 H5          1.2320    0.8910    1.3940 hc        1 YSL      0.057200
     39 H6          3.6460   -0.9910    1.1120 hc        1 YSL      0.049700
     40 H7          4.5540    0.3230    3.2130 hc        1 YSL      0.043200
     41 H8          2.8120    0.6010    3.6030 hc        1 YSL      0.043200
     42 H9          2.4180   -1.9020    3.4870 hc        1 YSL      0.039700
     43 H10         4.1690   -2.1450    3.1230 hc        1 YSL      0.039700
     44 H11         3.0210   -0.7820    5.6580 hc        1 YSL      0.039200
     45 H12         4.7740   -1.0210    5.2950 hc        1 YSL      0.039200
     46 H13         2.6620   -3.2730    5.5600 hc        1 YSL      0.039200
     47 H14         4.4130   -3.5120    5.1970 hc        1 YSL      0.039200
     48 H15         3.2650   -2.1530    7.7320 hc        1 YSL      0.038200
     49 H16         5.0170   -2.3910    7.3690 hc        1 YSL      0.038200
     50 H17         4.1610   -4.1700    8.8940 hc        1 YSL      0.032700
     51 H18         4.6670   -4.8840    7.3070 hc        1 YSL      0.032700
     52 H19         2.9100   -4.6450    7.6720 hc        1 YSL      0.032700
     53 H20         3.2320    1.2900   -0.1130 hc        1 YSL      0.050700
     54 H21         4.3090    2.4910    2.5140 hc        1 YSL      0.035367
     55 H22         3.6380    3.3280    1.0520 hc        1 YSL      0.035367
     56 H23         2.5370    2.4050    2.1460 hc        1 YSL      0.035367
     57 H24         5.8070    0.8010    1.5140 hc        1 YSL      0.048700
     58 H25         4.3090    3.3100   -0.9190 hc        1 YSL      0.037367
     59 H26         5.7080    3.2130   -2.0690 hc        1 YSL      0.037367
     60 H27         4.5980    1.7970   -1.8790 hc        1 YSL      0.037367
     61 H28         7.1060    2.7960    1.4920 hc        1 YSL      0.042200
     62 H29         5.6710    3.8160    1.0830 hc        1 YSL      0.042200
     63 H30         6.7440    4.7340   -0.8880 hc        1 YSL      0.040700
     64 H31         7.8750    4.8970    0.5100 hc        1 YSL      0.040700
     65 H32         9.3040    3.1400   -0.2660 hc        1 YSL      0.047200
     66 H33         8.9230    4.1850   -1.6930 hc        1 YSL      0.047200
     67 H34         7.8810    1.0810    0.0750 hc        1 YSL      0.055700
     68 H35         7.3980   -0.7770   -1.3230 hc        1 YSL      0.045200
     69 H36         6.2380    0.1470   -2.3560 hc        1 YSL      0.045200
     70 H37         5.7430   -1.1720    0.2840 hc        1 YSL      0.040700
     71 H38         4.5570   -0.5330   -0.9210 hc        1 YSL      0.040700
     72 H39         7.9460    0.9720   -3.3870 ha        1 YSL      0.128000
     73 H40         9.9630    3.2860   -3.3130 ha        1 YSL      0.124000
     74 H41        10.8630    3.9620   -5.3100 hc        1 YSL      0.062950
     75 H42         9.4340    4.5880   -6.2460 hc        1 YSL      0.062950
     76 H43        10.9910    3.7940   -7.8620 h1        1 YSL      0.044700
     77 H44        11.8080    1.5970   -7.5930 ho        1 YSL      0.400000
     78 H45         9.8200    3.2220   -9.8590 ha        1 YSL      0.119500
     79 H46         8.3920    2.0400   -9.8180 ha        1 YSL      0.119500
     80 H47         9.3220    0.5470   -6.7460 h1        1 YSL      0.044700
     81 H48         7.9430    0.2210   -8.5430 ho        1 YSL      0.400000
     82 H49         7.2700    2.8550   -6.3410 hc        1 YSL      0.062950
     83 H50         7.4260    1.3660   -5.3310 hc        1 YSL      0.062950
@<TRIPOS>BOND
     1    1    2 1   
     2    1   34 1   
     3    2    3 1   
     4    2   35 1   
     5    2   36 1   
     6    3    4 1   
     7    3   37 1   
     8    3   38 1   
     9    4    5 1   
    10    4   11 1   
    11    4   39 1   
    12    5    6 1   
    13    5   40 1   
    14    5   41 1   
    15    6    7 1   
    16    6   42 1   
    17    6   43 1   
    18    7    8 1   
    19    7   44 1   
    20    7   45 1   
    21    8    9 1   
    22    8   46 1   
    23    8   47 1   
    24    9   10 1   
    25    9   48 1   
    26    9   49 1   
    27   10   50 1   
    28   10   51 1   
    29   10   52 1   
    30   11   12 1   
    31   11   13 1   
    32   11   53 1   
    33   12   54 1   
    34   12   55 1   
    35   12   56 1   
    36   13   14 1   
    37   13   22 1   
    38   13   57 1   
    39   14   15 1   
    40   14   16 1   
    41   14   20 1   
    42   15   58 1   
    43   15   59 1   
    44   15   60 1   
    45   16   17 1   
    46   16   61 1   
    47   16   62 1   
    48   17   18 1   
    49   17   63 1   
    50   17   64 1   
    51   18   19 1   
    52   18   65 1   
    53   18   66 1   
    54   19   20 1   
    55   19   23 2   
    56   20   21 1   
    57   20   67 1   
    58   21   22 1   
    59   21   68 1   
    60   21   69 1   
    61   22   70 1   
    62   22   71 1   
    63   23   24 1   
    64   23   72 1   
    65   24   25 2   
    66   24   73 1   
    67   25   26 1   
    68   25   33 1   
    69   26   27 1   
    70   26   74 1   
    71   26   75 1   
    72   27   28 1   
    73   27   29 1   
    74   27   76 1   
    75   28   77 1   
    76   29   30 2   
    77   29   31 1   
    78   30   78 1   
    79   30   79 1   
    80   31   32 1   
    81   31   33 1   
    82   31   80 1   
    83   32   81 1   
    84   33   82 1   
    85   33   83 1   
@<TRIPOS>SUBSTRUCTURE
     1 YSL         1 TEMP              0 ****  ****    0 ROOT
