@<TRIPOS>MOLECULE
YSO
   19    20     1     0     0
SMALL
bcc


@<TRIPOS>ATOM
      1 CAK        -0.7300    0.0170   -1.2620 cg        1 YSO      0.199800
      2 NAA        -1.3270    0.0210   -2.2610 n1        1 YSO     -0.316800
      3 CAC        -0.0050    0.0100   -0.0420 ca        1 YSO      0.013000
      4 CAB         1.3870    0.0020   -0.0140 ca        1 YSO     -0.049000
      5 CAD         2.0940   -0.0060    1.2080 ca        1 YSO     -0.092000
      6 CAL         1.4510   -0.0060    2.4340 ca        1 YSO     -0.076000
      7 CAH         0.0450    0.0020    2.4200 ca        1 YSO     -0.056200
      8 NAM        -0.9190    0.0060    3.4510 na        1 YSO      0.059900
      9 NAJ        -2.1500    0.0150    2.9970 nc        1 YSO     -0.421100
     10 CAE        -2.0810    0.0180    1.6180 cd        1 YSO      0.287800
     11 C5         -0.6920    0.0100    1.1820 ca        1 YSO     -0.150900
     12 NAI        -3.2300    0.0180    0.7430 n4        1 YSO     -0.727600
     13 HAB         1.9550    0.0020   -0.9610 ha        1 YSO      0.178000
     14 HAD         3.1980   -0.0130    1.1760 ha        1 YSO      0.177000
     15 HAL         2.0130   -0.0130    3.3810 ha        1 YSO      0.176000
     16 HAM        -0.7470    0.0050    4.4390 hn        1 YSO      0.369700
     17 HAI1       -3.4480   -0.9490    0.4680 hn        1 YSO      0.476133
     18 HAI2       -2.9990    0.5690   -0.0960 hn        1 YSO      0.476133
     19 HAI3       -4.0480    0.4310    1.2100 hn        1 YSO      0.476133
@<TRIPOS>BOND
     1    1    2 3   
     2    1    3 1   
     3    3    4 ar  
     4    3   11 ar  
     5    4    5 ar  
     6    4   13 1   
     7    5    6 ar  
     8    5   14 1   
     9    6    7 ar  
    10    6   15 1   
    11    7    8 1   
    12    7   11 ar  
    13    8    9 1   
    14    8   16 1   
    15    9   10 2   
    16   10   11 1   
    17   10   12 1   
    18   12   17 1   
    19   12   18 1   
    20   12   19 1   
@<TRIPOS>SUBSTRUCTURE
     1 YSO         1 TEMP              0 ****  ****    0 ROOT
