@<TRIPOS>MOLECULE
YSO
   18    19     1     0     0
SMALL
bcc


@<TRIPOS>ATOM
      1 CAK        -2.3360    0.2450    0.0560 cg        1 YSO      0.234800
      2 NAA        -3.4340   -0.1390    0.0750 n1        1 YSO     -0.359800
      3 CAC        -1.0000    0.7280    0.0320 ca        1 YSO      0.050000
      4 CAB        -0.7480    2.1030    0.0200 ca        1 YSO     -0.121000
      5 CAD         0.5650    2.5980   -0.0180 ca        1 YSO     -0.104000
      6 CAL         1.6680    1.7560   -0.0490 ca        1 YSO     -0.119000
      7 CAH         1.4290    0.3750   -0.0300 ca        1 YSO     -0.055200
      8 NAM         2.2980   -0.7340   -0.1450 na        1 YSO      0.007900
      9 NAJ         1.6160   -1.8960   -0.0310 nc        1 YSO     -0.584100
     10 CAE         0.2800   -1.6150    0.0220 cd        1 YSO      0.550800
     11 C5          0.0880   -0.1470    0.0150 ca        1 YSO     -0.196900
     12 NAI        -0.7520   -2.5340    0.1660 nh        1 YSO     -0.853800
     13 HAB        -1.5900    2.8110    0.0400 ha        1 YSO      0.148000
     14 HAD         0.7190    3.6890   -0.0220 ha        1 YSO      0.142000
     15 HAL         2.6900    2.1550   -0.0890 ha        1 YSO      0.147000
     16 HAM         3.2110   -0.7220    0.2590 hn        1 YSO      0.301700
     17 HAI1       -0.5030   -3.4810   -0.0260 hn        1 YSO      0.405800
     18 HAI2       -1.5960   -2.2470   -0.2800 hn        1 YSO      0.405800
@<TRIPOS>BOND
     1    1    2 3   
     2    1    3 1   
     3    3    4 ar  
     4    3   11 ar  
     5    4    5 ar  
     6    4   13 1   
     7    5    6 ar  
     8    5   14 1   
     9    6    7 ar  
    10    6   15 1   
    11    7    8 1   
    12    7   11 ar  
    13    8    9 1   
    14    8   16 1   
    15    9   10 2   
    16   10   11 1   
    17   10   12 1   
    18   12   17 1   
    19   12   18 1   
@<TRIPOS>SUBSTRUCTURE
     1 YSO         1 TEMP              0 ****  ****    0 ROOT
