@<TRIPOS>MOLECULE
YSO
   18    19     1     0     0
SMALL
bcc


@<TRIPOS>ATOM
      1 CAK        -0.6930    0.0420   -1.2800 cg        1 YSO      0.234800
      2 NAA        -1.2460    0.0490   -2.3040 n1        1 YSO     -0.359800
      3 CAC        -0.0050    0.0340   -0.0360 ca        1 YSO      0.050000
      4 CAB         1.3910    0.0750   -0.0030 ca        1 YSO     -0.121000
      5 CAD         2.0870    0.0830    1.2160 ca        1 YSO     -0.104000
      6 CAL         1.4290    0.0540    2.4380 ca        1 YSO     -0.119000
      7 CAH         0.0290    0.0050    2.4190 ca        1 YSO     -0.055200
      8 NAM        -0.9310    0.0600    3.4550 na        1 YSO      0.007900
      9 NAJ        -2.1830   -0.0620    2.9610 nc        1 YSO     -0.584100
     10 CAE        -2.1160   -0.0630    1.5950 cd        1 YSO      0.550800
     11 C5         -0.6970   -0.0090    1.1760 ca        1 YSO     -0.196900
     12 NAI        -3.1830   -0.1980    0.7170 nv        1 YSO     -0.853800
     13 HAB         1.9580    0.1030   -0.9470 ha        1 YSO      0.148000
     14 HAD         3.1880    0.1120    1.1960 ha        1 YSO      0.142000
     15 HAL         1.9850    0.0700    3.3860 ha        1 YSO      0.147000
     16 HAM        -0.7650   -0.3740    4.3400 hn        1 YSO      0.301700
     17 HAI1       -3.0430    0.2840   -0.1450 hn        1 YSO      0.405800
     18 HAI2       -4.0830   -0.0410    1.1180 hn        1 YSO      0.405800
@<TRIPOS>BOND
     1    1    2 3   
     2    1    3 1   
     3    3    4 ar  
     4    3   11 ar  
     5    4    5 ar  
     6    4   13 1   
     7    5    6 ar  
     8    5   14 1   
     9    6    7 ar  
    10    6   15 1   
    11    7    8 1   
    12    7   11 ar  
    13    8    9 1   
    14    8   16 1   
    15    9   10 2   
    16   10   11 1   
    17   10   12 1   
    18   12   17 1   
    19   12   18 1   
@<TRIPOS>SUBSTRUCTURE
     1 YSO         1 TEMP              0 ****  ****    0 ROOT
