@<TRIPOS>MOLECULE
YTB
   22    22     1     0     0
SMALL
bcc


@<TRIPOS>ATOM
      1 O6          0.5010    0.5660   -0.6240 oh        1 YTB     -0.610800
      2 C5          1.7080    0.1100   -0.0590 c3        1 YTB      0.115600
      3 C4          1.6430   -0.1150    1.4690 c3        1 YTB      0.099100
      4 O4          2.3160    0.9810    2.0440 oh        1 YTB     -0.584300
      5 C3          2.3240   -1.4770    1.7550 c3        1 YTB      0.099100
      6 O3          3.4430   -1.2280    2.5760 oh        1 YTB     -0.584300
      7 C1          1.9570   -1.2930   -0.6640 c3        1 YTB      0.070500
      8 N1          2.6150   -1.2180   -1.9990 n4        1 YTB     -0.820600
      9 C2          2.7880   -2.0660    0.4000 c3        1 YTB      0.115600
     10 O2          4.1630   -1.9110    0.1430 oh        1 YTB     -0.610800
     11 HO6         0.2320    1.3610   -0.1400 ho        1 YTB      0.458500
     12 H5          2.5420    0.8340   -0.2890 h1        1 YTB      0.094200
     13 H4          0.5760   -0.1380    1.8230 h1        1 YTB      0.085700
     14 HO4         2.5670    0.7440    2.9490 ho        1 YTB      0.445500
     15 H3          1.6000   -2.1810    2.2460 h1        1 YTB      0.085700
     16 HO3         3.6290   -2.0330    3.0800 ho        1 YTB      0.445500
     17 H1          0.9590   -1.8070   -0.8080 hx        1 YTB      0.134700
     18 HN1         2.1560   -0.4950   -2.5630 hn        1 YTB      0.469467
     19 HN1A        2.5500   -2.1240   -2.4710 hn        1 YTB      0.469467
     20 H2          2.5780   -3.1690    0.3300 h1        1 YTB      0.094200
     21 HO2         4.5570   -1.3260    0.8130 ho        1 YTB      0.458500
     22 H13         3.6110   -0.9860   -1.8700 hn        1 YTB      0.469467
@<TRIPOS>BOND
     1    1    2 1   
     2    1   11 1   
     3    2    3 1   
     4    2    7 1   
     5    2   12 1   
     6    3    4 1   
     7    3    5 1   
     8    3   13 1   
     9    4   14 1   
    10    5    6 1   
    11    5    9 1   
    12    5   15 1   
    13    6   16 1   
    14    7    8 1   
    15    7    9 1   
    16    7   17 1   
    17    8   18 1   
    18    8   19 1   
    19    8   22 1   
    20    9   10 1   
    21    9   20 1   
    22   10   21 1   
@<TRIPOS>SUBSTRUCTURE
     1 YTB         1 TEMP              0 ****  ****    0 ROOT
