@<TRIPOS>MOLECULE
YTB
   21    21     1     0     0
SMALL
bcc


@<TRIPOS>ATOM
      1 O6         -2.0500    1.5960    0.3930 oh        1 YTB     -0.603800
      2 C5         -1.1300    0.7850   -0.3150 c3        1 YTB      0.089100
      3 C4          0.3070    1.3300   -0.1500 c3        1 YTB      0.079100
      4 O4          1.0380    1.2140   -1.3560 oh        1 YTB     -0.597800
      5 C3          0.9560    0.4770    0.9580 c3        1 YTB      0.079100
      6 O3          2.3560    0.3500    0.8500 oh        1 YTB     -0.597800
      7 C1         -1.1760   -0.6200    0.3580 c3        1 YTB      0.167500
      8 N1         -1.7980   -1.6150   -0.4800 n3        1 YTB     -0.882800
      9 C2          0.2810   -0.9050    0.8310 c3        1 YTB      0.089100
     10 O2          0.9490   -1.6780   -0.1550 oh        1 YTB     -0.603800
     11 HO6        -2.2130    2.3750   -0.1510 ho        1 YTB      0.415500
     12 H5         -1.3980    0.7450   -1.4050 h1        1 YTB      0.061700
     13 H4          0.3210    2.4230    0.0970 h1        1 YTB      0.094200
     14 HO4         0.9790    0.2880   -1.6370 ho        1 YTB      0.418000
     15 H3          0.7620    0.9210    1.9700 h1        1 YTB      0.094200
     16 HO3         2.6100    0.5310   -0.0670 ho        1 YTB      0.418000
     17 H1         -1.8090   -0.5230    1.2920 h1        1 YTB      0.091700
     18 HN1        -1.2530   -1.7680   -1.3080 hn        1 YTB      0.356300
     19 HN1A       -1.8680   -2.4810    0.0180 hn        1 YTB      0.356300
     20 H2          0.2850   -1.4560    1.8070 h1        1 YTB      0.061700
     21 HO2         1.8600   -1.7810    0.1530 ho        1 YTB      0.415500
@<TRIPOS>BOND
     1    1    2 1   
     2    1   11 1   
     3    2    3 1   
     4    2    7 1   
     5    2   12 1   
     6    3    4 1   
     7    3    5 1   
     8    3   13 1   
     9    4   14 1   
    10    5    6 1   
    11    5    9 1   
    12    5   15 1   
    13    6   16 1   
    14    7    8 1   
    15    7    9 1   
    16    7   17 1   
    17    8   18 1   
    18    8   19 1   
    19    9   10 1   
    20    9   20 1   
    21   10   21 1   
@<TRIPOS>SUBSTRUCTURE
     1 YTB         1 TEMP              0 ****  ****    0 ROOT
