@<TRIPOS>MOLECULE
YTB
   22    22     1     0     0
SMALL
bcc


@<TRIPOS>ATOM
      1 O6          0.4980    0.5710   -0.6120 oh        1 YTB     -0.610800
      2 C5          1.7100    0.1110   -0.0590 c3        1 YTB      0.115600
      3 C4          1.6630   -0.1020    1.4720 c3        1 YTB      0.099100
      4 O4          2.3510    0.9930    2.0290 oh        1 YTB     -0.584300
      5 C3          2.3360   -1.4670    1.7590 c3        1 YTB      0.099100
      6 O3          3.4670   -1.2210    2.5650 oh        1 YTB     -0.584300
      7 C1          1.9410   -1.2990   -0.6560 c3        1 YTB      0.070500
      8 N1          2.5830   -1.2380   -2.0000 nz        1 YTB     -0.820600
      9 C2          2.7790   -2.0700    0.4030 c3        1 YTB      0.115600
     10 O2          4.1520   -1.9260    0.1280 oh        1 YTB     -0.610800
     11 HO6         0.2410    1.3720   -0.1310 ho        1 YTB      0.458500
     12 H5          2.5450    0.8270   -0.3050 h1        1 YTB      0.094200
     13 H4          0.6000   -0.1130    1.8400 h1        1 YTB      0.085700
     14 HO4         2.6110    0.7610    2.9330 ho        1 YTB      0.445500
     15 H3          1.6130   -2.1610    2.2650 h1        1 YTB      0.085700
     16 HO3         3.6530   -2.0240    3.0720 ho        1 YTB      0.445500
     17 H1          0.9370   -1.8060   -0.7840 hx        1 YTB      0.134700
     18 HN1         3.5810   -1.0120   -1.8850 hn        1 YTB      0.469467
     19 HN1A        2.5050   -2.1470   -2.4640 hn        1 YTB      0.469467
     20 H2          2.5610   -3.1710    0.3440 h1        1 YTB      0.094200
     21 HO2         4.5590   -1.3400    0.7890 ho        1 YTB      0.458500
     22 H13         2.1220   -0.5160   -2.5640 hn        1 YTB      0.469467
@<TRIPOS>BOND
     1    1    2 1   
     2    1   11 1   
     3    2    3 1   
     4    2    7 1   
     5    2   12 1   
     6    3    4 1   
     7    3    5 1   
     8    3   13 1   
     9    4   14 1   
    10    5    6 1   
    11    5    9 1   
    12    5   15 1   
    13    6   16 1   
    14    7    8 1   
    15    7    9 1   
    16    7   17 1   
    17    8   18 1   
    18    8   19 1   
    19    8   22 1   
    20    9   10 1   
    21    9   20 1   
    22   10   21 1   
@<TRIPOS>SUBSTRUCTURE
     1 YTB         1 TEMP              0 ****  ****    0 ROOT
