@<TRIPOS>MOLECULE
YTP
   21    18     1     0     0
SMALL
bcc


@<TRIPOS>ATOM
      1 C1         -0.7770    0.0540   -1.7250 c1        1 YTP      0.104000
      2 C2          0.6080    0.0410   -1.7070 c2        1 YTP     -0.228000
      3 C3          1.2860    0.0010   -0.4980 c1        1 YTP     -0.056000
      4 C4          0.5770   -0.0250    0.6930 c1        1 YTP     -0.188000
      5 C5         -0.8090   -0.0130    0.6750 c1        1 YTP     -0.045000
      6 C6         -1.4860    0.0270   -0.5340 c1        1 YTP     -0.106000
      7 C7          1.3160    0.0030    2.0130 c2        1 YTP      0.271000
      8 O8          0.6970   -0.0500    3.0560 o         1 YTP     -0.302000
      9 C9          2.8270    0.0610    2.0320 c3        1 YTP     -0.266000
     10 C10        -2.9980    0.0320   -0.5530 c3        1 YTP     -0.168000
     11 O11        -1.4640    0.1340   -2.9500 o         1 YTP     -0.244000
     12 H2          1.1070    0.0590   -2.5460 ha        1 YTP      0.137000
     13 H3          2.2620   -0.0080   -0.4860 ha        1 YTP      0.135000
     14 H5         -1.3080   -0.0310    1.5140 ha        1 YTP      0.160000
     15 H9          3.1450   -0.0110    2.9560 hc        1 YTP      0.102667
     16 H9A         3.1260    0.9130    1.6490 hc        1 YTP      0.102667
     17 H9B         3.1890   -0.6800    1.5030 hc        1 YTP      0.102667
     18 H10        -3.3320    0.6250    0.1530 hc        1 YTP      0.089000
     19 H10A       -3.3300   -0.8770   -0.4010 hc        1 YTP      0.089000
     20 H10B       -3.3130    0.3530   -1.4250 hc        1 YTP      0.089000
     21 HO11       -1.3230   -0.6090   -3.4180 ho        1 YTP      0.221000
@<TRIPOS>BOND
     1    1    2 1   
     2    1    6 1   
     3    2    3 1   
     4    2   12 1   
     5    3   13 1   
     6    4    5 1   
     7    4    7 1   
     8    5   14 1   
     9    6   10 1   
    10    7    8 1   
    11    7    9 1   
    12    9   15 1   
    13    9   16 1   
    14    9   17 1   
    15   10   18 1   
    16   10   19 1   
    17   10   20 1   
    18   11   21 1   
@<TRIPOS>SUBSTRUCTURE
     1 YTP         1 TEMP              0 ****  ****    0 ROOT
