@<TRIPOS>MOLECULE
YTP
   21    21     1     0     0
SMALL
bcc


@<TRIPOS>ATOM
      1 C1         -1.8260   -0.5790    0.0650 ca        1 YTP      0.156100
      2 C2         -0.9540   -1.6820    0.0760 ca        1 YTP     -0.172000
      3 C3          0.4160   -1.4640    0.0540 ca        1 YTP     -0.043000
      4 C4          0.9350   -0.1590    0.0220 ca        1 YTP     -0.211600
      5 C5          0.0560    0.9270    0.0120 ca        1 YTP     -0.051000
      6 C6         -1.3290    0.7390    0.0330 ca        1 YTP     -0.177300
      7 C7          2.4000    0.0220   -0.0000 c         1 YTP      0.580700
      8 O8          3.1730   -0.9470    0.0090 o         1 YTP     -0.541100
      9 C9          2.9250    1.4230   -0.0340 c3        1 YTP     -0.198100
     10 C10        -2.2450    1.9020    0.0220 c3        1 YTP     -0.054800
     11 O11        -3.1660   -0.8810    0.0880 oh        1 YTP     -0.493100
     12 H2         -1.3710   -2.6990    0.1010 ha        1 YTP      0.156000
     13 H3          1.1160   -2.3170    0.0620 ha        1 YTP      0.160000
     14 H5          0.4490    1.9570   -0.0130 ha        1 YTP      0.135000
     15 H9          2.5790    1.9820    0.8690 hc        1 YTP      0.063367
     16 H9A         4.0420    1.4180   -0.0480 hc        1 YTP      0.063367
     17 H9B         2.5560    1.9470   -0.9490 hc        1 YTP      0.063367
     18 H10        -2.8880    1.9050    0.9390 hc        1 YTP      0.046033
     19 H10A       -1.6760    2.8630   -0.0040 hc        1 YTP      0.046033
     20 H10B       -2.9110    1.8690   -0.8770 hc        1 YTP      0.046033
     21 HO11       -3.6700   -0.0540    0.0780 ho        1 YTP      0.424000
@<TRIPOS>BOND
     1    1    2 ar  
     2    1    6 ar  
     3    1   11 1   
     4    2    3 ar  
     5    2   12 1   
     6    3    4 ar  
     7    3   13 1   
     8    4    5 ar  
     9    4    7 1   
    10    5    6 ar  
    11    5   14 1   
    12    6   10 1   
    13    7    8 2   
    14    7    9 1   
    15    9   15 1   
    16    9   16 1   
    17    9   17 1   
    18   10   18 1   
    19   10   19 1   
    20   10   20 1   
    21   11   21 1   
@<TRIPOS>SUBSTRUCTURE
     1 YTP         1 TEMP              0 ****  ****    0 ROOT
