@<TRIPOS>MOLECULE
YTP
   21    21     1     0     0
SMALL
bcc


@<TRIPOS>ATOM
      1 C1         -0.0380   -0.1340    0.0140 ca        1 YTP      0.149100
      2 C2          1.3630   -0.1680   -0.0030 ca        1 YTP     -0.227000
      3 C3          2.0620   -0.1010    1.1970 ca        1 YTP     -0.038000
      4 C4          1.3770   -0.0010    2.4170 ca        1 YTP     -0.209600
      5 C5         -0.0230    0.0320    2.4180 ca        1 YTP     -0.061000
      6 C6         -0.7500   -0.0330    1.2300 ca        1 YTP     -0.115300
      7 C7          2.1600    0.0670    3.6670 c         1 YTP      0.581700
      8 O8          3.3990    0.0380    3.6570 o         1 YTP     -0.543100
      9 C9          1.4030    0.1730    4.9530 c3        1 YTP     -0.198100
     10 C10        -2.2280   -0.0020    1.2230 c3        1 YTP     -0.042800
     11 O11        -0.7890   -0.1960   -1.1350 oh        1 YTP     -0.492100
     12 H2          1.9030   -0.2460   -0.9570 ha        1 YTP      0.139000
     13 H3          3.1650   -0.1270    1.2020 ha        1 YTP      0.159000
     14 H5         -0.5730    0.1110    3.3700 ha        1 YTP      0.138000
     15 H9          2.1110    0.2160    5.8170 hc        1 YTP      0.064033
     16 H9A         0.7790    1.1000    4.9530 hc        1 YTP      0.064033
     17 H9B         0.7360   -0.7140    5.0780 hc        1 YTP      0.064033
     18 H10        -2.6380    0.1510    2.2500 hc        1 YTP      0.048367
     19 H10A       -2.5910    0.8250    0.5610 hc        1 YTP      0.048367
     20 H10B       -2.6280   -0.9650    0.8150 hc        1 YTP      0.048367
     21 HO11       -0.1810   -0.2580   -1.8870 ho        1 YTP      0.423000
@<TRIPOS>BOND
     1    1    2 ar  
     2    1    6 ar  
     3    1   11 1   
     4    2    3 ar  
     5    2   12 1   
     6    3    4 ar  
     7    3   13 1   
     8    4    5 ar  
     9    4    7 1   
    10    5    6 ar  
    11    5   14 1   
    12    6   10 1   
    13    7    8 2   
    14    7    9 1   
    15    9   15 1   
    16    9   16 1   
    17    9   17 1   
    18   10   18 1   
    19   10   19 1   
    20   10   20 1   
    21   11   21 1   
@<TRIPOS>SUBSTRUCTURE
     1 YTP         1 TEMP              0 ****  ****    0 ROOT
