@<TRIPOS>MOLECULE
YTR
   32    33     1     0     0
SMALL
bcc


@<TRIPOS>ATOM
      1 C1          0.0420    0.0010   -0.0380 ca        1 YTR     -0.050000
      2 C2          1.4450   -0.0070   -0.0460 ca        1 YTR     -0.156800
      3 C3          2.1710   -0.0380    1.1870 ca        1 YTR      0.132600
      4 C4          1.4110   -0.1040    2.3950 ca        1 YTR      0.008100
      5 C5          0.0050   -0.0860    2.3580 ca        1 YTR      0.149100
      6 C6         -0.6840   -0.0300    1.1370 ca        1 YTR     -0.229000
      7 C7          2.1720    0.0050   -1.2990 cc        1 YTR      0.028600
      8 C8          3.5250   -0.0140   -1.2890 cd        1 YTR     -0.245200
      9 C9          4.2860   -0.0190   -0.0390 c         1 YTR      0.693700
     10 N10         3.5660   -0.0010    1.1770 n         1 YTR     -0.341000
     11 O11         5.5330   -0.0330   -0.0160 o         1 YTR     -0.634500
     12 C12         4.3170    0.1200    2.4050 c3        1 YTR      0.068300
     13 C13         1.4250    0.0310   -2.5800 c3        1 YTR     -0.069900
     14 O14         2.0430   -0.0830    3.6290 os        1 YTR     -0.328900
     15 C15         1.9540   -1.3180    4.3450 c3        1 YTR      0.110700
     16 O16        -0.6180   -0.1560    3.5870 os        1 YTR     -0.316900
     17 C17        -2.0370   -0.0270    3.5830 c3        1 YTR      0.111700
     18 H1         -0.5010    0.0330   -0.9970 ha        1 YTR      0.139000
     19 H6         -1.7820   -0.0130    1.1080 ha        1 YTR      0.144000
     20 H8          4.1330   -0.0170   -2.2050 ha        1 YTR      0.164000
     21 H12         3.9330    0.9880    3.0050 h1        1 YTR      0.062033
     22 H12A        5.4040    0.2870    2.1720 h1        1 YTR      0.062033
     23 H12B        4.2150   -0.8200    3.0100 h1        1 YTR      0.062033
     24 H13         2.1240    0.0340   -3.4520 hc        1 YTR      0.053700
     25 H13A        0.7880    0.9500   -2.6380 hc        1 YTR      0.053700
     26 H13B        0.7640   -0.8680   -2.6630 hc        1 YTR      0.053700
     27 H15         2.4230   -2.1440    3.7590 h1        1 YTR      0.043700
     28 H15A        0.8890   -1.5580    4.5780 h1        1 YTR      0.043700
     29 H15B        2.5320   -1.1170    5.2820 h1        1 YTR      0.043700
     30 H17        -2.2980   -0.0460    4.6720 h1        1 YTR      0.048033
     31 H17A       -2.3460    0.9410    3.1210 h1        1 YTR      0.048033
     32 H17B       -2.5070   -0.8880    3.0500 h1        1 YTR      0.048033
@<TRIPOS>BOND
     1    1    2 ar  
     2    1    6 ar  
     3    1   18 1   
     4    2    3 ar  
     5    2    7 1   
     6    3    4 ar  
     7    3   10 1   
     8    4    5 ar  
     9    4   14 1   
    10    5    6 ar  
    11    5   16 1   
    12    6   19 1   
    13    7    8 2   
    14    7   13 1   
    15    8    9 1   
    16    8   20 1   
    17    9   10 1   
    18    9   11 2   
    19   10   12 1   
    20   12   21 1   
    21   12   22 1   
    22   12   23 1   
    23   13   24 1   
    24   13   25 1   
    25   13   26 1   
    26   14   15 1   
    27   15   27 1   
    28   15   28 1   
    29   15   29 1   
    30   16   17 1   
    31   17   30 1   
    32   17   31 1   
    33   17   32 1   
@<TRIPOS>SUBSTRUCTURE
     1 YTR         1 TEMP              0 ****  ****    0 ROOT
