@<TRIPOS>MOLECULE
YTR
   32    33     1     0     0
SMALL
bcc


@<TRIPOS>ATOM
      1 C1         -0.3600   -2.1610    0.0790 ca        1 YTR     -0.050000
      2 C2          0.6750   -1.2140    0.0390 ca        1 YTR     -0.156800
      3 C3          0.3710    0.1820   -0.0530 ca        1 YTR      0.132600
      4 C4         -1.0090    0.5540   -0.0540 ca        1 YTR      0.008100
      5 C5         -2.0150   -0.4280   -0.0190 ca        1 YTR      0.149100
      6 C6         -1.6910   -1.7920    0.0440 ca        1 YTR     -0.229000
      7 C7          2.0590   -1.6370    0.0990 cc        1 YTR      0.028600
      8 C8          3.0450   -0.7110    0.0690 cd        1 YTR     -0.245200
      9 C9          2.7560    0.7190   -0.0500 c         1 YTR      0.693700
     10 N10         1.4030    1.1180   -0.1380 n         1 YTR     -0.341000
     11 O11         3.6550    1.5830   -0.0810 o         1 YTR     -0.634500
     12 C12         1.1240    2.5140   -0.3800 c3        1 YTR      0.068300
     13 C13         2.3810   -3.0820    0.1980 c3        1 YTR     -0.069900
     14 O14        -1.3820    1.8820   -0.1930 os        1 YTR     -0.328900
     15 C15        -1.9660    2.4450    0.9850 c3        1 YTR      0.110700
     16 O16        -3.3080    0.0530   -0.0240 os        1 YTR     -0.316900
     17 C17        -4.3440   -0.9220   -0.1020 c3        1 YTR      0.111700
     18 H1         -0.1060   -3.2320    0.1410 ha        1 YTR      0.139000
     19 H6         -2.4770   -2.5590    0.0680 ha        1 YTR      0.144000
     20 H8          4.1140   -0.9670    0.1220 ha        1 YTR      0.164000
     21 H12         0.6130    2.9630    0.5130 h1        1 YTR      0.062033
     22 H12A        2.0840    3.0670   -0.5660 h1        1 YTR      0.062033
     23 H12B        0.4580    2.6210   -1.2780 h1        1 YTR      0.062033
     24 H13         1.9780   -3.6300   -0.6900 hc        1 YTR      0.053700
     25 H13A        3.4860   -3.2450    0.2390 hc        1 YTR      0.053700
     26 H13B        1.9270   -3.5170    1.1240 hc        1 YTR      0.053700
     27 H15        -2.9130    1.9120    1.2440 h1        1 YTR      0.043700
     28 H15A       -1.2470    2.4010    1.8370 h1        1 YTR      0.043700
     29 H15B       -2.1730    3.5040    0.6910 h1        1 YTR      0.043700
     30 H17        -4.2310   -1.5490   -1.0200 h1        1 YTR      0.048033
     31 H17A       -4.3500   -1.5620    0.8130 h1        1 YTR      0.048033
     32 H17B       -5.2750   -0.3030   -0.1590 h1        1 YTR      0.048033
@<TRIPOS>BOND
     1    1    2 ar  
     2    1    6 ar  
     3    1   18 1   
     4    2    3 ar  
     5    2    7 1   
     6    3    4 ar  
     7    3   10 1   
     8    4    5 ar  
     9    4   14 1   
    10    5    6 ar  
    11    5   16 1   
    12    6   19 1   
    13    7    8 2   
    14    7   13 1   
    15    8    9 1   
    16    8   20 1   
    17    9   10 1   
    18    9   11 2   
    19   10   12 1   
    20   12   21 1   
    21   12   22 1   
    22   12   23 1   
    23   13   24 1   
    24   13   25 1   
    25   13   26 1   
    26   14   15 1   
    27   15   27 1   
    28   15   28 1   
    29   15   29 1   
    30   16   17 1   
    31   17   30 1   
    32   17   31 1   
    33   17   32 1   
@<TRIPOS>SUBSTRUCTURE
     1 YTR         1 TEMP              0 ****  ****    0 ROOT
