@<TRIPOS>MOLECULE
YTT
   42    44     1     0     0
SMALL
bcc


@<TRIPOS>ATOM
      1 OB          0.0320    0.5170    0.1670 o         1 YTT     -0.637500
      2 CB          1.2650    0.3540    0.1000 c         1 YTT      0.688500
      3 CAB         2.0900    0.2210    1.3900 c3        1 YTT      0.040700
      4 CBB         1.9010    1.5240    2.1970 c3        1 YTT     -0.052100
      5 CGB         2.4590    1.3940    3.5680 ca        1 YTT     -0.133300
      6 CD3         3.7870    1.7460    3.8320 ca        1 YTT     -0.090000
      7 CE3         4.3110    1.6310    5.1170 ca        1 YTT     -0.182500
      8 CZB         3.4910    1.1600    6.1510 ca        1 YTT      0.129100
      9 OHB         3.9330    1.0180    7.4450 oh        1 YTT     -0.494100
     10 CE4         2.1530    0.8050    5.9040 ca        1 YTT     -0.182500
     11 CD4         1.6510    0.9270    4.6140 ca        1 YTT     -0.090000
     12 NB          3.4680   -0.1410    1.1890 ns        1 YTT     -0.556900
     13 NA          1.8840    0.2400   -1.1240 ns        1 YTT     -0.556900
     14 CAA         3.3120    0.2380   -1.2990 c3        1 YTT      0.040700
     15 CA          4.1170   -0.0330   -0.0180 c         1 YTT      0.688500
     16 OA          5.3500   -0.2020   -0.0860 o         1 YTT     -0.637500
     17 CBA         3.8610    1.5390   -1.9260 c3        1 YTT     -0.052100
     18 CGA         3.3160    1.7520   -3.2910 ca        1 YTT     -0.133300
     19 CD2         2.1370    2.4820   -3.4790 ca        1 YTT     -0.090000
     20 CE2         1.6270    2.6890   -4.7580 ca        1 YTT     -0.182500
     21 CZA         2.3080    2.1580   -5.8620 ca        1 YTT      0.129100
     22 OHA         1.8680    2.3180   -7.1550 oh        1 YTT     -0.494100
     23 CE1         3.4940    1.4240   -5.6900 ca        1 YTT     -0.182500
     24 CD1         3.9870    1.2290   -4.4060 ca        1 YTT     -0.090000
     25 HAB         1.6050   -0.6200    1.9800 h1        1 YTT      0.092700
     26 HBB         2.3880    2.3810    1.6610 hc        1 YTT      0.071200
     27 HBBA        0.7970    1.7330    2.2430 hc        1 YTT      0.071200
     28 HD3         4.4270    2.1230    3.0180 ha        1 YTT      0.139000
     29 HE3         5.3550    1.9090    5.3180 ha        1 YTT      0.146000
     30 HOHB        4.8600    1.2970    7.4780 ho        1 YTT      0.421000
     31 HE4         1.5270    0.4410    6.7300 ha        1 YTT      0.146000
     32 HD4         0.6030    0.6540    4.4120 ha        1 YTT      0.139000
     33 HNB         4.0180   -0.2380    2.0160 hn        1 YTT      0.333500
     34 HNA         1.3430    0.4080   -1.9450 hn        1 YTT      0.333500
     35 HAA         3.5620   -0.6150   -2.0070 h1        1 YTT      0.092700
     36 HBA         4.9810    1.4450   -1.9630 hc        1 YTT      0.071200
     37 HBAA        3.6150    2.4140   -1.2690 hc        1 YTT      0.071200
     38 HD2         1.6090    2.9050   -2.6110 ha        1 YTT      0.139000
     39 HE2         0.7010    3.2640   -4.9000 ha        1 YTT      0.146000
     40 HOHA        1.0520    2.8390   -7.1320 ho        1 YTT      0.421000
     41 HE1         4.0140    1.0190   -6.5700 ha        1 YTT      0.146000
     42 HD1         4.9180    0.6580   -4.2620 ha        1 YTT      0.139000
@<TRIPOS>BOND
     1    1    2 2   
     2    2    3 1   
     3    2   13 1   
     4    3    4 1   
     5    3   12 1   
     6    3   25 1   
     7    4    5 1   
     8    4   26 1   
     9    4   27 1   
    10    5    6 ar  
    11    5   11 ar  
    12    6    7 ar  
    13    6   28 1   
    14    7    8 ar  
    15    7   29 1   
    16    8    9 1   
    17    8   10 ar  
    18    9   30 1   
    19   10   11 ar  
    20   10   31 1   
    21   11   32 1   
    22   12   15 1   
    23   12   33 1   
    24   13   14 1   
    25   13   34 1   
    26   14   15 1   
    27   14   17 1   
    28   14   35 1   
    29   15   16 2   
    30   17   18 1   
    31   17   36 1   
    32   17   37 1   
    33   18   19 ar  
    34   18   24 ar  
    35   19   20 ar  
    36   19   38 1   
    37   20   21 ar  
    38   20   39 1   
    39   21   22 1   
    40   21   23 ar  
    41   22   40 1   
    42   23   24 ar  
    43   23   41 1   
    44   24   42 1   
@<TRIPOS>SUBSTRUCTURE
     1 YTT         1 TEMP              0 ****  ****    0 ROOT
