@<TRIPOS>MOLECULE
YTT
   42    44     1     0     0
SMALL
bcc


@<TRIPOS>ATOM
      1 OB         -0.1100   -2.7350   -0.7630 o         1 YTT     -0.637500
      2 CB         -0.0670   -1.4910   -0.8330 c         1 YTT      0.688500
      3 CAB         1.2900   -0.7710   -0.8040 c3        1 YTT      0.040700
      4 CBB         1.9740   -1.1220    0.5360 c3        1 YTT     -0.052100
      5 CGB         3.3910   -0.6740    0.5520 ca        1 YTT     -0.133300
      6 CD3         3.7280    0.5980    1.0270 ca        1 YTT     -0.090000
      7 CE3         5.0560    1.0180    1.0500 ca        1 YTT     -0.182500
      8 CZB         6.0570    0.1510    0.5910 ca        1 YTT      0.129100
      9 OHB         7.3890    0.4910    0.5810 oh        1 YTT     -0.494100
     10 CE4         5.7340   -1.1310    0.1130 ca        1 YTT     -0.182500
     11 CD4         4.4040   -1.5310    0.0990 ca        1 YTT     -0.090000
     12 NB          1.2280    0.6430   -1.0680 n         1 YTT     -0.556900
     13 NA         -1.2250   -0.7650   -0.9880 n         1 YTT     -0.556900
     14 CAA        -1.2870    0.6700   -0.8900 c3        1 YTT      0.040700
     15 CA          0.0700    1.3810   -1.0000 c         1 YTT      0.688500
     16 OA          0.1130    2.6250   -1.0740 o         1 YTT     -0.637500
     17 CBA        -1.9730    1.1740    0.4000 c3        1 YTT     -0.052100
     18 CGA        -3.3900    0.7310    0.4650 ca        1 YTT     -0.133300
     19 CD2        -3.7280   -0.4770    1.0840 ca        1 YTT     -0.090000
     20 CE2        -5.0560   -0.8920    1.1530 ca        1 YTT     -0.182500
     21 CZA        -6.0560   -0.0840    0.5960 ca        1 YTT      0.129100
     22 OHA        -7.3880   -0.4240    0.6230 oh        1 YTT     -0.494100
     23 CE1        -5.7330    1.1340   -0.0270 ca        1 YTT     -0.182500
     24 CD1        -4.4020    1.5290   -0.0860 ca        1 YTT     -0.090000
     25 HAB         1.9060   -1.2400   -1.6350 h1        1 YTT      0.092700
     26 HBB         1.4110   -0.6560    1.3870 hc        1 YTT      0.071200
     27 HBBA        1.9160   -2.2380    0.6580 hc        1 YTT      0.071200
     28 HD3         2.9400    1.2740    1.3940 ha        1 YTT      0.139000
     29 HE3         5.3150    2.0180    1.4250 ha        1 YTT      0.146000
     30 HOHB        7.4710    1.3890    0.9350 ho        1 YTT      0.421000
     31 HE4         6.5350   -1.7970   -0.2390 ha        1 YTT      0.146000
     32 HD4         4.1420   -2.5350   -0.2710 ha        1 YTT      0.139000
     33 HNB         2.1000    1.1270   -1.0590 hn        1 YTT      0.333500
     34 HNA        -2.0970   -1.2450   -0.9250 hn        1 YTT      0.333500
     35 HAA        -1.9010    1.0400   -1.7710 h1        1 YTT      0.092700
     36 HBA        -1.4110    0.8090    1.2990 hc        1 YTT      0.071200
     37 HBAA       -1.9150    2.2960    0.3920 hc        1 YTT      0.071200
     38 HD2        -2.9410   -1.1060    1.5280 ha        1 YTT      0.139000
     39 HE2        -5.3160   -1.8420    1.6410 ha        1 YTT      0.146000
     40 HOHA       -7.4710   -1.2740    1.0790 ho        1 YTT      0.421000
     41 HE1        -6.5330    1.7540   -0.4550 ha        1 YTT      0.146000
     42 HD1        -4.1400    2.4840   -0.5690 ha        1 YTT      0.139000
@<TRIPOS>BOND
     1    1    2 2   
     2    2    3 1   
     3    2   13 1   
     4    3    4 1   
     5    3   12 1   
     6    3   25 1   
     7    4    5 1   
     8    4   26 1   
     9    4   27 1   
    10    5    6 ar  
    11    5   11 ar  
    12    6    7 ar  
    13    6   28 1   
    14    7    8 ar  
    15    7   29 1   
    16    8    9 1   
    17    8   10 ar  
    18    9   30 1   
    19   10   11 ar  
    20   10   31 1   
    21   11   32 1   
    22   12   15 1   
    23   12   33 1   
    24   13   14 1   
    25   13   34 1   
    26   14   15 1   
    27   14   17 1   
    28   14   35 1   
    29   15   16 2   
    30   17   18 1   
    31   17   36 1   
    32   17   37 1   
    33   18   19 ar  
    34   18   24 ar  
    35   19   20 ar  
    36   19   38 1   
    37   20   21 ar  
    38   20   39 1   
    39   21   22 1   
    40   21   23 ar  
    41   22   40 1   
    42   23   24 ar  
    43   23   41 1   
    44   24   42 1   
@<TRIPOS>SUBSTRUCTURE
     1 YTT         1 TEMP              0 ****  ****    0 ROOT
