@<TRIPOS>MOLECULE
YTT
   42    44     1     0     0
SMALL
bcc


@<TRIPOS>ATOM
      1 OB          0.0340    0.5210    0.1680 o         1 YTT     -0.637500
      2 CB          1.2680    0.3580    0.1010 c         1 YTT      0.688500
      3 CAB         2.0930    0.2260    1.3910 c3        1 YTT      0.040700
      4 CBB         1.9030    1.5280    2.1990 c3        1 YTT     -0.052100
      5 CGB         2.4610    1.3980    3.5700 ca        1 YTT     -0.133300
      6 CD3         3.7880    1.7510    3.8340 ca        1 YTT     -0.090000
      7 CE3         4.3120    1.6370    5.1190 ca        1 YTT     -0.182500
      8 CZB         3.4930    1.1630    6.1530 ca        1 YTT      0.129100
      9 OHB         3.9350    1.0210    7.4470 oh        1 YTT     -0.494100
     10 CE4         2.1560    0.8060    5.9050 ca        1 YTT     -0.182500
     11 CD4         1.6530    0.9280    4.6160 ca        1 YTT     -0.090000
     12 NB          3.4720   -0.1340    1.1900 n         1 YTT     -0.556900
     13 NA          1.8860    0.2450   -1.1230 n         1 YTT     -0.556900
     14 CAA         3.3150    0.2450   -1.2980 c3        1 YTT      0.040700
     15 CA          4.1200   -0.0260   -0.0180 c         1 YTT      0.688500
     16 OA          5.3540   -0.1930   -0.0860 o         1 YTT     -0.637500
     17 CBA         3.8630    1.5460   -1.9250 c3        1 YTT     -0.052100
     18 CGA         3.3160    1.7580   -3.2910 ca        1 YTT     -0.133300
     19 CD2         2.1380    2.4880   -3.4780 ca        1 YTT     -0.090000
     20 CE2         1.6260    2.6940   -4.7570 ca        1 YTT     -0.182500
     21 CZA         2.3070    2.1630   -5.8610 ca        1 YTT      0.129100
     22 OHA         1.8670    2.3230   -7.1540 oh        1 YTT     -0.494100
     23 CE1         3.4940    1.4300   -5.6900 ca        1 YTT     -0.182500
     24 CD1         3.9870    1.2360   -4.4050 ca        1 YTT     -0.090000
     25 HAB         1.6090   -0.6160    1.9800 h1        1 YTT      0.092700
     26 HBB         2.3890    2.3850    1.6630 hc        1 YTT      0.071200
     27 HBBA        0.7990    1.7350    2.2450 hc        1 YTT      0.071200
     28 HD3         4.4270    2.1300    3.0210 ha        1 YTT      0.139000
     29 HE3         5.3560    1.9160    5.3200 ha        1 YTT      0.146000
     30 HOHB        4.8620    1.3020    7.4790 ho        1 YTT      0.421000
     31 HE4         1.5300    0.4400    6.7310 ha        1 YTT      0.146000
     32 HD4         0.6060    0.6540    4.4130 ha        1 YTT      0.139000
     33 HNB         4.0220   -0.2310    2.0160 hn        1 YTT      0.333500
     34 HNA         1.3460    0.4130   -1.9440 hn        1 YTT      0.333500
     35 HAA         3.5660   -0.6080   -2.0060 h1        1 YTT      0.092700
     36 HBA         3.6150    2.4210   -1.2690 hc        1 YTT      0.071200
     37 HBAA        4.9830    1.4530   -1.9640 hc        1 YTT      0.071200
     38 HD2         1.6090    2.9100   -2.6100 ha        1 YTT      0.139000
     39 HE2         0.7000    3.2690   -4.8990 ha        1 YTT      0.146000
     40 HOHA        1.0510    2.8440   -7.1300 ho        1 YTT      0.421000
     41 HE1         4.0140    1.0250   -6.5690 ha        1 YTT      0.146000
     42 HD1         4.9180    0.6650   -4.2620 ha        1 YTT      0.139000
@<TRIPOS>BOND
     1    1    2 2   
     2    2    3 1   
     3    2   13 1   
     4    3    4 1   
     5    3   12 1   
     6    3   25 1   
     7    4    5 1   
     8    4   26 1   
     9    4   27 1   
    10    5    6 ar  
    11    5   11 ar  
    12    6    7 ar  
    13    6   28 1   
    14    7    8 ar  
    15    7   29 1   
    16    8    9 1   
    17    8   10 ar  
    18    9   30 1   
    19   10   11 ar  
    20   10   31 1   
    21   11   32 1   
    22   12   15 1   
    23   12   33 1   
    24   13   14 1   
    25   13   34 1   
    26   14   15 1   
    27   14   17 1   
    28   14   35 1   
    29   15   16 2   
    30   17   18 1   
    31   17   36 1   
    32   17   37 1   
    33   18   19 ar  
    34   18   24 ar  
    35   19   20 ar  
    36   19   38 1   
    37   20   21 ar  
    38   20   39 1   
    39   21   22 1   
    40   21   23 ar  
    41   22   40 1   
    42   23   24 ar  
    43   23   41 1   
    44   24   42 1   
@<TRIPOS>SUBSTRUCTURE
     1 YTT         1 TEMP              0 ****  ****    0 ROOT
