@<TRIPOS>MOLECULE
YTT
   42    39     1     0     0
SMALL
bcc


@<TRIPOS>ATOM
      1 OB         -2.2680    1.8340   -0.5720 o         1 YTT     -0.363000
      2 CB         -1.4090    0.9970   -0.3450 c1        1 YTT      0.296000
      3 CAB        -0.6040    1.0560    0.9740 c2        1 YTT      0.015000
      4 CBB         0.4810    2.1310    0.9070 c3        1 YTT     -0.138000
      5 CGB         0.2520    3.1970    2.0680 c2        1 YTT     -0.126000
      6 CD3         0.2840    2.7940    3.3990 c2        1 YTT     -0.098000
      7 CE3         0.1480    3.7390    4.4200 c1        1 YTT     -0.154000
      8 CZB        -0.0190    5.0750    4.1080 c1        1 YTT      0.084000
      9 OHB        -0.2020    6.0380    5.1540 oh        1 YTT     -0.248000
     10 CE4        -0.0510    5.4800    2.7740 c1        1 YTT     -0.211000
     11 CD4         0.0850    4.5360    1.7550 c1        1 YTT     -0.082000
     12 NB         -0.0510   -0.2600    1.2880 n         1 YTT     -0.366000
     13 NA         -0.6900    0.4010   -1.4300 n3        1 YTT     -0.366000
     14 CAA        -0.1430   -0.9080   -1.1200 c3        1 YTT      0.014000
     15 CA          0.6640   -0.8490    0.2110 c2        1 YTT      0.296000
     16 OA          1.5720   -1.6990    0.4440 o         1 YTT     -0.360000
     17 CBA         0.7020   -1.4790   -2.2860 c3        1 YTT     -0.138000
     18 CGA         0.2910   -2.9450   -2.5550 c2        1 YTT     -0.126000
     19 CD2         0.6820   -3.9400   -1.6810 c2        1 YTT     -0.088000
     20 CE2         0.3900   -5.2730   -1.9660 c1        1 YTT     -0.154000
     21 CZA        -0.3020   -5.6030   -3.1420 c1        1 YTT      0.084000
     22 OHA        -0.7280   -6.9360   -3.3590 oh        1 YTT     -0.248000
     23 CE1        -0.6930   -4.5980   -4.0190 c1        1 YTT     -0.211000
     24 CD1        -0.4000   -3.2720   -3.7300 c1        1 YTT     -0.092000
     25 HAB        -1.1790    1.3990    1.7470 h4        1 YTT      0.131000
     26 HBB         0.4440    2.5830    0.0330 hc        1 YTT      0.111000
     27 HBBA        1.3200    1.7300    1.0120 hc        1 YTT      0.111000
     28 HD3         0.4000    1.8670    3.6160 ha        1 YTT      0.138000
     29 HE3         0.1700    3.4560    5.3500 ha        1 YTT      0.155000
     30 HOHB        0.5880    6.4150    5.3540 ho        1 YTT      0.220000
     31 HE4        -0.1640    6.3950    2.5600 ha        1 YTT      0.137500
     32 HD4         0.0630    4.8190    0.8180 ha        1 YTT      0.140000
     33 HNB         0.1770   -0.4710    2.1650 hn        1 YTT      0.247000
     34 HNA        -0.9050    0.6170   -2.3030 hn        1 YTT      0.247000
     35 HAA        -0.8940   -1.6070   -1.0570 h1        1 YTT      0.132000
     36 HBA         1.6970   -1.4450   -2.0340 hc        1 YTT      0.111000
     37 HBAA        0.5400   -0.9060   -3.1520 hc        1 YTT      0.111000
     38 HD2         1.1730   -3.7060   -0.8480 ha        1 YTT      0.141000
     39 HE2         0.6550   -5.9490   -1.3720 ha        1 YTT      0.154000
     40 HOHA       -0.2060   -7.3170   -3.9670 ho        1 YTT      0.220000
     41 HE1        -1.1950   -4.8320   -4.8720 ha        1 YTT      0.137500
     42 HD1        -0.6750   -2.5640   -4.3480 ha        1 YTT      0.137000
@<TRIPOS>BOND
     1    1    2 1   
     2    2   13 1   
     3    3    4 1   
     4    3   12 1   
     5    3   25 1   
     6    4    5 1   
     7    4   26 1   
     8    4   27 1   
     9    5    6 1   
    10    5   11 1   
    11    6    7 1   
    12    6   28 1   
    13    7   29 1   
    14    8    9 1   
    15    8   10 1   
    16    9   30 1   
    17   10   31 1   
    18   11   32 1   
    19   12   15 1   
    20   12   33 1   
    21   13   14 1   
    22   13   34 1   
    23   14   15 1   
    24   14   17 1   
    25   14   35 1   
    26   15   16 1   
    27   17   18 1   
    28   17   36 1   
    29   17   37 1   
    30   18   19 1   
    31   18   24 1   
    32   19   20 1   
    33   19   38 1   
    34   20   39 1   
    35   21   22 1   
    36   21   23 1   
    37   22   40 1   
    38   23   41 1   
    39   24   42 1   
@<TRIPOS>SUBSTRUCTURE
     1 YTT         1 TEMP              0 ****  ****    0 ROOT
