@<TRIPOS>MOLECULE
YTZ
   25    26     1     0     0
SMALL
bcc


@<TRIPOS>ATOM
      1 O2         -0.2700   -0.3890    0.0160 o         1 YTZ     -0.652800
      2 S1          1.1300   -0.2270   -0.0030 sy        1 YTZ      1.523200
      3 O1          1.7790   -0.1450    1.2500 o         1 YTZ     -0.652800
      4 C4          1.8100   -1.4350   -0.9120 ca        1 YTZ     -0.478500
      5 C3          3.1720   -1.7530   -0.7870 ca        1 YTZ      0.045500
      6 C2          3.7540   -2.7740   -1.5140 ca        1 YTZ     -0.242500
      7 C8          1.0410   -2.1980   -1.8050 ca        1 YTZ      0.045500
      8 C9          1.5900   -3.2270   -2.5460 ca        1 YTZ     -0.242500
      9 C1          2.9730   -3.5360   -2.4260 ca        1 YTZ      0.257600
     10 N1          3.5460   -4.5180   -3.1950 nv        1 YTZ     -0.861200
     11 N2          1.5190    1.1630   -0.7970 nu        1 YTZ     -0.852800
     12 C5          1.1040    1.5380   -2.0710 cc        1 YTZ      0.607300
     13 S2         -0.5150    2.1260   -2.3600 ss        1 YTZ     -0.037300
     14 C7         -0.1700    2.3600   -3.9650 cc        1 YTZ     -0.273400
     15 C6          1.1480    2.0150   -4.2460 cd        1 YTZ      0.334200
     16 N3          1.8800    1.5480   -3.1790 nd        1 YTZ     -0.645000
     17 H1          3.7910   -1.1780   -0.0740 ha        1 YTZ      0.150000
     18 H2          4.8250   -2.9930   -1.3880 ha        1 YTZ      0.139500
     19 H3         -0.0380   -1.9760   -1.9020 ha        1 YTZ      0.150000
     20 H4          0.9540   -3.8020   -3.2350 ha        1 YTZ      0.139500
     21 H5          2.9610   -5.1320   -3.7050 hn        1 YTZ      0.428800
     22 H6          4.4660   -4.8160   -2.9880 hn        1 YTZ      0.428800
     23 H7          2.2580    1.7340   -0.4420 hn        1 YTZ      0.460800
     24 H8         -0.8850    2.7260   -4.6990 h4        1 YTZ      0.183000
     25 H9          1.6360    2.0800   -5.2260 h4        1 YTZ      0.045100
@<TRIPOS>BOND
     1    1    2 2   
     2    2    3 2   
     3    2    4 1   
     4    2   11 1   
     5    4    5 ar  
     6    4    7 ar  
     7    5    6 ar  
     8    5   17 1   
     9    6    9 ar  
    10    6   18 1   
    11    7    8 ar  
    12    7   19 1   
    13    8    9 ar  
    14    8   20 1   
    15    9   10 1   
    16   10   21 1   
    17   10   22 1   
    18   11   12 1   
    19   11   23 1   
    20   12   13 1   
    21   12   16 2   
    22   13   14 1   
    23   14   15 2   
    24   14   24 1   
    25   15   16 1   
    26   15   25 1   
@<TRIPOS>SUBSTRUCTURE
     1 YTZ         1 TEMP              0 ****  ****    0 ROOT
