@<TRIPOS>MOLECULE
YTZ
   25    26     1     0     0
SMALL
bcc


@<TRIPOS>ATOM
      1 O2          0.5310   -1.5120    1.8820 o         1 YTZ     -0.652800
      2 S1          0.1420   -1.6630    0.5360 sy        1 YTZ      1.523200
      3 O1         -0.2000   -2.9680    0.1130 o         1 YTZ     -0.652800
      4 C4         -1.1030   -0.6200    0.2040 ca        1 YTZ     -0.478500
      5 C3         -1.9370   -0.8200   -0.9080 ca        1 YTZ      0.045500
      6 C2         -2.9980    0.0190   -1.1880 ca        1 YTZ     -0.242500
      7 C8         -1.3840    0.4710    1.0410 ca        1 YTZ      0.045500
      8 C9         -2.4370    1.3310    0.7920 ca        1 YTZ     -0.242500
      9 C1         -3.2700    1.1310   -0.3430 ca        1 YTZ      0.257600
     10 N1         -4.2860    2.0060   -0.6350 nh        1 YTZ     -0.861200
     11 N2          1.3660   -1.1810   -0.4560 nh        1 YTZ     -0.852800
     12 C5          2.0390    0.0350   -0.4160 cc        1 YTZ      0.606300
     13 S2          3.2440    0.3650    0.8050 ss        1 YTZ     -0.037300
     14 C7          3.5360    1.8590    0.1490 cc        1 YTZ     -0.273400
     15 C6          2.7470    2.0720   -0.9770 cd        1 YTZ      0.334200
     16 N3          1.8940    1.0440   -1.3060 nd        1 YTZ     -0.645000
     17 H1         -1.7460   -1.6870   -1.5680 ha        1 YTZ      0.150000
     18 H2         -3.6270   -0.1710   -2.0690 ha        1 YTZ      0.139500
     19 H3         -0.7510    0.6340    1.9340 ha        1 YTZ      0.150000
     20 H4         -2.6250    2.1740    1.4730 ha        1 YTZ      0.139500
     21 H5         -4.5520    2.6770    0.0410 hn        1 YTZ      0.428800
     22 H6         -4.9410    1.7660   -1.3360 hn        1 YTZ      0.428800
     23 H7          1.5540   -1.7060   -1.2850 hn        1 YTZ      0.460800
     24 H8          4.2470    2.5780    0.5520 h4        1 YTZ      0.183000
     25 H9          2.7470    2.9720   -1.6030 h4        1 YTZ      0.045100
@<TRIPOS>BOND
     1    1    2 2   
     2    2    3 2   
     3    2    4 1   
     4    2   11 1   
     5    4    5 ar  
     6    4    7 ar  
     7    5    6 ar  
     8    5   17 1   
     9    6    9 ar  
    10    6   18 1   
    11    7    8 ar  
    12    7   19 1   
    13    8    9 ar  
    14    8   20 1   
    15    9   10 1   
    16   10   21 1   
    17   10   22 1   
    18   11   12 1   
    19   11   23 1   
    20   12   13 1   
    21   12   16 2   
    22   13   14 1   
    23   14   15 2   
    24   14   24 1   
    25   15   16 1   
    26   15   25 1   
@<TRIPOS>SUBSTRUCTURE
     1 YTZ         1 TEMP              0 ****  ****    0 ROOT
