@<TRIPOS>MOLECULE
YTZ
   27    28     1     0     0
SMALL
bcc


@<TRIPOS>ATOM
      1 O2         -0.2600   -0.2200   -0.5190 o         1 YTZ     -0.531300
      2 S1          1.0750   -0.2880   -0.2200 sy        1 YTZ      1.452200
      3 O1          1.5650   -0.1730    1.0650 o         1 YTZ     -0.531300
      4 C4          1.8850   -1.4570   -1.0680 ca        1 YTZ     -0.421500
      5 C3          3.1010   -1.9740   -0.5850 ca        1 YTZ      0.038000
      6 C2          3.7370   -3.0410   -1.2130 ca        1 YTZ     -0.123000
      7 C8          1.3200   -2.0390   -2.2140 ca        1 YTZ      0.038000
      8 C9          1.9390   -3.1090   -2.8650 ca        1 YTZ     -0.123000
      9 C1          3.1450   -3.6120   -2.3540 ca        1 YTZ      0.044600
     10 N1          3.7880   -4.7590   -3.0030 n4        1 YTZ     -0.722000
     11 N2          1.8540    1.2820   -0.9600 n4        1 YTZ     -0.630600
     12 C5          1.0690    1.7800   -2.0600 cc        1 YTZ      0.261300
     13 S2          0.4520    3.3570   -2.2140 ss        1 YTZ      0.271700
     14 C7         -0.2340    2.9910   -3.6490 cc        1 YTZ     -0.246400
     15 C6          0.0190    1.6510   -4.0100 cd        1 YTZ      0.374200
     16 N3          0.7630    0.9530   -3.1140 nd        1 YTZ     -0.649000
     17 H1          3.5570   -1.5500    0.3340 ha        1 YTZ      0.206000
     18 H2          4.6870   -3.4230   -0.7950 ha        1 YTZ      0.192000
     19 H3          0.3530   -1.6630   -2.6110 ha        1 YTZ      0.206000
     20 H4          1.4560   -3.5390   -3.7620 ha        1 YTZ      0.192000
     21 H5          3.5050   -4.8170   -3.9910 hn        1 YTZ      0.484467
     22 H6          3.5060   -5.6270   -2.5230 hn        1 YTZ      0.484467
     23 H7          2.8080    1.1090   -1.2880 hn        1 YTZ      0.463800
     24 H8         -0.8250    3.6800   -4.2660 h4        1 YTZ      0.236000
     25 H9         -0.3360    1.1620   -4.9300 h4        1 YTZ      0.086100
     26 H13         4.8130   -4.6680   -2.9530 hn        1 YTZ      0.484467
     27 H22         1.9150    2.0110   -0.2440 hn        1 YTZ      0.463800
@<TRIPOS>BOND
     1    1    2 2   
     2    2    3 2   
     3    2    4 1   
     4    2   11 1   
     5    4    5 ar  
     6    4    7 ar  
     7    5    6 ar  
     8    5   17 1   
     9    6    9 ar  
    10    6   18 1   
    11    7    8 ar  
    12    7   19 1   
    13    8    9 ar  
    14    8   20 1   
    15    9   10 1   
    16   10   21 1   
    17   10   22 1   
    18   10   26 1   
    19   11   12 1   
    20   11   23 1   
    21   11   27 1   
    22   12   13 1   
    23   12   16 2   
    24   13   14 1   
    25   14   15 2   
    26   14   24 1   
    27   15   16 1   
    28   15   25 1   
@<TRIPOS>SUBSTRUCTURE
     1 YTZ         1 TEMP              0 ****  ****    0 ROOT
