@<TRIPOS>MOLECULE
YU7
   39    41     1     0     0
SMALL
bcc


@<TRIPOS>ATOM
      1 CL          1.5080    1.7230    1.0950 cl        1 YU7     -0.081400
      2 C10         2.7080    0.6450    0.5590 ca        1 YU7      0.034400
      3 C9          3.8420    0.4470    1.3550 ca        1 YU7     -0.119000
      4 C8          4.8350   -0.4360    0.9350 ca        1 YU7     -0.089000
      5 C7          4.7020   -1.1210   -0.2730 ca        1 YU7     -0.122000
      6 C6          3.5720   -0.9230   -1.0650 ca        1 YU7     -0.101000
      7 C5          2.5650   -0.0410   -0.6570 ca        1 YU7     -0.150300
      8 C4          1.3300    0.0930   -1.4930 c3        1 YU7      0.071600
      9 N2          1.1970    1.3720   -2.1620 na        1 YU7     -0.016100
     10 C3          2.2080    2.1180   -2.7040 cc        1 YU7      0.017700
     11 C11        -0.0300    2.0300   -2.3700 cc        1 YU7     -0.103300
     12 C12         0.2050    3.2180   -3.0620 cd        1 YU7     -0.060000
     13 C2          1.6380    3.2920   -3.2850 cd        1 YU7     -0.319600
     14 C1          2.4010    4.2930   -3.9300 c         1 YU7      0.607700
     15 N1          1.5570    5.4810   -4.4540 n4        1 YU7     -0.462300
     16 O2          2.2510    6.4640   -5.0610 oh        1 YU7     -0.373300
     17 O1          3.6020    4.4030   -4.1540 o         1 YU7     -0.473100
     18 C13        -0.7890    4.1880   -3.4760 ca        1 YU7     -0.097000
     19 C18        -1.3970    4.0840   -4.7370 ca        1 YU7     -0.139500
     20 C17        -2.3740    5.0020   -5.1190 ca        1 YU7     -0.120500
     21 C16        -2.7510    6.0280   -4.2510 ca        1 YU7     -0.101000
     22 C15        -2.1480    6.1360   -2.9970 ca        1 YU7     -0.120500
     23 C14        -1.1710    5.2220   -2.6070 ca        1 YU7     -0.139500
     24 H9          3.9460    0.9830    2.3120 ha        1 YU7      0.165000
     25 H8          5.7260   -0.5960    1.5650 ha        1 YU7      0.158000
     26 H7          5.4850   -1.8220   -0.6000 ha        1 YU7      0.156000
     27 H6          3.4670   -1.4750   -2.0130 ha        1 YU7      0.144000
     28 H41C        1.3170   -0.7110   -2.2890 h1        1 YU7      0.093200
     29 H42C        0.4170   -0.0460   -0.8390 h1        1 YU7      0.093200
     30 H3          3.2630    1.8200   -2.6640 h4        1 YU7      0.213000
     31 H11        -0.9710    1.6040   -2.0090 h4        1 YU7      0.207000
     32 H1          0.8530    5.1200   -5.1320 hn        1 YU7      0.483300
     33 H18        -1.1270    3.2550   -5.4100 ha        1 YU7      0.150000
     34 H14        -0.7220    5.2900   -1.6040 ha        1 YU7      0.150000
     35 H17        -2.8600    4.9070   -6.1030 ha        1 YU7      0.159000
     36 H16        -3.5320    6.7450   -4.5510 ha        1 YU7      0.161000
     37 H15        -2.4560    6.9370   -2.3050 ha        1 YU7      0.159000
     38 H2          3.2140    6.2330   -5.0690 ho        1 YU7      0.485000
     39 H12         1.0380    5.9020   -3.6550 hn        1 YU7      0.483300
@<TRIPOS>BOND
     1    1    2 1   
     2    2    3 ar  
     3    2    7 ar  
     4    3    4 ar  
     5    3   24 1   
     6    4    5 ar  
     7    4   25 1   
     8    5    6 ar  
     9    5   26 1   
    10    6    7 ar  
    11    6   27 1   
    12    7    8 1   
    13    8    9 1   
    14    8   28 1   
    15    8   29 1   
    16    9   10 1   
    17    9   11 1   
    18   10   13 2   
    19   10   30 1   
    20   11   12 2   
    21   11   31 1   
    22   12   13 1   
    23   12   18 1   
    24   13   14 1   
    25   14   15 1   
    26   14   17 2   
    27   15   16 1   
    28   15   32 1   
    29   15   39 1   
    30   16   38 1   
    31   18   19 ar  
    32   18   23 ar  
    33   19   20 ar  
    34   19   33 1   
    35   20   21 ar  
    36   20   35 1   
    37   21   22 ar  
    38   21   36 1   
    39   22   23 ar  
    40   22   37 1   
    41   23   34 1   
@<TRIPOS>SUBSTRUCTURE
     1 YU7         1 TEMP              0 ****  ****    0 ROOT
