@<TRIPOS>MOLECULE
YU7
   38    40     1     0     0
SMALL
bcc


@<TRIPOS>ATOM
      1 CL         -3.2580   -2.3490    0.8180 cl        1 YU7     -0.092400
      2 C10        -3.7390   -0.9160    0.0340 ca        1 YU7      0.037400
      3 C9         -4.7020   -1.0090   -0.9780 ca        1 YU7     -0.124000
      4 C8         -5.1160    0.1390   -1.6480 ca        1 YU7     -0.108000
      5 C7         -4.5730    1.3800   -1.3120 ca        1 YU7     -0.127000
      6 C6         -3.6180    1.4690   -0.3030 ca        1 YU7     -0.101000
      7 C5         -3.1930    0.3260    0.3840 ca        1 YU7     -0.113300
      8 C4         -2.1810    0.4800    1.4860 c3        1 YU7      0.081600
      9 N2         -0.8150    0.5240    1.0400 na        1 YU7     -0.052100
     10 C3         -0.1000    1.6770    0.7440 cc        1 YU7     -0.117300
     11 C11        -0.0170   -0.5830    0.7510 cc        1 YU7     -0.146300
     12 C12         1.2300   -0.1360    0.2740 cd        1 YU7     -0.051000
     13 C2          1.1720    1.3060    0.2700 cd        1 YU7     -0.213600
     14 C1          2.2070    2.2640   -0.1210 c         1 YU7      0.640700
     15 N1          2.3760    3.3870    0.7640 n         1 YU7     -0.355400
     16 O2          3.5240    4.0510    0.6000 oh        1 YU7     -0.442100
     17 O1          2.8330    2.2380   -1.1930 o         1 YU7     -0.563100
     18 C13         2.3210   -1.0140   -0.0850 ca        1 YU7     -0.020000
     19 C18         2.5850   -2.1450    0.7050 ca        1 YU7     -0.115500
     20 C17         3.6170   -3.0160    0.3660 ca        1 YU7     -0.134500
     21 C16         4.3960   -2.7730   -0.7650 ca        1 YU7     -0.128000
     22 C15         4.1380   -1.6540   -1.5560 ca        1 YU7     -0.134500
     23 C14         3.1060   -0.7780   -1.2220 ca        1 YU7     -0.115500
     24 H9         -5.1270   -1.9890   -1.2460 ha        1 YU7      0.152000
     25 H8         -5.8710    0.0640   -2.4460 ha        1 YU7      0.142000
     26 H7         -4.8960    2.2860   -1.8460 ha        1 YU7      0.142000
     27 H6         -3.1850    2.4480   -0.0430 ha        1 YU7      0.138000
     28 H41C       -2.3960    1.4410    2.0390 h1        1 YU7      0.075700
     29 H42C       -2.2810   -0.3730    2.2190 h1        1 YU7      0.075700
     30 H3         -0.5240    2.6730    0.8790 h4        1 YU7      0.176000
     31 H11        -0.3790   -1.6020    0.8940 h4        1 YU7      0.180000
     32 H1          2.3260    3.1110    1.7390 hn        1 YU7      0.296500
     33 H18         1.9730   -2.3370    1.5990 ha        1 YU7      0.145500
     34 H14         2.9090    0.1080   -1.8480 ha        1 YU7      0.145500
     35 H17         3.8170   -3.8970    0.9930 ha        1 YU7      0.130500
     36 H16         5.2110   -3.4620   -1.0310 ha        1 YU7      0.129000
     37 H15         4.7500   -1.4580   -2.4480 ha        1 YU7      0.130500
     38 H2          3.4680    4.4700   -0.2820 ho        1 YU7      0.433000
@<TRIPOS>BOND
     1    1    2 1   
     2    2    3 ar  
     3    2    7 ar  
     4    3    4 ar  
     5    3   24 1   
     6    4    5 ar  
     7    4   25 1   
     8    5    6 ar  
     9    5   26 1   
    10    6    7 ar  
    11    6   27 1   
    12    7    8 1   
    13    8    9 1   
    14    8   28 1   
    15    8   29 1   
    16    9   10 1   
    17    9   11 1   
    18   10   13 2   
    19   10   30 1   
    20   11   12 2   
    21   11   31 1   
    22   12   13 1   
    23   12   18 1   
    24   13   14 1   
    25   14   15 1   
    26   14   17 2   
    27   15   16 1   
    28   15   32 1   
    29   16   38 1   
    30   18   19 ar  
    31   18   23 ar  
    32   19   20 ar  
    33   19   33 1   
    34   20   21 ar  
    35   20   35 1   
    36   21   22 ar  
    37   21   36 1   
    38   22   23 ar  
    39   22   37 1   
    40   23   34 1   
@<TRIPOS>SUBSTRUCTURE
     1 YU7         1 TEMP              0 ****  ****    0 ROOT
