@<TRIPOS>MOLECULE
YU7
   39    41     1     0     0
SMALL
bcc


@<TRIPOS>ATOM
      1 Cl          4.6020    1.6650    0.1170 cl        1 YU7     -0.108400
      2 C10         3.8390    0.3300   -0.6230 ca        1 YU7      0.032400
      3 C9          4.6460   -0.6890   -1.1400 ca        1 YU7     -0.117000
      4 C8          4.0560   -1.7960   -1.7480 ca        1 YU7     -0.090000
      5 C7          2.6660   -1.8880   -1.8370 ca        1 YU7     -0.117000
      6 C6          1.8660   -0.8730   -1.3170 ca        1 YU7     -0.096000
      7 C5          2.4420    0.2440   -0.7010 ca        1 YU7     -0.136300
      8 C4          1.5420    1.2840   -0.1020 c3        1 YU7      0.066600
      9 N2          1.2270    2.3800   -0.9970 na        1 YU7      0.008900
     10 C3          1.9790    3.5110   -1.1770 cc        1 YU7     -0.078300
     11 C11         0.0960    2.4430   -1.8210 cc        1 YU7     -0.144300
     12 C12         0.1070    3.6550   -2.5290 cd        1 YU7      0.023000
     13 C2          1.3180    4.3460   -2.1240 cd        1 YU7     -0.311600
     14 C1          1.7430    5.6190   -2.5820 c         1 YU7      0.628700
     15 N1          3.3030    5.7150   -2.7470 ny        1 YU7     -0.479300
     16 O2          3.7850    6.9710   -2.8480 oh        1 YU7     -0.370300
     17 O1          1.1800    6.6500   -2.9070 o         1 YU7     -0.431100
     18 C13        -0.8920    4.0640   -3.4880 ca        1 YU7     -0.077000
     19 C18        -1.3310    3.1470   -4.4580 ca        1 YU7     -0.104500
     20 C17        -2.3120    3.5140   -5.3760 ca        1 YU7     -0.125000
     21 C16        -2.8710    4.7920   -5.3310 ca        1 YU7     -0.097000
     22 C15        -2.4450    5.7040   -4.3660 ca        1 YU7     -0.125000
     23 C14        -1.4600    5.3460   -3.4480 ca        1 YU7     -0.104500
     24 H9          5.7430   -0.6210   -1.0620 ha        1 YU7      0.164000
     25 H8          4.6910   -2.6010   -2.1520 ha        1 YU7      0.159000
     26 H7          2.2000   -2.7650   -2.3140 ha        1 YU7      0.157000
     27 H6          0.7690   -0.9550   -1.3820 ha        1 YU7      0.143000
     28 H41C        0.5630    0.8040    0.1970 h1        1 YU7      0.096700
     29 H42C        2.0170    1.7170    0.8280 h1        1 YU7      0.096700
     30 H3          2.8950    3.6860   -0.6040 h4        1 YU7      0.186000
     31 H11        -0.6440    1.6390   -1.8410 h4        1 YU7      0.204000
     32 H1          3.7710    5.2920   -1.9250 hn        1 YU7      0.469300
     33 H18        -0.8950    2.1380   -4.4920 ha        1 YU7      0.138000
     34 H14        -1.1340    6.0690   -2.6840 ha        1 YU7      0.138000
     35 H17        -2.6490    2.7920   -6.1350 ha        1 YU7      0.149000
     36 H16        -3.6510    5.0780   -6.0540 ha        1 YU7      0.151000
     37 H15        -2.8900    6.7100   -4.3230 ha        1 YU7      0.149000
     38 H2          3.0710    7.5630   -3.1930 ho        1 YU7      0.485000
     39 H12         3.5780    5.1820   -3.5910 hn        1 YU7      0.469300
@<TRIPOS>BOND
     1    1    2 1   
     2    2    3 ar  
     3    2    7 ar  
     4    3    4 ar  
     5    3   24 1   
     6    4    5 ar  
     7    4   25 1   
     8    5    6 ar  
     9    5   26 1   
    10    6    7 ar  
    11    6   27 1   
    12    7    8 1   
    13    8    9 1   
    14    8   28 1   
    15    8   29 1   
    16    9   10 1   
    17    9   11 1   
    18   10   13 2   
    19   10   30 1   
    20   11   12 2   
    21   11   31 1   
    22   12   13 1   
    23   12   18 1   
    24   13   14 1   
    25   14   15 1   
    26   14   17 2   
    27   15   16 1   
    28   15   32 1   
    29   15   39 1   
    30   16   38 1   
    31   18   19 ar  
    32   18   23 ar  
    33   19   20 ar  
    34   19   33 1   
    35   20   21 ar  
    36   20   35 1   
    37   21   22 ar  
    38   21   36 1   
    39   22   23 ar  
    40   22   37 1   
    41   23   34 1   
@<TRIPOS>SUBSTRUCTURE
     1 YU7         1 TEMP              0 ****  ****    0 ROOT
