@<TRIPOS>MOLECULE
YUG
   24    25     1     0     0
SMALL
bcc


@<TRIPOS>ATOM
      1 O           0.2660    0.3350   -0.2180 os        1 YUG     -0.201200
      2 C1          1.6360    0.1500   -0.0190 ca        1 YUG      0.176100
      3 C2          2.0480   -0.2940    1.2490 ca        1 YUG     -0.071900
      4 C3          3.4420   -0.3780    1.4850 ca        1 YUG      0.204100
      5 O3          3.8270   -0.8040    2.7290 oh        1 YUG     -0.473100
      6 C4          4.3710   -0.0400    0.4800 ca        1 YUG     -0.141900
      7 Br3        -3.4100   -0.6140   -4.7640 br        1 YUG     -0.118400
      8 C5          3.9130    0.3910   -0.7680 ca        1 YUG     -0.029000
      9 C6          2.5540    0.4910   -1.0220 ca        1 YUG     -0.205000
     10 C1'        -0.1830    0.1240   -1.5030 ce        1 YUG      0.078000
     11 C2'        -0.4380   -1.2420   -2.0260 ce        1 YUG     -0.059300
     12 Br2         0.8070   -0.7570    2.5760 br        1 YUG     -0.030100
     13 C3'        -1.6030   -1.3970   -2.7060 c2        1 YUG     -0.104200
     14 C4'        -2.5020   -0.2440   -3.0900 c3        1 YUG      0.045100
     15 Br1         0.6970   -2.6630   -1.6450 br        1 YUG     -0.024700
     16 C5'        -1.6710    1.0080   -3.2190 c2        1 YUG     -0.154300
     17 C6'        -0.7330    1.0560   -2.2880 c1        1 YUG     -0.035800
     18 H1          4.7990   -0.8160    2.7640 ho        1 YUG      0.438000
     19 H2          2.1890    0.8390   -2.0010 ha        1 YUG      0.162000
     20 H3          4.6330    0.6590   -1.5590 ha        1 YUG      0.156000
     21 H4         -1.9670   -2.3970   -2.9960 ha        1 YUG      0.169000
     22 H5         -3.3180   -0.1520   -2.3250 h1        1 YUG      0.117700
     23 H6         -1.8080    1.6980   -4.0560 ha        1 YUG      0.178000
     24 Br4         6.2210   -0.1510    0.7640 br        1 YUG     -0.076100
@<TRIPOS>BOND
     1    1    2 1   
     2    1   10 1   
     3    2    3 ar  
     4    2    9 ar  
     5    3    4 ar  
     6    3   12 1   
     7    4    5 1   
     8    4    6 ar  
     9    5   18 1   
    10    6    8 ar  
    11    6   24 1   
    12    7   14 1   
    13    8    9 ar  
    14    8   20 1   
    15    9   19 1   
    16   10   11 1   
    17   10   17 2   
    18   11   13 2   
    19   11   15 1   
    20   13   14 1   
    21   13   21 1   
    22   14   16 1   
    23   14   22 1   
    24   16   17 2   
    25   16   23 1   
@<TRIPOS>SUBSTRUCTURE
     1 YUG         1 TEMP              0 ****  ****    0 ROOT
