@<TRIPOS>MOLECULE
YUG
   24    25     1     0     0
SMALL
bcc


@<TRIPOS>ATOM
      1 O           0.1550   -0.9470   -0.9960 os        1 YUG     -0.232200
      2 C1         -0.9020   -0.1420   -0.5880 ca        1 YUG      0.194100
      3 C2         -2.1500   -0.7720   -0.4230 ca        1 YUG     -0.138900
      4 C3         -3.2590    0.0350   -0.0790 ca        1 YUG      0.210100
      5 O3         -4.5140   -0.4830    0.0990 oh        1 YUG     -0.473100
      6 C4         -3.1180    1.4280    0.1010 ca        1 YUG     -0.087900
      7 BR3         5.9070    0.7850   -0.3470 br        1 YUG     -0.066100
      8 C5         -1.8590    2.0090   -0.0690 ca        1 YUG     -0.029000
      9 C6         -0.7560    1.2390   -0.4130 ca        1 YUG     -0.223000
     10 C1'         1.4390   -0.4480   -0.7710 ca        1 YUG      0.119100
     11 C2'         2.0320   -0.4420    0.5020 ca        1 YUG     -0.040900
     12 BR2        -2.3610   -2.6240   -0.6480 br        1 YUG     -0.052100
     13 C3'         3.3770   -0.0680    0.6110 ca        1 YUG     -0.073000
     14 C4'         4.1120    0.2890   -0.5210 ca        1 YUG     -0.031900
     15 BR1         1.1090   -0.9210    2.0560 br        1 YUG     -0.045100
     16 C5'         3.5100    0.2730   -1.7840 ca        1 YUG     -0.084000
     17 C6'         2.1740   -0.0900   -1.9110 ca        1 YUG     -0.128000
     18 H1         -4.4780   -1.4450   -0.0450 ho        1 YUG      0.439000
     19 H2         -1.7330    3.0960    0.0680 ha        1 YUG      0.156000
     20 H3          0.2290    1.7100   -0.5470 ha        1 YUG      0.156000
     21 H4          3.8590   -0.0590    1.6040 ha        1 YUG      0.166000
     22 H5          4.0860    0.5480   -2.6830 ha        1 YUG      0.158000
     23 H6          1.6860   -0.1150   -2.8980 ha        1 YUG      0.163000
     24 BR4        -4.5490    2.5430    0.5620 br        1 YUG     -0.054100
@<TRIPOS>BOND
     1    1    2 1   
     2    1   10 1   
     3    2    3 ar  
     4    2    9 ar  
     5    3    4 ar  
     6    3   12 1   
     7    4    5 1   
     8    4    6 ar  
     9    5   18 1   
    10    6    8 ar  
    11    6   24 1   
    12    7   14 1   
    13    8    9 ar  
    14    8   19 1   
    15    9   20 1   
    16   10   11 ar  
    17   10   17 ar  
    18   11   13 ar  
    19   11   15 1   
    20   13   14 ar  
    21   13   21 1   
    22   14   16 ar  
    23   16   17 ar  
    24   16   22 1   
    25   17   23 1   
@<TRIPOS>SUBSTRUCTURE
     1 YUG         1 TEMP              0 ****  ****    0 ROOT
