@<TRIPOS>MOLECULE
YUK
   68    73     1     0     0
SMALL
bcc


@<TRIPOS>ATOM
      1 O30        -0.0210   -0.2890    0.3580 o         1 YUK     -0.509100
      2 C28         1.1390    0.0370    0.0950 c         1 YUK      0.579700
      3 N29         1.8560    0.5360    1.3520 n4        1 YUK     -0.757400
      4 C25         1.8800    0.0450   -1.1270 ca        1 YUK     -0.323600
      5 C24         1.2140   -0.2120   -2.3810 ca        1 YUK      0.325600
      6 N31        -0.1080   -0.4960   -2.4530 nh        1 YUK     -0.717600
      7 C32        -0.8420   -0.7150   -3.6930 c3        1 YUK      0.203500
      8 C37        -2.3520   -0.4970   -3.4830 c3        1 YUK     -0.089900
      9 C36        -3.0760   -0.6200   -4.8060 c3        1 YUK     -0.098900
     10 C35        -2.8250   -1.9800   -5.4530 c3        1 YUK      0.142100
     11 O38        -3.3680   -2.0170   -6.7640 oh        1 YUK     -0.588800
     12 C34        -1.3310   -2.2480   -5.6070 c3        1 YUK     -0.098900
     13 C33        -0.6190   -2.1210   -4.2790 c3        1 YUK     -0.089900
     14 C23         2.0110   -0.1280   -3.5820 ca        1 YUK     -0.192000
     15 C22         3.3520    0.1540   -3.5410 cp        1 YUK     -0.010500
     16 C27         4.0050    0.3680   -2.2940 ca        1 YUK     -0.151000
     17 C26         3.2810    0.3160   -1.1380 ca        1 YUK     -0.077000
     18 C21         4.1280    0.2780   -4.7970 cp        1 YUK      0.427800
     19 N20         3.7630    1.2450   -5.6430 nb        1 YUK     -0.636000
     20 C19         4.4870    1.3950   -6.7870 ca        1 YUK      0.381200
     21 C18         5.5610    0.5900   -7.1330 ca        1 YUK     -0.196300
     22 C13         5.9420   -0.4680   -6.2650 ca        1 YUK     -0.020000
     23 C14         5.2210   -0.6260   -5.0490 ca        1 YUK     -0.123300
     24 C12         7.0270   -1.3750   -6.5510 ca        1 YUK      0.032800
     25 C17         7.3660   -2.3500   -5.6200 ca        1 YUK     -0.123000
     26 C16         6.6420   -2.4810   -4.4160 ca        1 YUK     -0.098000
     27 C15         5.5860   -1.6500   -4.1380 ca        1 YUK     -0.132000
     28 N10         7.7420   -1.2760   -7.7560 na        1 YUK     -0.166000
     29 C9          7.2140   -1.2290   -9.0670 cc        1 YUK      0.406400
     30 N8          8.1880   -1.2400   -9.9880 nd        1 YUK     -0.641000
     31 C7          9.4050   -1.3080   -9.2770 cd        1 YUK      0.379800
     32 C11         9.1380   -1.3450   -7.8930 cc        1 YUK     -0.234600
     33 C4         10.7140   -1.3350   -9.9020 ca        1 YUK     -0.119500
     34 C3         10.8570   -1.6440  -11.2630 ca        1 YUK     -0.110000
     35 C2         12.1240   -1.6730  -11.8440 ca        1 YUK     -0.132000
     36 C1         13.2560   -1.3950  -11.0790 ca        1 YUK     -0.119000
     37 C6         13.1200   -1.0850   -9.7260 ca        1 YUK     -0.132000
     38 C5         11.8580   -1.0530   -9.1390 ca        1 YUK     -0.110000
     39 H1          2.2430    1.4680    1.1850 hn        1 YUK      0.461467
     40 H2          1.1830    0.5770    2.1270 hn        1 YUK      0.461467
     41 H3         -0.6400   -0.6120   -1.6150 hn        1 YUK      0.462800
     42 H4         -0.4880    0.0510   -4.4490 h1        1 YUK      0.079700
     43 H5         -2.5390    0.5210   -3.0530 hc        1 YUK      0.055700
     44 H6         -2.7510   -1.2570   -2.7610 hc        1 YUK      0.055700
     45 H7         -2.7410    0.1870   -5.5090 hc        1 YUK      0.066450
     46 H8         -4.1760   -0.4830   -4.6380 hc        1 YUK      0.066450
     47 H9         -3.2960   -2.7890   -4.8250 h1        1 YUK      0.039700
     48 H10        -4.3220   -1.8970   -6.6780 ho        1 YUK      0.409000
     49 H11        -0.9040   -1.5280   -6.3530 hc        1 YUK      0.066450
     50 H12        -1.1850   -3.2810   -6.0180 hc        1 YUK      0.066450
     51 H13         0.4770   -2.3090   -4.4270 hc        1 YUK      0.055700
     52 H14        -1.0040   -2.8940   -3.5640 hc        1 YUK      0.055700
     53 H15         1.5280   -0.2910   -4.5610 ha        1 YUK      0.178000
     54 H16         5.0850    0.5830   -2.2850 ha        1 YUK      0.169000
     55 H17         3.8240    0.4780   -0.1940 ha        1 YUK      0.112000
     56 H18         4.1550    2.2270   -7.4370 h4        1 YUK      0.043100
     57 H19         6.1120    0.7870   -8.0660 ha        1 YUK      0.172000
     58 H20         8.2020   -3.0450   -5.8130 ha        1 YUK      0.162000
     59 H21         6.9350   -3.2730   -3.7090 ha        1 YUK      0.149000
     60 H22         5.0110   -1.7710   -3.2080 ha        1 YUK      0.136000
     61 H23         6.1380   -1.2040   -9.2690 h5        1 YUK      0.067100
     62 H24         9.8030   -1.4000   -7.0340 h4        1 YUK      0.185000
     63 H25         9.9700   -1.8630  -11.8780 ha        1 YUK      0.137500
     64 H26        12.2280   -1.9160  -12.9120 ha        1 YUK      0.135000
     65 H27        14.2540   -1.4190  -11.5410 ha        1 YUK      0.136000
     66 H28        14.0110   -0.8620   -9.1200 ha        1 YUK      0.135000
     67 H29        11.7580   -0.7980   -8.0740 ha        1 YUK      0.137500
     68 H293        2.6140   -0.1030    1.5990 hn        1 YUK      0.461467
@<TRIPOS>BOND
     1    1    2 2   
     2    2    3 1   
     3    2    4 1   
     4    3   39 1   
     5    3   40 1   
     6    3   68 1   
     7    4    5 ar  
     8    4   17 ar  
     9    5    6 1   
    10    5   14 ar  
    11    6    7 1   
    12    6   41 1   
    13    7    8 1   
    14    7   13 1   
    15    7   42 1   
    16    8    9 1   
    17    8   43 1   
    18    8   44 1   
    19    9   10 1   
    20    9   45 1   
    21    9   46 1   
    22   10   11 1   
    23   10   12 1   
    24   10   47 1   
    25   11   48 1   
    26   12   13 1   
    27   12   49 1   
    28   12   50 1   
    29   13   51 1   
    30   13   52 1   
    31   14   15 ar  
    32   14   53 1   
    33   15   16 ar  
    34   15   18 1   
    35   16   17 ar  
    36   16   54 1   
    37   17   55 1   
    38   18   19 ar  
    39   18   23 ar  
    40   19   20 ar  
    41   20   21 ar  
    42   20   56 1   
    43   21   22 ar  
    44   21   57 1   
    45   22   23 ar  
    46   22   24 ar  
    47   23   27 ar  
    48   24   25 ar  
    49   24   28 1   
    50   25   26 ar  
    51   25   58 1   
    52   26   27 ar  
    53   26   59 1   
    54   27   60 1   
    55   28   29 1   
    56   28   32 1   
    57   29   30 2   
    58   29   61 1   
    59   30   31 1   
    60   31   32 2   
    61   31   33 1   
    62   32   62 1   
    63   33   34 ar  
    64   33   38 ar  
    65   34   35 ar  
    66   34   63 1   
    67   35   36 ar  
    68   35   64 1   
    69   36   37 ar  
    70   36   65 1   
    71   37   38 ar  
    72   37   66 1   
    73   38   67 1   
@<TRIPOS>SUBSTRUCTURE
     1 YUK         1 TEMP              0 ****  ****    0 ROOT
