@<TRIPOS>MOLECULE
YUN
   38    31     1     0     0
SMALL
bcc


@<TRIPOS>ATOM
      1 CAL         4.0920   -1.3990   -1.2760 c1        1 YUN     -0.087000
      2 CAX         5.4750   -1.4530   -1.3610 c1        1 YUN     -0.151000
      3 BR          6.3180   -2.8620   -2.3410 br        1 YUN      0.056000
      4 CAH         6.2470   -0.5170   -0.6910 c1        1 YUN     -0.118000
      5 CAF         5.6370    0.4730    0.0630 c1        1 YUN     -0.121000
      6 CAI         4.2540    0.5270    0.1480 c1        1 YUN     -0.121000
      7 CAY         3.4820   -0.4090   -0.5210 c1        1 YUN      0.052000
      8 NAT         2.0710   -0.4140   -0.3550 n3        1 YUN     -0.242000
      9 C6          1.2560    0.4040   -1.1800 c2        1 YUN      0.157000
     10 C5         -0.1230    0.5180   -1.0900 c1        1 YUN     -0.121000
     11 CAM        -0.8240   -0.1570   -0.0680 c1        1 YUN     -0.170000
     12 N1          1.9260    1.0760   -2.1340 n2        1 YUN     -0.229000
     13 C2          1.2460    1.8740   -3.0180 c1        1 YUN     -0.005000
     14 N3         -0.1130    1.9880   -2.9330 n1        1 YUN     -0.172000
     15 C4         -0.7950    1.3090   -1.9670 c1        1 YUN      0.014000
     16 CAK        -2.1960    1.4540   -1.8550 c1        1 YUN     -0.121000
     17 CAJ        -2.8840    0.7910   -0.8520 c1        1 YUN     -0.121000
     18 CAZ        -2.1980   -0.0140    0.0420 c1        1 YUN      0.081000
     19 NAS        -2.8400   -0.7570    1.0660 n2        1 YUN     -0.333000
     20 CAW        -3.7530   -0.1150    1.9430 c1        1 YUN      0.310000
     21 OAC        -3.9830    1.0720    1.8160 o         1 YUN     -0.341000
     22 CAO        -4.3890   -0.8920    3.0740 c2        1 YUN     -0.180000
     23 CAN        -5.8380   -0.4810    3.2160 c3        1 YUN     -0.206000
     24 H1          3.5480   -2.0590   -1.7470 ha        1 YUN      0.167000
     25 H2          7.2200   -0.5540   -0.7510 ha        1 YUN      0.149000
     26 H3          6.1810    1.1320    0.5340 ha        1 YUN      0.153000
     27 H4          3.8250    1.2240    0.6790 ha        1 YUN      0.153000
     28 H5          1.6900   -0.9280    0.2950 hn        1 YUN      0.220000
     29 H6         -0.3410   -0.7250    0.5620 ha        1 YUN      0.128000
     30 H7          1.7330    2.3600   -3.7090 ha        1 YUN      0.193000
     31 H8         -2.6790    2.0220   -2.4850 ha        1 YUN      0.153000
     32 H9         -3.8510    0.8920   -0.7740 ha        1 YUN      0.153000
     33 H10        -2.6900   -1.6530    1.1410 hn        1 YUN      0.228000
     34 H11        -3.9130   -0.7030    3.9080 ha        1 YUN      0.103500
     35 H12        -4.3400   -1.8490    2.8800 ha        1 YUN      0.103500
     36 H13        -6.3080   -0.6430    2.3720 hc        1 YUN      0.089000
     37 H14        -5.8870    0.4720    3.4390 hc        1 YUN      0.089000
     38 H15        -6.2580   -1.0050    3.9300 hc        1 YUN      0.089000
@<TRIPOS>BOND
     1    1    7 1   
     2    1   24 1   
     3    2    3 1   
     4    2    4 1   
     5    4   25 1   
     6    5    6 1   
     7    5   26 1   
     8    6   27 1   
     9    7    8 1   
    10    8    9 1   
    11    8   28 1   
    12    9   10 1   
    13    9   12 1   
    14   10   15 1   
    15   11   18 1   
    16   11   29 1   
    17   12   13 1   
    18   13   30 1   
    19   14   15 1   
    20   16   17 1   
    21   16   31 1   
    22   17   32 1   
    23   19   20 1   
    24   19   33 1   
    25   20   21 1   
    26   22   23 1   
    27   22   34 1   
    28   22   35 1   
    29   23   36 1   
    30   23   37 1   
    31   23   38 1   
@<TRIPOS>SUBSTRUCTURE
     1 YUN         1 TEMP              0 ****  ****    0 ROOT
