@<TRIPOS>MOLECULE
YUN
   38    40     1     0     0
SMALL
bcc


@<TRIPOS>ATOM
      1 CAL         2.5270    0.5550    0.4490 ca        1 YUN     -0.089000
      2 CAX         3.7720    1.1670    0.3070 ca        1 YUN     -0.011900
      3 BR          5.2520    0.4750    1.2280 br        1 YUN     -0.087100
      4 CAH         3.9290    2.2910   -0.5070 ca        1 YUN     -0.118000
      5 CAF         2.8240    2.8050   -1.1840 ca        1 YUN     -0.113000
      6 CAI         1.5750    2.2070   -1.0650 ca        1 YUN     -0.156000
      7 CAY         1.4100    1.0680   -0.2440 ca        1 YUN      0.139600
      8 NAT         0.1190    0.5210   -0.0670 nh        1 YUN     -0.728300
      9 C6         -0.1750   -0.8350   -0.2300 ca        1 YUN      0.696200
     10 C5         -1.5760   -1.2680   -0.1260 ca        1 YUN     -0.261600
     11 CAM        -2.6520   -0.3860    0.1090 ca        1 YUN     -0.129000
     12 N1          0.8110   -1.7340   -0.4390 nb        1 YUN     -0.765000
     13 C2          0.4360   -3.0540   -0.5420 ca        1 YUN      0.665900
     14 N3         -0.7890   -3.5710   -0.4800 nb        1 YUN     -0.711000
     15 C4         -1.8160   -2.6670   -0.2710 ca        1 YUN      0.412600
     16 CAK        -3.1660   -3.1320   -0.1930 ca        1 YUN     -0.154300
     17 CAJ        -4.2000   -2.2600    0.0120 ca        1 YUN     -0.145000
     18 CAZ        -3.9620   -0.8550    0.1670 ca        1 YUN      0.053600
     19 NAS        -5.0700   -0.0220    0.3940 n         1 YUN     -0.475100
     20 CAW        -5.1150    1.3620    0.2730 c         1 YUN      0.665100
     21 OAC        -4.1170    2.0410   -0.0260 o         1 YUN     -0.593100
     22 CAO        -6.4710    1.9980    0.5410 c3        1 YUN     -0.151400
     23 CAN        -6.4060    3.4960    0.3920 c3        1 YUN     -0.088100
     24 H1          2.4190   -0.3270    1.1000 ha        1 YUN      0.167000
     25 H2          4.9120    2.7730   -0.6180 ha        1 YUN      0.148000
     26 H3          2.9430    3.6920   -1.8250 ha        1 YUN      0.139000
     27 H4          0.7190    2.6310   -1.6120 ha        1 YUN      0.137000
     28 H5         -0.6270    1.1450   -0.2980 hn        1 YUN      0.442800
     29 H6         -2.4660    0.6910    0.2610 ha        1 YUN      0.169000
     30 H7          1.2780   -3.7590   -0.7080 h5        1 YUN      0.054100
     31 H8         -3.3610   -4.2120   -0.3050 ha        1 YUN      0.157000
     32 H9         -5.2310   -2.6480    0.0610 ha        1 YUN      0.134000
     33 H10        -5.9270   -0.4910    0.5860 hn        1 YUN      0.316500
     34 H11        -7.2220    1.5760   -0.1790 hc        1 YUN      0.064700
     35 H12        -6.8010    1.7320    1.5800 hc        1 YUN      0.064700
     36 H13        -5.6660    3.9290    1.1080 hc        1 YUN      0.049033
     37 H14        -6.0840    3.7730   -0.6420 hc        1 YUN      0.049033
     38 H15        -7.4100    3.9420    0.5920 hc        1 YUN      0.049033
@<TRIPOS>BOND
     1    1    2 ar  
     2    1    7 ar  
     3    1   24 1   
     4    2    3 1   
     5    2    4 ar  
     6    4    5 ar  
     7    4   25 1   
     8    5    6 ar  
     9    5   26 1   
    10    6    7 ar  
    11    6   27 1   
    12    7    8 1   
    13    8    9 1   
    14    8   28 1   
    15    9   10 ar  
    16    9   12 ar  
    17   10   11 ar  
    18   10   15 ar  
    19   11   18 ar  
    20   11   29 1   
    21   12   13 ar  
    22   13   14 ar  
    23   13   30 1   
    24   14   15 ar  
    25   15   16 ar  
    26   16   17 ar  
    27   16   31 1   
    28   17   18 ar  
    29   17   32 1   
    30   18   19 1   
    31   19   20 1   
    32   19   33 1   
    33   20   21 2   
    34   20   22 1   
    35   22   23 1   
    36   22   34 1   
    37   22   35 1   
    38   23   36 1   
    39   23   37 1   
    40   23   38 1   
@<TRIPOS>SUBSTRUCTURE
     1 YUN         1 TEMP              0 ****  ****    0 ROOT
