@<TRIPOS>MOLECULE
YUN
   38    40     1     0     0
SMALL
bcc


@<TRIPOS>ATOM
      1 CAL         0.1720   -0.2960   -0.0210 ca        1 YUN     -0.089000
      2 CAX         1.5620   -0.3850    0.0640 ca        1 YUN     -0.011900
      3 Br          2.5420   -0.9780   -1.4200 br        1 YUN     -0.087100
      4 CAH         2.2290   -0.0430    1.2430 ca        1 YUN     -0.118000
      5 CAF         1.4940    0.3910    2.3440 ca        1 YUN     -0.113000
      6 CAI         0.1090    0.4960    2.2790 ca        1 YUN     -0.156000
      7 CAY        -0.5730    0.1530    1.0890 ca        1 YUN      0.139600
      8 NAT        -1.9850    0.1850    1.0650 nu        1 YUN     -0.728300
      9 C6         -2.7270    0.8350    0.0760 ca        1 YUN      0.696200
     10 C5         -4.1890    0.8920    0.2170 ca        1 YUN     -0.261600
     11 CAM        -4.8910    0.3430    1.3100 ca        1 YUN     -0.129000
     12 N1         -2.1170    1.3660   -1.0060 nb        1 YUN     -0.765000
     13 C2         -2.9280    1.9480   -1.9520 ca        1 YUN      0.665900
     14 N3         -4.2530    2.0760   -1.9380 nb        1 YUN     -0.711000
     15 C4         -4.8990    1.5430   -0.8360 ca        1 YUN      0.412600
     16 CAK        -6.3220    1.6360   -0.7340 ca        1 YUN     -0.154300
     17 CAJ        -6.9860    1.1180    0.3450 ca        1 YUN     -0.145000
     18 CAZ        -6.2770    0.4560    1.4000 ca        1 YUN      0.053600
     19 NAS        -7.0250   -0.0680    2.4670 ns        1 YUN     -0.475100
     20 CAW        -6.5460   -0.4670    3.7100 c         1 YUN      0.665100
     21 OAC        -5.3380   -0.4350    4.0030 o         1 YUN     -0.593100
     22 CAO        -7.6000   -0.9570    4.6910 c3        1 YUN     -0.151400
     23 CAN        -6.9740   -1.3690    5.9980 c3        1 YUN     -0.088100
     24 H1         -0.3400   -0.5760   -0.9570 ha        1 YUN      0.167000
     25 H2          3.3250   -0.1140    1.3090 ha        1 YUN      0.148000
     26 H3          2.0160    0.6590    3.2760 ha        1 YUN      0.139000
     27 H4         -0.4480    0.8440    3.1630 ha        1 YUN      0.137000
     28 H5         -2.4130    0.1660    1.9680 hn        1 YUN      0.442800
     29 H6         -4.3490   -0.1950    2.1060 ha        1 YUN      0.169000
     30 H7         -2.3860    2.3670   -2.8270 h5        1 YUN      0.054100
     31 H8         -6.8800    2.1380   -1.5420 ha        1 YUN      0.157000
     32 H9         -8.0830    1.2110    0.3980 ha        1 YUN      0.134000
     33 H10        -8.0120   -0.0770    2.3350 hn        1 YUN      0.316500
     34 H11        -8.1450   -1.8280    4.2380 hc        1 YUN      0.064700
     35 H12        -8.3470   -0.1380    4.8670 hc        1 YUN      0.064700
     36 H13        -6.4350   -0.5070    6.4620 hc        1 YUN      0.049033
     37 H14        -6.2340   -2.1900    5.8370 hc        1 YUN      0.049033
     38 H15        -7.7650   -1.7240    6.7020 hc        1 YUN      0.049033
@<TRIPOS>BOND
     1    1    2 ar  
     2    1    7 ar  
     3    1   24 1   
     4    2    3 1   
     5    2    4 ar  
     6    4    5 ar  
     7    4   25 1   
     8    5    6 ar  
     9    5   26 1   
    10    6    7 ar  
    11    6   27 1   
    12    7    8 1   
    13    8    9 1   
    14    8   28 1   
    15    9   10 ar  
    16    9   12 ar  
    17   10   11 ar  
    18   10   15 ar  
    19   11   18 ar  
    20   11   29 1   
    21   12   13 ar  
    22   13   14 ar  
    23   13   30 1   
    24   14   15 ar  
    25   15   16 ar  
    26   16   17 ar  
    27   16   31 1   
    28   17   18 ar  
    29   17   32 1   
    30   18   19 1   
    31   19   20 1   
    32   19   33 1   
    33   20   21 2   
    34   20   22 1   
    35   22   23 1   
    36   22   34 1   
    37   22   35 1   
    38   23   36 1   
    39   23   37 1   
    40   23   38 1   
@<TRIPOS>SUBSTRUCTURE
     1 YUN         1 TEMP              0 ****  ****    0 ROOT
