@<TRIPOS>MOLECULE
YUN
   40    42     1     0     0
SMALL
bcc


@<TRIPOS>ATOM
      1 CAL         0.1070    0.2270    0.2110 ca        1 YUN     -0.066000
      2 CAX         1.0710    0.6170    1.1470 ca        1 YUN     -0.016900
      3 BR          2.6060    1.5060    0.5710 br        1 YUN      0.028900
      4 CAH         0.8820    0.3340    2.5050 ca        1 YUN     -0.037000
      5 CAF        -0.2700   -0.3300    2.9320 ca        1 YUN     -0.099000
      6 CAI        -1.2460   -0.7220    2.0210 ca        1 YUN     -0.108000
      7 CAY        -1.0440   -0.4450    0.6560 ca        1 YUN     -0.071400
      8 NAT        -2.0350   -0.9020   -0.3320 n4        1 YUN     -0.625100
      9 C6         -2.8950    0.2080   -0.8250 ca        1 YUN      0.558200
     10 C5         -4.2040    0.4470   -0.2450 ca        1 YUN     -0.255600
     11 CAM        -4.7900   -0.3020    0.8000 ca        1 YUN     -0.071000
     12 N1         -2.3920    0.9500   -1.8100 nb        1 YUN     -0.648000
     13 C2         -3.1830    1.9900   -2.2800 ca        1 YUN      0.705900
     14 N3         -4.3960    2.3160   -1.8410 nb        1 YUN     -0.608000
     15 C4         -4.9250    1.5500   -0.8210 ca        1 YUN      0.458600
     16 CAK        -6.2300    1.8600   -0.3160 ca        1 YUN     -0.100300
     17 CAJ        -6.7820    1.1220    0.6980 ca        1 YUN     -0.105000
     18 CAZ        -6.0560    0.0310    1.2630 ca        1 YUN     -0.013400
     19 NAS        -6.6820   -0.7430    2.3400 n4        1 YUN     -0.573200
     20 CAW        -5.8980   -0.6700    3.6670 c         1 YUN      0.575100
     21 OAC        -4.7640   -1.1120    3.6090 o         1 YUN     -0.425100
     22 CAO        -6.6600   -0.0880    4.8190 c3        1 YUN     -0.144400
     23 CAN        -5.8300   -0.1260    6.0800 c3        1 YUN     -0.110100
     24 H1          0.2620    0.4480   -0.8610 ha        1 YUN      0.185000
     25 H2          1.6450    0.6320    3.2490 ha        1 YUN      0.194000
     26 H3         -0.4050   -0.5540    4.0050 ha        1 YUN      0.179000
     27 H4         -2.1440   -1.2490    2.3810 ha        1 YUN      0.144000
     28 H5         -2.6290   -1.6280    0.0820 hn        1 YUN      0.476300
     29 H6         -4.2390   -1.1360    1.2680 ha        1 YUN      0.155000
     30 H7         -2.7340    2.5940   -3.1080 h5        1 YUN      0.124100
     31 H8         -6.7880    2.7080   -0.7630 ha        1 YUN      0.216000
     32 H9         -7.7920    1.3800    1.0650 ha        1 YUN      0.181000
     33 H10        -6.7370   -1.7270    2.0430 hn        1 YUN      0.471800
     34 H11        -6.9380    0.9760    4.5720 hc        1 YUN      0.113200
     35 H12        -7.6110   -0.6730    4.9700 hc        1 YUN      0.113200
     36 H13        -5.5580   -1.1750    6.3520 hc        1 YUN      0.082367
     37 H14        -4.8910    0.4680    5.9620 hc        1 YUN      0.082367
     38 H15        -6.4280    0.3150    6.9190 hc        1 YUN      0.082367
     39 HAT2       -1.5180   -1.3130   -1.1320 hn        1 YUN      0.476300
     40 HAS2       -7.6380   -0.3970    2.4920 hn        1 YUN      0.471800
@<TRIPOS>BOND
     1    1    2 ar  
     2    1    7 ar  
     3    1   24 1   
     4    2    3 1   
     5    2    4 ar  
     6    4    5 ar  
     7    4   25 1   
     8    5    6 ar  
     9    5   26 1   
    10    6    7 ar  
    11    6   27 1   
    12    7    8 1   
    13    8    9 1   
    14    8   28 1   
    15    8   39 1   
    16    9   10 ar  
    17    9   12 ar  
    18   10   11 ar  
    19   10   15 ar  
    20   11   18 ar  
    21   11   29 1   
    22   12   13 ar  
    23   13   14 ar  
    24   13   30 1   
    25   14   15 ar  
    26   15   16 ar  
    27   16   17 ar  
    28   16   31 1   
    29   17   18 ar  
    30   17   32 1   
    31   18   19 1   
    32   19   20 1   
    33   19   33 1   
    34   19   40 1   
    35   20   21 2   
    36   20   22 1   
    37   22   23 1   
    38   22   34 1   
    39   22   35 1   
    40   23   36 1   
    41   23   37 1   
    42   23   38 1   
@<TRIPOS>SUBSTRUCTURE
     1 YUN         1 TEMP              0 ****  ****    0 ROOT
