@<TRIPOS>MOLECULE
YVN
   69    70     1     0     0
SMALL
bcc


@<TRIPOS>ATOM
      1 OBH         5.0550    2.0990   -2.4020 os        1 YVN     -0.309400
      2 PBF         4.6970    2.6330   -0.8990 p5        1 YVN      1.564500
      3 OBI         5.2780    2.4270    0.3940 o         1 YVN     -0.629300
      4 OBG         5.1420    3.4440   -2.2460 os        1 YVN     -0.309400
      5 OBE         3.0850    2.7620   -0.9390 os        1 YVN     -0.473500
      6 CBD         2.3180    2.6950   -2.0650 ca        1 YVN      0.231100
      7 CBC         2.0560    3.8580   -2.8210 ca        1 YVN     -0.127500
      8 CBB         0.8570    1.4200   -3.5090 ca        1 YVN     -0.106000
      9 CBJ         1.6820    1.4830   -2.3900 ca        1 YVN     -0.127500
     10 CBK         1.2270    3.7750   -3.9300 ca        1 YVN     -0.106000
     11 CBA         0.6330    2.5570   -4.3010 ca        1 YVN     -0.187300
     12 CAZ        -0.1590    2.4120   -5.5260 cx        1 YVN      0.035600
     13 CAF        -1.1500    3.4540   -5.9930 cx        1 YVN     -0.211700
     14 CAC        -1.3730    4.7260   -5.2580 c         1 YVN      0.568100
     15 OAD        -1.1780    5.8590   -5.6650 o         1 YVN     -0.372100
     16 NAB        -1.9190    4.5540   -3.8610 ny        1 YVN     -0.664800
     17 CAA        -2.3740    5.8250   -3.2440 c3        1 YVN      0.078100
     18 CAG         0.1550    3.2730   -6.7430 cx        1 YVN     -0.210700
     19 CAH         0.0840    2.6570   -8.0960 c         1 YVN      0.574100
     20 OAI        -0.9150    2.1950   -8.6280 o         1 YVN     -0.399100
     21 NAJ         1.3880    2.6040   -8.8400 ny        1 YVN     -0.665800
     22 CAK         1.3010    2.1710  -10.2830 c3        1 YVN      0.036500
     23 CAW         2.1080    3.1110  -11.2020 c3        1 YVN     -0.084700
     24 CAX         3.5660    3.1890  -10.8050 c3        1 YVN     -0.122600
     25 CAY         1.4810    4.4870  -11.2670 c3        1 YVN     -0.122600
     26 CAL         1.8230    0.7090  -10.4140 c         1 YVN      0.651100
     27 OAM         2.3850    0.1870   -9.4230 o         1 YVN     -0.627100
     28 NAN         1.6290    0.0600  -11.5840 nt        1 YVN     -0.606000
     29 CAO         3.1660   -3.0930  -15.4690 c2        1 YVN     -0.545200
     30 CAT         3.1720   -3.1400  -14.0920 c2        1 YVN      0.574300
     31 OAV         2.6500   -2.4090  -13.2260 o         1 YVN     -0.672300
     32 NAU         3.9330   -4.3120  -13.4290 nz        1 YVN     -0.764400
     33 CAP         3.9160   -3.9330  -16.3900 c3        1 YVN     -0.020200
     34 CAQ         3.1800   -5.2540  -16.5720 c         1 YVN      0.537100
     35 OAS         3.0640   -6.1540  -15.7530 o         1 YVN     -0.460100
     36 NAR         2.4460   -5.4720  -17.8760 nz        1 YVN     -0.758400
     37 HBC         2.5340    4.8140   -2.5510 ha        1 YVN      0.182000
     38 HBB         0.3870    0.4570   -3.7720 ha        1 YVN      0.142000
     39 HBJ         1.8430    0.5870   -1.7670 ha        1 YVN      0.182000
     40 HBK         1.0760    4.6790   -4.5420 ha        1 YVN      0.142000
     41 HAZ        -0.4590    1.3540   -5.7220 hc        1 YVN      0.136700
     42 HAF        -2.0900    3.1040   -6.4870 hc        1 YVN      0.169700
     43 HNAB       -2.7020    3.8890   -3.8900 hn        1 YVN      0.475300
     44 HAA1       -3.2080    6.2630   -3.8580 hx        1 YVN      0.124700
     45 HAA2       -2.7380    5.6120   -2.2010 hx        1 YVN      0.124700
     46 HAA3       -1.5220    6.5570   -3.2110 hx        1 YVN      0.124700
     47 HAG         0.9310    4.0630   -6.6360 hc        1 YVN      0.143700
     48 HNAJ        1.8320    3.5320   -8.8040 hn        1 YVN      0.488300
     49 HAK         0.2100    2.2020  -10.5900 hx        1 YVN      0.137700
     50 HAW         2.0430    2.6570  -12.2350 hc        1 YVN      0.101700
     51 HAX1        3.7190    3.8430   -9.9120 hc        1 YVN      0.063033
     52 HAX2        3.9770    2.1730  -10.5860 hc        1 YVN      0.063033
     53 HAX3        4.1580    3.6330  -11.6460 hc        1 YVN      0.063033
     54 HAY1        1.9830    5.0830  -12.0720 hc        1 YVN      0.063033
     55 HAY2        1.6050    5.0500  -10.3110 hc        1 YVN      0.063033
     56 HAY3        0.3930    4.4230  -11.5130 hc        1 YVN      0.063033
     57 HNAN        1.9910   -0.8650  -11.7040 hn        1 YVN      0.353500
     58 HAO         2.5850   -2.2670  -15.9050 ha        1 YVN      0.178000
     59 HAU1        3.7690   -4.2810  -12.4190 hn        1 YVN      0.444467
     60 HAU2        4.9320   -4.2250  -13.6060 hn        1 YVN      0.444467
     61 HAP1        4.0470   -3.4100  -17.3760 hc        1 YVN      0.090700
     62 HAP2        4.9430   -4.2130  -16.0230 hc        1 YVN      0.090700
     63 HAR1        1.9370   -6.3660  -17.8650 hn        1 YVN      0.473467
     64 HAR2        3.1160   -5.4810  -18.6530 hn        1 YVN      0.473467
     65 HAB2       -1.1630    4.1370   -3.2890 hn        1 YVN      0.475300
     66 HAJ2        2.0100    1.9240   -8.3450 hn        1 YVN      0.488300
     67 HAN2        1.1920    0.4970  -12.3580 hn        1 YVN      0.353500
     68 HAU3        3.6040   -5.2050  -13.7980 hn        1 YVN      0.444467
     69 HAR3        1.7790   -4.7080  -18.0260 hn        1 YVN      0.473467
@<TRIPOS>BOND
     1    1    2 1   
     2    1    4 1   
     3    2    3 2   
     4    2    4 1   
     5    2    5 1   
     6    5    6 1   
     7    6    7 ar  
     8    6    9 ar  
     9    7   10 ar  
    10    7   37 1   
    11    8    9 ar  
    12    8   11 ar  
    13    8   38 1   
    14    9   39 1   
    15   10   11 ar  
    16   10   40 1   
    17   11   12 1   
    18   12   13 1   
    19   12   18 1   
    20   12   41 1   
    21   13   14 1   
    22   13   18 1   
    23   13   42 1   
    24   14   15 2   
    25   14   16 1   
    26   16   17 1   
    27   16   43 1   
    28   16   65 1   
    29   17   44 1   
    30   17   45 1   
    31   17   46 1   
    32   18   19 1   
    33   18   47 1   
    34   19   20 2   
    35   19   21 1   
    36   21   22 1   
    37   21   48 1   
    38   21   66 1   
    39   22   23 1   
    40   22   26 1   
    41   22   49 1   
    42   23   24 1   
    43   23   25 1   
    44   23   50 1   
    45   24   51 1   
    46   24   52 1   
    47   24   53 1   
    48   25   54 1   
    49   25   55 1   
    50   25   56 1   
    51   26   27 2   
    52   26   28 1   
    53   28   57 1   
    54   28   67 1   
    55   29   30 2   
    56   29   33 1   
    57   29   58 1   
    58   30   31 1   
    59   30   32 1   
    60   32   59 1   
    61   32   60 1   
    62   32   68 1   
    63   33   34 1   
    64   33   61 1   
    65   33   62 1   
    66   34   35 2   
    67   34   36 1   
    68   36   63 1   
    69   36   64 1   
    70   36   69 1   
@<TRIPOS>SUBSTRUCTURE
     1 YVN         1 TEMP              0 ****  ****    0 ROOT
