@<TRIPOS>MOLECULE
YVQ
   35    39     1     0     0
SMALL
bcc


@<TRIPOS>ATOM
      1 CAV         3.1280    0.2000   -0.0340 ca        1 YVQ     -0.075800
      2 CAF         3.9920   -0.6850    0.6130 ca        1 YVQ     -0.081000
      3 CAB         5.2570   -0.2450    0.9710 ca        1 YVQ     -0.153000
      4 CAA         5.6800    1.0680    0.6970 ca        1 YVQ     -0.110000
      5 CAE         4.8540    1.9800    0.0600 ca        1 YVQ     -0.143000
      6 CAU         3.5690    1.5490   -0.3080 ca        1 YVQ     -0.047200
      7 NAO         2.5240    2.2300   -0.9400 na        1 YVQ     -0.185400
      8 CAI         1.4510    1.3540   -1.0880 cc        1 YVQ     -0.097100
      9 CAR         1.7720    0.1040   -0.5420 cd        1 YVQ     -0.078200
     10 CAS         0.9500   -1.0620   -0.5100 cd        1 YVQ     -0.075100
     11 CAD         1.3280   -2.4290   -0.6680 cc        1 YVQ      0.014600
     12 NAM         0.2420   -3.2720   -0.5850 nc        1 YVQ     -0.255600
     13 CAT        -0.8360   -2.4630   -0.3740 cd        1 YVQ     -0.175600
     14 CAG        -2.2460   -2.7410   -0.2060 cd        1 YVQ      0.468200
     15 NAL        -3.1450   -1.8060   -0.0010 nc        1 YVQ     -0.662000
     16 NAW        -0.4340   -1.0840   -0.3180 na        1 YVQ      0.035700
     17 CAJ        -1.3800   -0.1110   -0.0910 cd        1 YVQ     -0.185600
     18 CAQ        -2.7190   -0.4780    0.0650 cc        1 YVQ      0.461800
     19 CAP        -3.7110    0.5410    0.3020 cc        1 YVQ     -0.319800
     20 CAC        -5.1080    0.3740    0.3900 cd        1 YVQ     -0.089300
     21 CAH        -3.5020    1.9640    0.5050 cc        1 YVQ      0.307200
     22 NAN        -4.6920    2.5840    0.6960 nd        1 YVQ     -0.514800
     23 NAK        -5.6360    1.6400    0.6260 na        1 YVQ     -0.021600
     24 HAF         3.6630   -1.7120    0.8320 ha        1 YVQ      0.141000
     25 HAB         5.9490   -0.9320    1.4820 ha        1 YVQ      0.133000
     26 HAA         6.6930    1.3750    0.9980 ha        1 YVQ      0.132000
     27 HAE         5.1890    3.0040   -0.1490 ha        1 YVQ      0.134000
     28 HAI         0.5320    1.6760   -1.5820 h4        1 YVQ      0.169000
     29 HAD         2.3370   -2.8050   -0.8420 h4        1 YVQ      0.187000
     30 HAG        -2.5830   -3.7930   -0.2520 h4        1 YVQ      0.050100
     31 HAJ        -1.0280    0.9310   -0.0310 h4        1 YVQ      0.171000
     32 HAC        -5.7220   -0.5240    0.3040 h4        1 YVQ      0.195000
     33 HAH        -2.5580    2.5070    0.5200 h4        1 YVQ      0.040100
     34 HAK        -6.5920    1.8800    0.7450 hn        1 YVQ      0.324700
     35 H12         2.5660    3.1530   -1.2800 hn        1 YVQ      0.302700
@<TRIPOS>BOND
     1    1    2 ar  
     2    1    6 ar  
     3    1    9 1   
     4    2    3 ar  
     5    2   24 1   
     6    3    4 ar  
     7    3   25 1   
     8    4    5 ar  
     9    4   26 1   
    10    5    6 ar  
    11    5   27 1   
    12    6    7 1   
    13    7    8 1   
    14    7   35 1   
    15    8    9 2   
    16    8   28 1   
    17    9   10 1   
    18   10   11 2   
    19   10   16 1   
    20   11   12 1   
    21   11   29 1   
    22   12   13 2   
    23   13   14 1   
    24   13   16 1   
    25   14   15 2   
    26   14   30 1   
    27   15   18 1   
    28   16   17 1   
    29   17   18 2   
    30   17   31 1   
    31   18   19 1   
    32   19   20 2   
    33   19   21 1   
    34   20   23 1   
    35   20   32 1   
    36   21   22 2   
    37   21   33 1   
    38   22   23 1   
    39   23   34 1   
@<TRIPOS>SUBSTRUCTURE
     1 YVQ         1 TEMP              0 ****  ****    0 ROOT
