@<TRIPOS>MOLECULE
YVQ
   35    39     1     0     0
SMALL
bcc


@<TRIPOS>ATOM
      1 CAV        -0.0550   -0.0360   -0.0610 ca        1 YVQ     -0.075800
      2 CAF         1.1860    0.6020   -0.0820 ca        1 YVQ     -0.081000
      3 CAB         1.7780    0.9550    1.1220 ca        1 YVQ     -0.153000
      4 CAA         1.1520    0.6830    2.3530 ca        1 YVQ     -0.110000
      5 CAE        -0.0820    0.0550    2.4180 ca        1 YVQ     -0.143000
      6 CAU        -0.6930   -0.3080    1.2070 ca        1 YVQ     -0.047200
      7 NAO        -1.9190   -0.9310    0.9540 na        1 YVQ     -0.185400
      8 CAI        -2.0650   -1.0760   -0.4240 cc        1 YVQ     -0.097100
      9 CAR        -0.9540   -0.5370   -1.0840 cd        1 YVQ     -0.078200
     10 CAS        -0.7170   -0.5040   -2.4910 cd        1 YVQ     -0.075100
     11 CAD         0.5130   -0.6690   -3.1970 cc        1 YVQ      0.014600
     12 NAM         0.3360   -0.5830   -4.5600 nc        1 YVQ     -0.255600
     13 CAT        -0.9990   -0.3630   -4.7440 cd        1 YVQ     -0.175600
     14 CAG        -1.8030   -0.1890   -5.9330 cd        1 YVQ      0.468200
     15 NAL        -3.0980    0.0250   -5.9020 nc        1 YVQ     -0.662000
     16 NAW        -1.6840   -0.3050   -3.4810 na        1 YVQ      0.035700
     17 CAJ        -3.0390   -0.0690   -3.4550 cd        1 YVQ     -0.185600
     18 CAQ        -3.7300    0.0930   -4.6580 cc        1 YVQ      0.461800
     19 CAP        -5.1510    0.3390   -4.6320 cc        1 YVQ     -0.319800
     20 CAC        -6.0250    0.4340   -5.7350 cd        1 YVQ     -0.089300
     21 CAH        -6.0020    0.5470   -3.4740 cc        1 YVQ      0.307200
     22 NAN        -7.2830    0.7470   -3.8710 nd        1 YVQ     -0.514800
     23 NAK        -7.2890    0.6780   -5.2050 na        1 YVQ     -0.021600
     24 HAF         1.6770    0.8200   -1.0420 ha        1 YVQ      0.141000
     25 HAB         2.7560    1.4590    1.1220 ha        1 YVQ      0.133000
     26 HAA         1.6570    0.9790    3.2850 ha        1 YVQ      0.132000
     27 HAE        -0.5650   -0.1520    3.3810 ha        1 YVQ      0.134000
     28 HAI        -2.9480   -1.5640   -0.8420 h4        1 YVQ      0.169000
     29 HAD         1.4930   -0.8510   -2.7530 h4        1 YVQ      0.187000
     30 HAG        -1.3030   -0.2360   -6.9180 h4        1 YVQ      0.050100
     31 HAJ        -3.5220   -0.0070   -2.4670 h4        1 YVQ      0.171000
     32 HAC        -5.8300    0.3480   -6.8040 h4        1 YVQ      0.195000
     33 HAH        -5.7140    0.5600   -2.4230 h4        1 YVQ      0.040100
     34 HAK        -8.1360    0.8020   -5.7080 hn        1 YVQ      0.324700
     35 H12        -2.5410   -1.2680    1.6390 hn        1 YVQ      0.302700
@<TRIPOS>BOND
     1    1    2 ar  
     2    1    6 ar  
     3    1    9 1   
     4    2    3 ar  
     5    2   24 1   
     6    3    4 ar  
     7    3   25 1   
     8    4    5 ar  
     9    4   26 1   
    10    5    6 ar  
    11    5   27 1   
    12    6    7 1   
    13    7    8 1   
    14    7   35 1   
    15    8    9 2   
    16    8   28 1   
    17    9   10 1   
    18   10   11 2   
    19   10   16 1   
    20   11   12 1   
    21   11   29 1   
    22   12   13 2   
    23   13   14 1   
    24   13   16 1   
    25   14   15 2   
    26   14   30 1   
    27   15   18 1   
    28   16   17 1   
    29   17   18 2   
    30   17   31 1   
    31   18   19 1   
    32   19   20 2   
    33   19   21 1   
    34   20   23 1   
    35   20   32 1   
    36   21   22 2   
    37   21   33 1   
    38   22   23 1   
    39   23   34 1   
@<TRIPOS>SUBSTRUCTURE
     1 YVQ         1 TEMP              0 ****  ****    0 ROOT
