@<TRIPOS>MOLECULE
YWN
   46    46     1     0     0
SMALL
bcc


@<TRIPOS>ATOM
      1 C1         -0.3390   -0.0820    0.2820 c3        1 YWN      0.137800
      2 N2          1.1010    0.0260    0.4930 n3        1 YWN     -0.775600
      3 C3          1.5260   -0.3530    1.8540 c3        1 YWN      0.140500
      4 C4          2.5630   -1.5160    1.7270 c3        1 YWN      0.130100
      5 C5          3.1240   -1.3420    0.2990 c3        1 YWN      0.099100
      6 C6          1.9600   -0.6660   -0.4850 c3        1 YWN      0.160500
      7 C7         -0.8540    0.8420   -0.8240 c3        1 YWN     -0.081400
      8 C8         -2.3300    0.5900   -1.0570 c3        1 YWN     -0.085400
      9 C9         -2.8830    1.5220   -2.1150 c3        1 YWN     -0.077400
     10 C10        -4.3490    1.2690   -2.3550 c3        1 YWN     -0.097100
     11 C11         2.2000    0.8150    2.5970 c3        1 YWN     -0.163400
     12 C12         1.4250    2.0920    2.5010 c         1 YWN      0.559100
     13 O13         0.7450    2.6380    3.3540 o         1 YWN     -0.414100
     14 N14         1.5110    2.7670    1.1460 ny        1 YWN     -0.688800
     15 C15         0.6230    3.9350    1.0010 c3        1 YWN      0.082100
     16 C18         1.3080   -1.7200   -1.3960 c3        1 YWN      0.111400
     17 O19         0.8680   -2.7920   -0.5800 oh        1 YWN     -0.612800
     18 O20         4.2170   -0.4390    0.3570 oh        1 YWN     -0.625800
     19 O21         3.5270   -1.5070    2.7430 oh        1 YWN     -0.571800
     20 H11C       -0.6510   -1.1430    0.0540 h1        1 YWN      0.065700
     21 H12C       -0.8610    0.2090    1.2410 h1        1 YWN      0.065700
     22 H71C       -0.7030    1.9150   -0.5320 hc        1 YWN      0.030700
     23 H72C       -0.2890    0.6770   -1.7780 hc        1 YWN      0.030700
     24 H3          0.6550   -0.7070    2.4770 h1        1 YWN      0.091700
     25 H6          2.3780    0.1370   -1.1590 h1        1 YWN      0.075700
     26 H4          2.0280   -2.5030    1.8200 h1        1 YWN      0.121700
     27 H111        2.2880    0.5310    3.6830 hc        1 YWN      0.120200
     28 H112        3.2400    0.9680    2.1920 hc        1 YWN      0.120200
     29 H5          3.4100   -2.3240   -0.1530 h1        1 YWN      0.094700
     30 H21         4.2610   -0.9360    2.4690 ho        1 YWN      0.418000
     31 H20         4.9760   -0.8680   -0.0570 ho        1 YWN      0.433000
     32 H181        2.0800   -2.0800   -2.1290 h1        1 YWN      0.046700
     33 H182        0.4430   -1.2870   -1.9650 h1        1 YWN      0.046700
     34 H81C       -2.8950    0.7320   -0.0980 hc        1 YWN      0.052700
     35 H82C       -2.4840   -0.4740   -1.3780 hc        1 YWN      0.052700
     36 H91C       -2.3150    1.3810   -3.0730 hc        1 YWN      0.038200
     37 H92C       -2.7320    2.5870   -1.7940 hc        1 YWN      0.038200
     38 H101       -4.7380    1.9660   -3.1360 hc        1 YWN      0.043367
     39 H102       -4.5180    0.2210   -2.7020 hc        1 YWN      0.043367
     40 H103       -4.9360    1.4270   -1.4180 hc        1 YWN      0.043367
     41 H14         2.4840    3.0470    0.9900 hn        1 YWN      0.476300
     42 H151        0.8720    4.7020    1.7840 hx        1 YWN      0.106700
     43 H152       -0.4440    3.6120    1.1400 hx        1 YWN      0.106700
     44 H153        0.7560    4.3750   -0.0230 hx        1 YWN      0.106700
     45 H19         0.5230   -3.4750   -1.1700 ho        1 YWN      0.426000
     46 H142        1.2700    2.0300    0.4400 hn        1 YWN      0.476300
@<TRIPOS>BOND
     1    1    2 1   
     2    1    7 1   
     3    1   20 1   
     4    1   21 1   
     5    2    3 1   
     6    2    6 1   
     7    3    4 1   
     8    3   11 1   
     9    3   24 1   
    10    4    5 1   
    11    4   19 1   
    12    4   26 1   
    13    5    6 1   
    14    5   18 1   
    15    5   29 1   
    16    6   16 1   
    17    6   25 1   
    18    7    8 1   
    19    7   22 1   
    20    7   23 1   
    21    8    9 1   
    22    8   34 1   
    23    8   35 1   
    24    9   10 1   
    25    9   36 1   
    26    9   37 1   
    27   10   38 1   
    28   10   39 1   
    29   10   40 1   
    30   11   12 1   
    31   11   27 1   
    32   11   28 1   
    33   12   13 2   
    34   12   14 1   
    35   14   15 1   
    36   14   41 1   
    37   14   46 1   
    38   15   42 1   
    39   15   43 1   
    40   15   44 1   
    41   16   17 1   
    42   16   32 1   
    43   16   33 1   
    44   17   45 1   
    45   18   31 1   
    46   19   30 1   
@<TRIPOS>SUBSTRUCTURE
     1 YWN         1 TEMP              0 ****  ****    0 ROOT
