@<TRIPOS>MOLECULE
YWN
   46    46     1     0     0
SMALL
bcc


@<TRIPOS>ATOM
      1 C1         -0.3320   -0.0940    0.2810 c3        1 YWN      0.137800
      2 N2          1.1080    0.0320    0.4870 n3        1 YWN     -0.775600
      3 C3          1.5430   -0.3510    1.8430 c3        1 YWN      0.140500
      4 C4          2.5950   -1.5000    1.7040 c3        1 YWN      0.130100
      5 C5          3.1480   -1.3080    0.2750 c3        1 YWN      0.099100
      6 C6          1.9720   -0.6420   -0.5000 c3        1 YWN      0.160500
      7 C7         -0.8640    0.8300   -0.8170 c3        1 YWN     -0.081400
      8 C8         -2.3370    0.5620   -1.0450 c3        1 YWN     -0.085400
      9 C9         -2.9060    1.4930   -2.0950 c3        1 YWN     -0.077400
     10 C10        -4.3700    1.2240   -2.3290 c3        1 YWN     -0.097100
     11 C11         2.2050    0.8210    2.5910 c3        1 YWN     -0.163400
     12 C12         1.4130    2.0870    2.5070 c         1 YWN      0.559100
     13 O13         0.7290    2.6180    3.3670 o         1 YWN     -0.414100
     14 N14         1.4840    2.7730    1.1570 n4        1 YWN     -0.688800
     15 C15         0.5810    3.9300    1.0230 c3        1 YWN      0.082100
     16 C18         1.3300   -1.6990   -1.4150 c3        1 YWN      0.111400
     17 O19         0.9080   -2.7820   -0.6050 oh        1 YWN     -0.612800
     18 O20         4.2290   -0.3910    0.3350 oh        1 YWN     -0.625800
     19 O21         3.5630   -1.4850    2.7150 oh        1 YWN     -0.571800
     20 H11C       -0.6300   -1.1580    0.0460 h1        1 YWN      0.065700
     21 H12C       -0.8530    0.1830    1.2430 h1        1 YWN      0.065700
     22 H71C       -0.7240    1.9040   -0.5180 hc        1 YWN      0.030700
     23 H72C       -0.3000    0.6790   -1.7750 hc        1 YWN      0.030700
     24 H3          0.6800   -0.7210    2.4670 h1        1 YWN      0.091700
     25 H6          2.3770    0.1710   -1.1700 h1        1 YWN      0.075700
     26 H4          2.0730   -2.4950    1.7910 h1        1 YWN      0.122700
     27 H111        2.3010    0.5300    3.6760 hc        1 YWN      0.120200
     28 H112        3.2410    0.9900    2.1840 hc        1 YWN      0.120200
     29 H5          3.4450   -2.2830   -0.1850 h1        1 YWN      0.094700
     30 H21         4.2880   -0.9030    2.4430 ho        1 YWN      0.418000
     31 H20         4.9920   -0.8070   -0.0850 ho        1 YWN      0.433000
     32 H181        0.4570   -1.2730   -1.9780 h1        1 YWN      0.046700
     33 H182        2.1040   -2.0430   -2.1540 h1        1 YWN      0.046700
     34 H81C       -2.4790   -0.5020   -1.3720 hc        1 YWN      0.052700
     35 H82C       -2.9000    0.6900   -0.0830 hc        1 YWN      0.052700
     36 H91C       -2.7670    2.5570   -1.7680 hc        1 YWN      0.038200
     37 H92C       -2.3410    1.3650   -3.0560 hc        1 YWN      0.038200
     38 H101       -4.5280    0.1760   -2.6820 hc        1 YWN      0.043367
     39 H102       -4.9550    1.3690   -1.3890 hc        1 YWN      0.043367
     40 H103       -4.7710    1.9210   -3.1050 hc        1 YWN      0.043367
     41 H14         2.4530    3.0670    0.9990 hn        1 YWN      0.476300
     42 H151       -0.4810    3.5910    1.1650 hx        1 YWN      0.106700
     43 H152        0.8230    4.6950    1.8100 hx        1 YWN      0.106700
     44 H153        0.7030    4.3790    0.0020 hx        1 YWN      0.106700
     45 H19         0.5700   -3.4650   -1.1990 ho        1 YWN      0.426000
     46 H142        1.2500    2.0370    0.4470 hn        1 YWN      0.476300
@<TRIPOS>BOND
     1    1    2 1   
     2    1    7 1   
     3    1   20 1   
     4    1   21 1   
     5    2    3 1   
     6    2    6 1   
     7    3    4 1   
     8    3   11 1   
     9    3   24 1   
    10    4    5 1   
    11    4   19 1   
    12    4   26 1   
    13    5    6 1   
    14    5   18 1   
    15    5   29 1   
    16    6   16 1   
    17    6   25 1   
    18    7    8 1   
    19    7   22 1   
    20    7   23 1   
    21    8    9 1   
    22    8   34 1   
    23    8   35 1   
    24    9   10 1   
    25    9   36 1   
    26    9   37 1   
    27   10   38 1   
    28   10   39 1   
    29   10   40 1   
    30   11   12 1   
    31   11   27 1   
    32   11   28 1   
    33   12   13 2   
    34   12   14 1   
    35   14   15 1   
    36   14   41 1   
    37   14   46 1   
    38   15   42 1   
    39   15   43 1   
    40   15   44 1   
    41   16   17 1   
    42   16   32 1   
    43   16   33 1   
    44   17   45 1   
    45   18   31 1   
    46   19   30 1   
@<TRIPOS>SUBSTRUCTURE
     1 YWN         1 TEMP              0 ****  ****    0 ROOT
