@<TRIPOS>MOLECULE
YWO
   40    41     1     0     0
SMALL
bcc


@<TRIPOS>ATOM
      1 C1          0.0810    0.2270   -0.1380 ca        1 YWO     -0.037000
      2 N1          2.2260   -0.4640   -1.1960 no        1 YWO      0.325200
      3 O1          3.2890   -0.6690    1.4020 os        1 YWO     -0.210200
      4 C2          1.4260   -0.1610    0.0130 ca        1 YWO     -0.219200
      5 N2          7.5920    1.7270    5.7650 n3        1 YWO     -0.888800
      6 O2          1.7240   -0.2750   -2.2750 o         1 YWO     -0.205500
      7 C3          1.9760   -0.2560    1.3150 ca        1 YWO      0.195100
      8 N3          9.0760   -1.3720    7.1700 n         1 YWO     -0.670000
      9 O3          3.3410   -0.8890   -1.0810 o         1 YWO     -0.205500
     10 C4          1.1770    0.0300    2.4320 ca        1 YWO     -0.214000
     11 O4          8.7630    0.6750    8.1050 o         1 YWO     -0.620100
     12 C5         -0.1530    0.4110    2.2680 ca        1 YWO      0.003700
     13 C6         -0.6940    0.5100    0.9760 ca        1 YWO     -0.178000
     14 C7          3.9140   -0.5490    2.6470 ca        1 YWO      0.077100
     15 C8          4.4870   -1.7130    3.1750 ca        1 YWO     -0.135500
     16 C9          5.2490   -1.6170    4.3370 ca        1 YWO     -0.106000
     17 C10         5.4330   -0.3830    4.9730 ca        1 YWO     -0.082300
     18 C11         4.8450    0.7670    4.4330 ca        1 YWO     -0.106000
     19 C12         4.0870    0.6940    3.2670 ca        1 YWO     -0.135500
     20 C13        -1.0040    0.7030    3.4450 c3        1 YWO     -0.067800
     21 C14         6.2360   -0.3050    6.2240 c3        1 YWO     -0.030100
     22 C15         7.6320    0.2970    5.9730 c3        1 YWO      0.112500
     23 C16         8.5310   -0.1160    7.1660 c         1 YWO      0.607100
     24 H1         -0.3490    0.3050   -1.1520 ha        1 YWO      0.173000
     25 HN2         8.5080    2.0690    5.5470 hn        1 YWO      0.362800
     26 HN2A        7.2630    2.1920    6.5900 hn        1 YWO      0.362800
     27 HN3         8.9070   -2.0040    6.4310 hn        1 YWO      0.312500
     28 HN3A        9.6550   -1.6560    7.9200 hn        1 YWO      0.312500
     29 H4          1.6110   -0.0520    3.4410 ha        1 YWO      0.161000
     30 H6         -1.7440    0.8140    0.8480 ha        1 YWO      0.149000
     31 H8          4.3470   -2.6760    2.6620 ha        1 YWO      0.153000
     32 H9          5.7060   -2.5260    4.7560 ha        1 YWO      0.144000
     33 H11         4.9960    1.7410    4.9240 ha        1 YWO      0.144000
     34 H12         3.6350    1.5960    2.8300 ha        1 YWO      0.153000
     35 H13        -0.4000    0.7500    4.3850 hc        1 YWO      0.056033
     36 H13A       -1.5300    1.6810    3.3110 hc        1 YWO      0.056033
     37 H13B       -1.7780   -0.0980    3.5620 hc        1 YWO      0.056033
     38 H14         6.3630   -1.3350    6.6540 hc        1 YWO      0.059700
     39 H14A        5.6870    0.3090    6.9890 hc        1 YWO      0.059700
     40 H15         8.0540   -0.1610    5.0290 h1        1 YWO      0.076700
@<TRIPOS>BOND
     1    1    4 ar  
     2    1   13 ar  
     3    1   24 1   
     4    2    4 1   
     5    2    6 1   
     6    2    9 1   
     7    3    7 1   
     8    3   14 1   
     9    4    7 ar  
    10    5   22 1   
    11    5   25 1   
    12    5   26 1   
    13    7   10 ar  
    14    8   23 1   
    15    8   27 1   
    16    8   28 1   
    17   10   12 ar  
    18   10   29 1   
    19   11   23 2   
    20   12   13 ar  
    21   12   20 1   
    22   13   30 1   
    23   14   15 ar  
    24   14   19 ar  
    25   15   16 ar  
    26   15   31 1   
    27   16   17 ar  
    28   16   32 1   
    29   17   18 ar  
    30   17   21 1   
    31   18   19 ar  
    32   18   33 1   
    33   19   34 1   
    34   20   35 1   
    35   20   36 1   
    36   20   37 1   
    37   21   22 1   
    38   21   38 1   
    39   21   39 1   
    40   22   23 1   
    41   22   40 1   
@<TRIPOS>SUBSTRUCTURE
     1 YWO         1 TEMP              0 ****  ****    0 ROOT
