@<TRIPOS>MOLECULE
YWO
   42    43     1     0     0
SMALL
bcc


@<TRIPOS>ATOM
      1 C1          2.0060   -0.7120    0.8590 ca        1 YWO     -0.034000
      2 N1          3.9290    0.1370    2.1550 no        1 YWO      0.323200
      3 O1          1.8680    1.6010    3.8190 os        1 YWO     -0.211200
      4 C2          2.4790    0.0710    1.9350 ca        1 YWO     -0.224200
      5 N2          6.8900    0.0810    3.5740 nz        1 YWO     -0.855600
      6 O2          4.6240   -0.8470    2.0050 o         1 YWO     -0.267500
      7 C3          1.5490    0.7540    2.7580 ca        1 YWO      0.168100
      8 N3          9.2450   -1.6560    6.1030 nz        1 YWO     -0.744400
      9 O3          4.4710    1.1550    2.5200 o         1 YWO     -0.267500
     10 C4          0.1800    0.6770    2.4760 ca        1 YWO     -0.142000
     11 O4          9.6030   -0.2770    4.2750 o         1 YWO     -0.355100
     12 C5         -0.2770   -0.0650    1.3800 ca        1 YWO      0.040700
     13 C6          0.6480   -0.7650    0.5880 ca        1 YWO     -0.141000
     14 C7          2.8930    1.1820    4.6530 ca        1 YWO      0.154100
     15 C8          3.0590   -0.1590    5.0350 ca        1 YWO     -0.139500
     16 C9          4.2520   -0.5370    5.6380 ca        1 YWO     -0.090500
     17 C10         5.2620    0.4160    5.8410 ca        1 YWO     -0.223300
     18 C11         4.9780    1.7830    5.6800 ca        1 YWO     -0.090500
     19 C12         3.7850    2.1810    5.0900 ca        1 YWO     -0.139500
     20 C13        -1.7200   -0.1100    1.0590 c3        1 YWO     -0.088800
     21 C14         6.6490   -0.0260    6.1150 c3        1 YWO     -0.031100
     22 C15         7.2380   -0.6700    4.8220 c3        1 YWO      0.057500
     23 C16         8.7530   -0.8050    4.9730 c         1 YWO      0.508100
     24 H1          2.7190   -1.2710    0.2260 ha        1 YWO      0.176000
     25 HN2         7.7050    0.5650    3.1760 hn        1 YWO      0.500133
     26 HN2A        6.1490    0.7940    3.7750 hn        1 YWO      0.500133
     27 HN3        10.2810   -1.6170    6.1430 hn        1 YWO      0.495800
     28 HN3A        8.9610   -2.6360    5.9690 hn        1 YWO      0.495800
     29 H4         -0.5290    1.2210    3.1250 ha        1 YWO      0.190000
     30 H6          0.2880   -1.3650   -0.2660 ha        1 YWO      0.180000
     31 H8          2.2650   -0.8970    4.8330 ha        1 YWO      0.190000
     32 H9          4.4080   -1.5880    5.9280 ha        1 YWO      0.153500
     33 H11         5.7080    2.5470    5.9960 ha        1 YWO      0.153500
     34 H12         3.5510    3.2440    4.9100 ha        1 YWO      0.190000
     35 H13        -1.9490    0.6460    0.2620 hc        1 YWO      0.080700
     36 H13A       -2.3460    0.1270    1.9550 hc        1 YWO      0.080700
     37 H13B       -2.0130   -1.1190    0.6740 hc        1 YWO      0.080700
     38 H14         6.6570   -0.8120    6.9180 hc        1 YWO      0.088700
     39 H14A        7.2860    0.8370    6.4410 hc        1 YWO      0.088700
     40 H15         6.7810   -1.7070    4.7150 hx        1 YWO      0.151700
     41 H23         6.4920   -0.5590    2.8550 hn        1 YWO      0.500133
     42 H33         8.8670   -1.3170    6.9990 hn        1 YWO      0.495800
@<TRIPOS>BOND
     1    1    4 ar  
     2    1   13 ar  
     3    1   24 1   
     4    2    4 1   
     5    2    6 1   
     6    2    9 1   
     7    3    7 1   
     8    3   14 1   
     9    4    7 ar  
    10    5   22 1   
    11    5   25 1   
    12    5   26 1   
    13    5   41 1   
    14    7   10 ar  
    15    8   23 1   
    16    8   27 1   
    17    8   28 1   
    18    8   42 1   
    19   10   12 ar  
    20   10   29 1   
    21   11   23 2   
    22   12   13 ar  
    23   12   20 1   
    24   13   30 1   
    25   14   15 ar  
    26   14   19 ar  
    27   15   16 ar  
    28   15   31 1   
    29   16   17 ar  
    30   16   32 1   
    31   17   18 ar  
    32   17   21 1   
    33   18   19 ar  
    34   18   33 1   
    35   19   34 1   
    36   20   35 1   
    37   20   36 1   
    38   20   37 1   
    39   21   22 1   
    40   21   38 1   
    41   21   39 1   
    42   22   23 1   
    43   22   40 1   
@<TRIPOS>SUBSTRUCTURE
     1 YWO         1 TEMP              0 ****  ****    0 ROOT
