@<TRIPOS>MOLECULE
YX0
   39    40     1     0     0
SMALL
bcc


@<TRIPOS>ATOM
      1 C1         -1.9440   -0.4650   -1.3890 c3        1 YX0      0.294900
      2 C2         -2.8970   -1.3560   -0.5630 c3        1 YX0      0.100100
      3 C3         -2.8390   -0.9600    0.9230 c3        1 YX0      0.085100
      4 C4         -3.0460    0.5600    1.0660 c3        1 YX0      0.080100
      5 C5         -1.9960    1.3010    0.2300 c3        1 YX0      0.104100
      6 C6         -2.1920    2.8020    0.2660 c3        1 YX0     -0.089100
      7 O1         -0.6250   -0.8090   -0.9980 os        1 YX0     -0.447600
      8 O2         -2.5930   -2.7140   -0.7750 oh        1 YX0     -0.572800
      9 O3         -3.7930   -1.6730    1.6770 oh        1 YX0     -0.577800
     10 O4         -4.3740    0.8960    0.7040 oh        1 YX0     -0.596800
     11 O5         -2.1150    0.9130   -1.1500 os        1 YX0     -0.445600
     12 O5'         5.8840   -0.3390   -0.5050 oh        1 YX0     -0.492100
     13 C6'         5.5370    0.7150    1.5910 c3        1 YX0     -0.051900
     14 C4'         3.6110    0.1740    0.0700 cc        1 YX0     -0.117000
     15 C3'         2.9110   -0.3380   -1.1210 cc        1 YX0     -0.201000
     16 C2'         1.5970   -0.0290   -0.9560 cd        1 YX0      0.049900
     17 C1'         0.3960   -0.2100   -1.7980 c3        1 YX0      0.193600
     18 O           1.3940    0.6440    0.2770 os        1 YX0     -0.145400
     19 N           2.5990    0.8060    0.9190 na        1 YX0     -0.380500
     20 H1         -2.1010   -0.5950   -2.4960 h2        1 YX0      0.087700
     21 H2         -3.9430   -1.2290   -0.9590 h1        1 YX0      0.087700
     22 H3         -1.8430   -1.2560    1.3560 h1        1 YX0      0.094700
     23 HA         -1.7390   -2.8870   -0.3550 ho        1 YX0      0.418000
     24 H4         -2.9660    0.8520    2.1500 h1        1 YX0      0.097700
     25 HB         -4.6640   -1.3220    1.4430 ho        1 YX0      0.415000
     26 H5         -0.9650    1.0200    0.5910 h1        1 YX0      0.085700
     27 HC         -4.4000    0.9650   -0.2610 ho        1 YX0      0.410000
     28 H6C1       -1.9870    3.1710    1.2990 hc        1 YX0      0.052033
     29 H6C2       -1.4910    3.2960   -0.4480 hc        1 YX0      0.052033
     30 H6C3       -3.2390    3.0660   -0.0150 hc        1 YX0      0.052033
     31 H1'1        0.6250   -0.9060   -2.6500 h1        1 YX0      0.067700
     32 H1'2        0.0570    0.7890   -2.1900 h1        1 YX0      0.067700
     33 H5'         5.4500   -0.6200   -1.3240 ho        1 YX0      0.419000
     34 H6'1        5.3460    1.8150    1.6550 hc        1 YX0      0.061700
     35 H6'2        5.0730    0.2200    2.4800 hc        1 YX0      0.061700
     36 H6'3        6.6400    0.5350    1.6060 hc        1 YX0      0.061700
     37 H           2.5390    0.2710    1.7880 hn        1 YX0      0.351800
     38 H3'         3.3860   -0.8650   -1.9430 ha        1 YX0      0.162000
     39 C5'         4.9370    0.1770    0.3460 c2        1 YX0      0.102900
@<TRIPOS>BOND
     1    1    2 1   
     2    1    7 1   
     3    1   11 1   
     4    1   20 1   
     5    2    3 1   
     6    2    8 1   
     7    2   21 1   
     8    3    4 1   
     9    3    9 1   
    10    3   22 1   
    11    4    5 1   
    12    4   10 1   
    13    4   24 1   
    14    5    6 1   
    15    5   11 1   
    16    5   26 1   
    17    6   28 1   
    18    6   29 1   
    19    6   30 1   
    20    7   17 1   
    21    8   23 1   
    22    9   25 1   
    23   10   27 1   
    24   12   33 1   
    25   12   39 1   
    26   13   34 1   
    27   13   35 1   
    28   13   36 1   
    29   13   39 1   
    30   14   15 1   
    31   14   19 1   
    32   14   39 2   
    33   15   16 2   
    34   15   38 1   
    35   16   17 1   
    36   16   18 1   
    37   17   31 1   
    38   17   32 1   
    39   18   19 1   
    40   19   37 1   
@<TRIPOS>SUBSTRUCTURE
     1 YX0         1 TEMP              0 ****  ****    0 ROOT
