@<TRIPOS>MOLECULE
YX0
   39    38     1     0     0
SMALL
bcc


@<TRIPOS>ATOM
      1 C1          0.7440   -1.7560   -0.7250 c3        1 YX0      0.152000
      2 C2          2.2560   -1.8100   -0.6680 c3        1 YX0      0.028000
      3 C3          2.7660   -1.8010    0.7210 c3        1 YX0     -0.050000
      4 C4          2.1200   -2.8480    1.5660 c3        1 YX0     -0.020000
      5 C5          0.6030   -2.7910    1.4970 c3        1 YX0      0.035000
      6 C6          0.0360   -3.9850    2.2240 c3        1 YX0     -0.202000
      7 O1          0.3240   -0.5070   -0.2960 os        1 YX0     -0.288000
      8 O2          2.7930   -0.6630   -1.3710 oh        1 YX0     -0.311000
      9 O3          4.2030   -2.0360    0.6960 oh        1 YX0     -0.340000
     10 O4          2.5560   -4.1390    1.1210 oh        1 YX0     -0.317000
     11 O5          0.1050   -2.7950    0.1240 os        1 YX0     -0.289000
     12 O5'        -4.4270    3.7440   -1.7630 oh        1 YX0     -0.255000
     13 C5'        -3.2770    4.2190   -1.0810 c2        1 YX0      0.015000
     14 C6'        -3.1480    5.7070   -0.7420 c3        1 YX0     -0.200000
     15 C4'        -2.2990    3.3610   -0.7330 c1        1 YX0     -0.119000
     16 C3'        -2.2490    1.9890   -0.9600 c1        1 YX0     -0.176000
     17 C2'        -1.1520    1.4130   -0.4970 c1        1 YX0      0.000000
     18 C1'        -0.6100    0.1190   -1.1660 c2        1 YX0      0.039000
     19 O          -0.2780    2.2900    0.1200 os        1 YX0     -0.154000
     20 N          -0.9910    3.6760    0.0020 n3        1 YX0     -0.054000
     21 H1          0.4580   -1.8860   -1.6540 h2        1 YX0      0.131000
     22 H2          2.5620   -2.6290   -1.1130 h1        1 YX0      0.110000
     23 H3          2.5950   -0.9280    1.1140 h1        1 YX0      0.121000
     24 HA          3.2750   -0.9450   -2.0860 ho        1 YX0      0.220000
     25 H4          2.4000   -2.7220    2.4970 h1        1 YX0      0.081000
     26 HB          4.6160   -1.3910    1.1480 ho        1 YX0      0.211000
     27 H5          0.2970   -1.9750    1.9430 h1        1 YX0      0.111000
     28 HC          3.1830   -4.4400    1.6630 ho        1 YX0      0.212000
     29 H6C1        0.1590   -4.7930    1.6750 hc        1 YX0      0.091000
     30 H6C2       -0.9160   -3.8450    2.3880 hc        1 YX0      0.091000
     31 H6C3        0.5060   -4.0980    3.0860 hc        1 YX0      0.091000
     32 H1'1       -1.3470   -0.4890   -1.3400 h4        1 YX0      0.105500
     33 H1'2       -0.1640    0.3500   -2.0180 h4        1 YX0      0.105500
     34 H5'        -4.6820    4.3500   -2.3790 ho        1 YX0      0.216000
     35 H6'1       -3.9370    6.1880   -1.0760 hc        1 YX0      0.094667
     36 H6'2       -2.3370    6.0720   -1.1660 hc        1 YX0      0.094667
     37 H6'3       -3.0860    5.8170    0.2270 hc        1 YX0      0.094667
     38 H3'        -3.0780    1.4740   -1.0320 ha        1 YX0      0.180000
     39 H          -0.5810    4.5050    0.0540 hn        1 YX0      0.148000
@<TRIPOS>BOND
     1    1    2 1   
     2    1    7 1   
     3    1   11 1   
     4    1   21 1   
     5    2    3 1   
     6    2    8 1   
     7    2   22 1   
     8    3    4 1   
     9    3    9 1   
    10    3   23 1   
    11    4    5 1   
    12    4   10 1   
    13    4   25 1   
    14    5    6 1   
    15    5   11 1   
    16    5   27 1   
    17    6   29 1   
    18    6   30 1   
    19    6   31 1   
    20    7   18 1   
    21    8   24 1   
    22    9   26 1   
    23   10   28 1   
    24   12   13 1   
    25   12   34 1   
    26   13   14 1   
    27   13   15 1   
    28   14   35 1   
    29   14   36 1   
    30   14   37 1   
    31   15   20 1   
    32   16   17 1   
    33   16   38 1   
    34   17   19 1   
    35   18   32 1   
    36   18   33 1   
    37   19   20 1   
    38   20   39 1   
@<TRIPOS>SUBSTRUCTURE
     1 YX0         1 TEMP              0 ****  ****    0 ROOT
