@<TRIPOS>MOLECULE
YX0
   39    34     1     0     0
SMALL
bcc


@<TRIPOS>ATOM
      1 C1          0.3670   -1.8610    0.2350 c2        1 YX0     -0.365000
      2 C2          1.2820   -0.7050    0.1850 c3        1 YX0      0.012000
      3 C3          2.5060   -0.9550    1.0270 c1        1 YX0     -0.063000
      4 C4          4.6710   -3.1200    1.6920 c1        1 YX0     -0.012000
      5 C5         -0.2180   -1.7980    2.4920 c2        1 YX0     -0.242000
      6 C6         -1.0140   -2.4730    3.5280 c3        1 YX0     -0.165000
      7 O1         -1.4230    2.1700    0.3580 oh        1 YX0     -0.249000
      8 O2          0.6490    0.5470    0.4110 oh        1 YX0     -0.351000
      9 O3          2.5970   -0.1540    2.0640 oh        1 YX0     -0.210000
     10 O4          4.3970   -3.0950    0.4410 oh        1 YX0     -0.161000
     11 O5         -0.2820   -2.3360    1.2910 os        1 YX0      0.112000
     12 O5'        -3.9900    7.5220   -0.2250 oh        1 YX0     -0.249000
     13 C6'        -4.8220    8.4350    1.7860 c3        1 YX0     -0.192000
     14 C4'        -3.6950    6.1920    1.7660 c2        1 YX0     -0.232000
     15 C3'        -3.0480    5.1320    1.1380 c1        1 YX0     -0.048000
     16 C2'        -2.4830    4.2040    0.6050 c1        1 YX0     -0.259000
     17 C1'        -1.8630    3.2700   -0.2380 c1        1 YX0      0.092000
     18 O          -0.6320    1.3360    3.1560 o         1 YX0     -0.154700
     19 N          -1.3340    2.2370    3.3540 n2        1 YX0      0.069700
     20 H1         -1.0020    1.6170   -0.3320 ho        1 YX0      0.286000
     21 H2          0.1570   -2.4710   -0.6520 h4        1 YX0      0.190000
     22 H3          1.6620   -0.6130   -0.8830 h1        1 YX0      0.161000
     23 HA          0.3810    0.5970    1.3380 ho        1 YX0      0.221000
     24 H4          4.0880   -2.4200    2.3490 ha        1 YX0     -0.036000
     25 HB          3.4180   -0.3660    2.5500 ho        1 YX0      0.264000
     26 H5          0.3870   -0.9090    2.6980 h4        1 YX0      0.162000
     27 HC          3.6910   -2.4580    0.1590 ho        1 YX0      0.192000
     28 H6C1       -1.5910   -3.3350    3.1140 hc        1 YX0      0.096667
     29 H6C2       -0.3340   -2.8480    4.3350 hc        1 YX0      0.096667
     30 H6C3       -1.7300   -1.7400    3.9790 hc        1 YX0      0.096667
     31 H1'1       -1.7700   -0.0380    1.4510 ha        1 YX0      0.003000
     32 H1'2       -1.6990   -0.2500    0.8090 ha        1 YX0      0.003000
     33 H5'        -3.5360    6.7620   -0.6270 ho        1 YX0      0.240000
     34 H6'1       -4.2450    9.3800    1.6230 hc        1 YX0      0.106333
     35 H6'2       -5.8420    8.5680    1.3450 hc        1 YX0      0.106333
     36 H6'3       -4.9150    8.2440    2.8810 hc        1 YX0      0.106333
     37 H          -1.6020    2.7920    2.5140 hn        1 YX0      0.086000
     38 H3'        -3.8530    6.1020    2.8540 ha        1 YX0      0.158000
     39 C5'        -4.1300    7.3040    1.1160 c2        1 YX0      0.128000
@<TRIPOS>BOND
     1    1    2 1   
     2    1   11 1   
     3    1   21 1   
     4    2    3 1   
     5    2    8 1   
     6    2   22 1   
     7    3    9 1   
     8    4   10 1   
     9    4   24 1   
    10    5    6 1   
    11    5   11 1   
    12    5   26 1   
    13    6   28 1   
    14    6   29 1   
    15    6   30 1   
    16    7   17 1   
    17    7   20 1   
    18    8   23 1   
    19    9   25 1   
    20   10   27 1   
    21   12   33 1   
    22   12   39 1   
    23   13   34 1   
    24   13   35 1   
    25   13   36 1   
    26   13   39 1   
    27   14   15 1   
    28   14   38 1   
    29   14   39 1   
    30   15   16 1   
    31   16   17 1   
    32   18   19 2   
    33   19   37 1   
    34   31   32 1   
@<TRIPOS>SUBSTRUCTURE
     1 YX0         1 TEMP              0 ****  ****    0 ROOT
