@<TRIPOS>MOLECULE
YX0
   39    36     1     0     0
SMALL
bcc


@<TRIPOS>ATOM
      1 C1          0.2670   -1.4870    0.7310 c2        1 YX0     -0.390000
      2 C2          0.7270   -0.1870    0.2120 c3        1 YX0      0.022000
      3 C3          1.8700    0.3290    1.0470 c1        1 YX0     -0.058000
      4 C4          4.9540    0.1450    1.2110 c1        1 YX0     -0.018000
      5 C5         -0.8220   -0.7020    2.6350 c2        1 YX0     -0.221000
      6 C6         -1.6500   -1.1060    3.7810 c3        1 YX0     -0.170000
      7 O1         -2.9270    0.7340   -0.9530 oh        1 YX0     -0.329000
      8 O2         -0.2880    0.8020    0.0680 oh        1 YX0     -0.367000
      9 O3          1.5980    1.4330    1.7060 oh        1 YX0     -0.202000
     10 O4          4.4170   -1.0150    1.1460 oh        1 YX0     -0.163000
     11 O5         -0.4510   -1.6800    1.8350 os        1 YX0      0.110000
     12 O5'        -2.1870    6.5520    1.7070 oh        1 YX0     -0.228000
     13 C6'        -3.0650    4.8970    3.1520 c3        1 YX0     -0.202000
     14 C4'        -1.2600    4.3610    1.4350 c2        1 YX0     -0.316000
     15 C3'        -2.9100    4.0640    0.0050 c1        1 YX0      0.037000
     16 C2'        -2.9410    2.7690    0.3450 c2        1 YX0     -0.324000
     17 C1'        -3.7430    1.6970   -0.3140 c3        1 YX0      0.052000
     18 O          -2.2180    2.2600    1.4620 os        1 YX0     -0.153000
     19 N          -1.1450    2.9900    1.8480 n7        1 YX0     -0.082000
     20 H1         -2.3230    1.2050   -1.5420 ho        1 YX0      0.210000
     21 H2          0.5050   -2.4380    0.2450 h4        1 YX0      0.193000
     22 H3          1.1620   -0.3560   -0.8220 h1        1 YX0      0.135000
     23 HA         -1.1540    0.3920    0.2140 ho        1 YX0      0.240000
     24 H4          4.2560    1.0250    1.1800 ha        1 YX0     -0.033000
     25 HB          2.3960    1.6920    2.2080 ho        1 YX0      0.253000
     26 H5         -0.5610    0.3430    2.4270 h4        1 YX0      0.179000
     27 HC          3.4260   -1.0380    1.0730 ho        1 YX0      0.195000
     28 H6C1       -1.1370   -0.8070    4.7310 hc        1 YX0      0.097000
     29 H6C2       -2.6360   -0.5780    3.7300 hc        1 YX0      0.097000
     30 H6C3       -1.8300   -2.2090    3.7990 hc        1 YX0      0.097000
     31 H1'1       -4.3190    1.1130    0.4550 h1        1 YX0      0.101500
     32 H1'2       -4.4490    2.1570   -1.0570 h1        1 YX0      0.101500
     33 H5'        -1.6090    6.7180    0.9430 ho        1 YX0      0.240000
     34 H6'1       -3.7760    5.7370    3.3480 hc        1 YX0      0.120667
     35 H6'2       -3.6380    3.9760    2.8770 hc        1 YX0      0.120667
     36 H6'3       -2.4780    4.6850    4.0820 hc        1 YX0      0.120667
     37 H          -0.3180    2.5960    1.3890 hn        1 YX0      0.183000
     38 H3'        -0.4970    4.7440    0.7330 h4        1 YX0      0.150000
     39 C5'        -2.1230    5.2400    2.0580 c2        1 YX0      0.198000
@<TRIPOS>BOND
     1    1    2 1   
     2    1   11 1   
     3    1   21 1   
     4    2    3 1   
     5    2    8 1   
     6    2   22 1   
     7    3    9 1   
     8    4   10 1   
     9    4   24 1   
    10    5    6 1   
    11    5   11 1   
    12    5   26 1   
    13    6   28 1   
    14    6   29 1   
    15    6   30 1   
    16    7   17 1   
    17    7   20 1   
    18    8   23 1   
    19    9   25 1   
    20   10   27 1   
    21   12   33 1   
    22   12   39 1   
    23   13   34 1   
    24   13   35 1   
    25   13   36 1   
    26   13   39 1   
    27   14   19 1   
    28   14   38 1   
    29   14   39 1   
    30   15   16 1   
    31   16   17 1   
    32   16   18 1   
    33   17   31 1   
    34   17   32 1   
    35   18   19 1   
    36   19   37 1   
@<TRIPOS>SUBSTRUCTURE
     1 YX0         1 TEMP              0 ****  ****    0 ROOT
