@<TRIPOS>MOLECULE
YX1
   38    38     1     0     0
SMALL
bcc


@<TRIPOS>ATOM
      1 O3         -0.1100    0.3550    0.3230 oh        1 YX1     -0.644800
      2 C3          1.2960    0.3530    0.2180 c3        1 YX1      0.130100
      3 C4          1.9940   -0.1710    1.5050 c3        1 YX1      0.102100
      4 O4          1.7540    0.8620    2.4330 oh        1 YX1     -0.573800
      5 C5          3.5020   -0.3490    1.2520 c3        1 YX1      0.092100
      6 C6          4.2040   -1.1040    2.3920 c3        1 YX1      0.147400
      7 O6          5.5710   -1.1290    2.0480 oh        1 YX1     -0.592800
      8 O5          3.6840   -1.1860    0.0850 os        1 YX1     -0.387600
      9 C1          3.1780   -0.6260   -1.0890 c3        1 YX1      0.348900
     10 O1          3.5220   -1.5660   -2.0820 oh        1 YX1     -0.738800
     11 C2          1.6250   -0.6230   -0.9440 c3        1 YX1      0.051500
     12 N2          0.8940   -0.1860   -2.2130 ny        1 YX1     -0.621800
     13 CAM         0.4260   -1.2930   -3.0550 c         1 YX1      0.525100
     14 OAG        -0.7220   -1.6640   -3.1790 o         1 YX1     -0.244100
     15 NAN         1.4990   -2.1170   -3.8680 nx        1 YX1     -0.432000
     16 CAH         1.5600   -3.5120   -3.2790 c3        1 YX1      0.059100
     17 NAO         1.1820   -2.1280   -5.3030 ny        1 YX1     -0.346300
     18 OAP         1.3150   -0.8500   -5.7210 oh        1 YX1     -0.378300
     19 H3         -0.3530    0.7660    1.1760 ho        1 YX1      0.511000
     20 HA          1.6670    1.3960   -0.0030 h1        1 YX1      0.108700
     21 H4          1.5240   -1.1400    1.8320 h1        1 YX1      0.089700
     22 H2          1.2480   -1.6530   -0.6690 hx        1 YX1      0.140700
     23 HB          1.8950    0.5110    3.3280 ho        1 YX1      0.468000
     24 H5          4.0080    0.6420    1.0830 h1        1 YX1      0.115700
     25 H6C1        4.0150   -0.5470    3.3480 h1        1 YX1      0.067200
     26 H6C2        3.8130   -2.1540    2.4660 h1        1 YX1      0.067200
     27 H6          6.0800   -1.2280    2.8670 ho        1 YX1      0.454000
     28 H1          3.5930    0.3940   -1.3260 h2        1 YX1      0.115700
     29 HC          4.3860   -1.9640   -1.8420 ho        1 YX1      0.528000
     30 HD          0.0230    0.3300   -1.8850 hn        1 YX1      0.535800
     31 HAH1        0.5310   -3.9690   -3.2130 hx        1 YX1      0.174033
     32 HAH2        2.0130   -3.3770   -2.2450 hx        1 YX1      0.174033
     33 HAH3        2.2510   -4.1770   -3.8780 hx        1 YX1      0.174033
     34 HAO         0.1710   -2.4430   -5.4330 hn        1 YX1      0.556300
     35 HAP         1.5430   -0.8210   -6.7020 ho        1 YX1      0.576000
     36 H22         1.4870    0.4730   -2.7470 hn        1 YX1      0.535800
     37 HAN1        2.4590   -1.6730   -3.7570 hn        1 YX1      0.554800
     38 HAO2        1.8430   -2.8000   -5.7910 hn        1 YX1      0.556300
@<TRIPOS>BOND
     1    1    2 1   
     2    1   19 1   
     3    2    3 1   
     4    2   11 1   
     5    2   20 1   
     6    3    4 1   
     7    3    5 1   
     8    3   21 1   
     9    4   23 1   
    10    5    6 1   
    11    5    8 1   
    12    5   24 1   
    13    6    7 1   
    14    6   25 1   
    15    6   26 1   
    16    7   27 1   
    17    8    9 1   
    18    9   10 1   
    19    9   11 1   
    20    9   28 1   
    21   10   29 1   
    22   11   12 1   
    23   11   22 1   
    24   12   13 1   
    25   12   30 1   
    26   12   36 1   
    27   13   14 2   
    28   13   15 1   
    29   15   16 1   
    30   15   17 1   
    31   15   37 1   
    32   16   31 1   
    33   16   32 1   
    34   16   33 1   
    35   17   18 1   
    36   17   34 1   
    37   17   38 1   
    38   18   35 1   
@<TRIPOS>SUBSTRUCTURE
     1 YX1         1 TEMP              0 ****  ****    0 ROOT
