@<TRIPOS>MOLECULE
YX1
   35    35     1     0     0
SMALL
bcc


@<TRIPOS>ATOM
      1 O3          0.4630    2.5780    0.4800 oh        1 YX1     -0.600800
      2 C3          1.0000    1.4710   -0.2200 c3        1 YX1      0.137100
      3 C4          2.4340    1.1700    0.2600 c3        1 YX1      0.077100
      4 O4          3.2020    2.2910   -0.1530 oh        1 YX1     -0.602800
      5 C5          2.9550   -0.1280   -0.3740 c3        1 YX1      0.074100
      6 C6          4.2750   -0.5770    0.2630 c3        1 YX1      0.138400
      7 O6          4.7990   -1.7060   -0.3970 oh        1 YX1     -0.592800
      8 O5          2.0450   -1.2000   -0.1440 os        1 YX1     -0.453600
      9 C1          0.7440   -0.9580   -0.6860 c3        1 YX1      0.340900
     10 O1          0.1090   -2.1790   -0.4790 oh        1 YX1     -0.570800
     11 C2          0.1110    0.2430    0.0800 c3        1 YX1      0.032700
     12 N2         -1.2760    0.4440   -0.2880 n         1 YX1     -0.511900
     13 CAM        -2.2370   -0.2420    0.4790 c         1 YX1      0.750100
     14 OAG        -1.8900   -1.1840    1.2300 o         1 YX1     -0.634100
     15 NAN        -3.6310    0.1370    0.4250 n         1 YX1     -0.343200
     16 CAH        -4.5370   -0.9060    0.9050 c3        1 YX1      0.034300
     17 NAO        -4.0320    0.9430   -0.6350 n3        1 YX1     -0.317700
     18 OAP        -4.3890    0.2470   -1.7350 oh        1 YX1     -0.451300
     19 H3          1.0920    3.3040    0.3700 ho        1 YX1      0.428000
     20 HA          1.0170    1.6950   -1.3240 h1        1 YX1      0.058700
     21 H4          2.4470    1.0860    1.3820 h1        1 YX1      0.064700
     22 H2          0.1870    0.0130    1.1880 h1        1 YX1      0.090700
     23 HB          4.0950    2.1660    0.1900 ho        1 YX1      0.415000
     24 H5          3.0930    0.0190   -1.4820 h1        1 YX1      0.068700
     25 H6C1        5.0530    0.2230    0.1380 h1        1 YX1      0.051200
     26 H6C2        4.1170   -0.7970    1.3520 h1        1 YX1      0.051200
     27 H6          4.1220   -2.3960   -0.3620 ho        1 YX1      0.422000
     28 H1          0.7880   -0.7930   -1.7970 h2        1 YX1      0.082700
     29 HC         -0.0930   -2.2650    0.4670 ho        1 YX1      0.439000
     30 HD         -1.4910    1.3770   -0.5720 hn        1 YX1      0.323500
     31 HAH1       -5.5200   -0.4300    1.1590 h1        1 YX1      0.059033
     32 HAH2       -4.7000   -1.7090    0.1390 h1        1 YX1      0.059033
     33 HAH3       -4.1000   -1.3640    1.8310 h1        1 YX1      0.059033
     34 HAO        -4.9100    1.3810   -0.3140 hn        1 YX1      0.389800
     35 HAP        -3.5910    0.2070   -2.2960 ho        1 YX1      0.432000
@<TRIPOS>BOND
     1    1    2 1   
     2    1   19 1   
     3    2    3 1   
     4    2   11 1   
     5    2   20 1   
     6    3    4 1   
     7    3    5 1   
     8    3   21 1   
     9    4   23 1   
    10    5    6 1   
    11    5    8 1   
    12    5   24 1   
    13    6    7 1   
    14    6   25 1   
    15    6   26 1   
    16    7   27 1   
    17    8    9 1   
    18    9   10 1   
    19    9   11 1   
    20    9   28 1   
    21   10   29 1   
    22   11   12 1   
    23   11   22 1   
    24   12   13 1   
    25   12   30 1   
    26   13   14 2   
    27   13   15 1   
    28   15   16 1   
    29   15   17 1   
    30   16   31 1   
    31   16   32 1   
    32   16   33 1   
    33   17   18 1   
    34   17   34 1   
    35   18   35 1   
@<TRIPOS>SUBSTRUCTURE
     1 YX1         1 TEMP              0 ****  ****    0 ROOT
