@<TRIPOS>MOLECULE
YX1
   35    35     1     0     0
SMALL
bcc


@<TRIPOS>ATOM
      1 O3          0.0610    0.1810   -0.1340 oh        1 YX1     -0.598800
      2 C3          1.4760    0.2120   -0.0450 c3        1 YX1      0.098100
      3 C4          1.9220    0.0930    1.4250 c3        1 YX1      0.081100
      4 O4          1.5170    1.2600    2.1230 oh        1 YX1     -0.592800
      5 C5          3.4540    0.0110    1.4990 c3        1 YX1      0.106100
      6 C6          3.9250   -0.2900    2.9250 c3        1 YX1      0.141400
      7 O6          5.3300   -0.2370    3.0190 oh        1 YX1     -0.594800
      8 O5          3.9210   -1.0710    0.6970 os        1 YX1     -0.454600
      9 C1          3.5840   -0.9340   -0.6850 c3        1 YX1      0.340900
     10 O1          4.2610   -2.0020   -1.2640 oh        1 YX1     -0.570800
     11 C2          2.0310   -1.0000   -0.8250 c3        1 YX1      0.034700
     12 N2          1.6170   -1.0280   -2.2120 n         1 YX1     -0.512900
     13 CAM         1.4860   -2.2970   -2.8070 c         1 YX1      0.750100
     14 OAG         1.9740   -3.3080   -2.2490 o         1 YX1     -0.632100
     15 NAN         0.7740   -2.4560   -4.0550 n         1 YX1     -0.343200
     16 CAH         1.0890   -3.7040   -4.7490 c3        1 YX1      0.033300
     17 NAO         0.5390   -1.3090   -4.8050 n3        1 YX1     -0.318700
     18 OAP         1.5460   -1.0010   -5.6490 oh        1 YX1     -0.450300
     19 H3         -0.2540    1.0100    0.2470 ho        1 YX1      0.412000
     20 HA          1.8650    1.1760   -0.4780 h1        1 YX1      0.059700
     21 H4          1.4660   -0.8280    1.8820 h1        1 YX1      0.066700
     22 H2          1.6880   -1.9460   -0.3010 h1        1 YX1      0.089700
     23 HB          0.6280    1.0890    2.4570 ho        1 YX1      0.409000
     24 H5          3.9080    0.9750    1.1380 h1        1 YX1      0.069700
     25 H6C1        3.5460    0.5110    3.6150 h1        1 YX1      0.059200
     26 H6C2        3.5480   -1.2970    3.2470 h1        1 YX1      0.059200
     27 H6          5.6810   -0.8800    2.3880 ho        1 YX1      0.417000
     28 H1          4.0190    0.0070   -1.1210 h2        1 YX1      0.082700
     29 HC          3.8000   -2.8230   -1.0300 ho        1 YX1      0.438000
     30 HD          0.9400   -0.3330   -2.4510 hn        1 YX1      0.321500
     31 HAH1        2.0730   -3.6510   -5.2870 h1        1 YX1      0.059367
     32 HAH2        1.1250   -4.5350   -3.9970 h1        1 YX1      0.059367
     33 HAH3        0.2730   -3.9130   -5.4890 h1        1 YX1      0.059367
     34 HAO        -0.2480   -1.5580   -5.4260 hn        1 YX1      0.388800
     35 HAP         2.1120   -0.3670   -5.1700 ho        1 YX1      0.432000
@<TRIPOS>BOND
     1    1    2 1   
     2    1   19 1   
     3    2    3 1   
     4    2   11 1   
     5    2   20 1   
     6    3    4 1   
     7    3    5 1   
     8    3   21 1   
     9    4   23 1   
    10    5    6 1   
    11    5    8 1   
    12    5   24 1   
    13    6    7 1   
    14    6   25 1   
    15    6   26 1   
    16    7   27 1   
    17    8    9 1   
    18    9   10 1   
    19    9   11 1   
    20    9   28 1   
    21   10   29 1   
    22   11   12 1   
    23   11   22 1   
    24   12   13 1   
    25   12   30 1   
    26   13   14 2   
    27   13   15 1   
    28   15   16 1   
    29   15   17 1   
    30   16   31 1   
    31   16   32 1   
    32   16   33 1   
    33   17   18 1   
    34   17   34 1   
    35   18   35 1   
@<TRIPOS>SUBSTRUCTURE
     1 YX1         1 TEMP              0 ****  ****    0 ROOT
