@<TRIPOS>MOLECULE
YY1
   12    12     1     0     0
SMALL
bcc


@<TRIPOS>ATOM
      1 CAG         0.0240   -0.0540   -0.0010 c3        1 YY1     -0.124400
      2 CAE         1.4990    0.0530   -0.0010 cc        1 YY1      0.365800
      3 NAA         2.2860    0.0740    1.1660 na        1 YY1     -0.425700
      4 NAD         2.3440    0.1470   -1.0780 nd        1 YY1     -0.336000
      5 NAC         3.5830    0.2240   -0.6580 nd        1 YY1     -0.357000
      6 CAB         3.6080    0.1840    0.7180 cc        1 YY1      0.434800
      7 SAF         4.9440    0.2490    1.7460 sh        1 YY1     -0.298100
      8 H1         -0.3590   -0.0540   -1.0520 hc        1 YY1      0.063033
      9 H2         -0.2960   -1.0030    0.4970 hc        1 YY1      0.063033
     10 H3         -0.4270    0.8120    0.5460 hc        1 YY1      0.063033
     11 H4          1.9780    0.0230    2.1010 hn        1 YY1      0.316700
     12 H5          5.9020    0.3460    0.8280 hs        1 YY1      0.235800
@<TRIPOS>BOND
     1    1    2 1   
     2    1    8 1   
     3    1    9 1   
     4    1   10 1   
     5    2    3 1   
     6    2    4 2   
     7    3    6 1   
     8    3   11 1   
     9    4    5 1   
    10    5    6 2   
    11    6    7 1   
    12    7   12 1   
@<TRIPOS>SUBSTRUCTURE
     1 YY1         1 TEMP              0 ****  ****    0 ROOT
