@<TRIPOS>MOLECULE
YY2
   41    41     1     0     0
SMALL
bcc


@<TRIPOS>ATOM
      1 CAQ         2.5360    0.6770   -1.2980 c3        1 YY2     -0.107433
      2 CAP         1.8840    0.7950    0.0910 c3        1 YY2      0.122400
      3 CAR         0.7920   -0.2840    0.1930 c3        1 YY2     -0.107433
      4 CAS         2.9620    0.4760    1.1430 c3        1 YY2     -0.107433
      5 NAO         1.3390    2.1300    0.3300 n         1 YY2     -0.548900
      6 CAM         0.3980    2.7270   -0.4730 c         1 YY2      0.631100
      7 OAN        -0.2000    2.1330   -1.3950 o         1 YY2     -0.617100
      8 CAL        -0.0010    4.1680   -0.1470 c3        1 YY2      0.053400
      9 OAG         1.0840    4.9460    0.3610 os        1 YY2     -0.318900
     10 CAF         1.8000    5.6570   -0.5880 ca        1 YY2      0.074100
     11 CAE         3.1780    5.4340   -0.7320 ca        1 YY2      0.034400
     12 CL1         3.9740    4.2110    0.1420 cl        1 YY2     -0.080400
     13 CAD         3.9370    6.2300   -1.5960 ca        1 YY2     -0.146000
     14 CAC         3.3290    7.2520   -2.3260 ca        1 YY2     -0.055300
     15 CAK         4.1650    8.1180   -3.2250 c3        1 YY2      0.202100
     16 NAT         3.5850    8.3310   -4.5310 n3        1 YY2     -0.918800
     17 CAB         1.9580    7.4920   -2.1940 ca        1 YY2     -0.170000
     18 CAA         1.1960    6.7030   -1.3290 ca        1 YY2      0.109100
     19 OAH        -0.1600    6.8620   -1.1280 os        1 YY2     -0.324900
     20 CAI        -0.7850    7.9190   -1.8520 c3        1 YY2      0.111700
     21 H1          2.9360   -0.3560   -1.4290 hc        1 YY2      0.045033
     22 H2          3.3760    1.4030   -1.4030 hc        1 YY2      0.045033
     23 H3          1.7800    0.8760   -2.0960 hc        1 YY2      0.045033
     24 H4          1.2520   -1.2840    0.0130 hc        1 YY2      0.045033
     25 H5          0.3280   -0.2800    1.2070 hc        1 YY2      0.045033
     26 H6         -0.0010   -0.1050   -0.5720 hc        1 YY2      0.045033
     27 H7          3.8070    1.2030    1.0820 hc        1 YY2      0.045033
     28 H8          3.3600   -0.5480    0.9500 hc        1 YY2      0.045033
     29 H9          2.5340    0.5030    2.1730 hc        1 YY2      0.045033
     30 H10         1.8620    2.7170    0.9390 hn        1 YY2      0.321500
     31 H11        -0.4600    4.6290   -1.0600 h1        1 YY2      0.093200
     32 H12        -0.7420    4.1590    0.6990 h1        1 YY2      0.093200
     33 H13         5.0170    6.0450   -1.6970 ha        1 YY2      0.151000
     34 H14         5.2060    7.6770   -3.2820 h1        1 YY2      0.038700
     35 H15         4.2650    9.1320   -2.7350 h1        1 YY2      0.038700
     36 H16         3.3140    7.4650   -4.9530 hn        1 YY2      0.355800
     37 H17         4.2390    8.8000   -5.1250 hn        1 YY2      0.355800
     38 H19         1.4940    8.3060   -2.7720 ha        1 YY2      0.162000
     39 H20        -0.3440    8.9050   -1.5680 h1        1 YY2      0.050033
     40 H21        -0.6970    7.7480   -2.9520 h1        1 YY2      0.050033
     41 H22        -1.8540    7.8540   -1.5240 h1        1 YY2      0.050033
@<TRIPOS>BOND
     1    1    2 1   
     2    1   21 1   
     3    1   22 1   
     4    1   23 1   
     5    2    3 1   
     6    2    4 1   
     7    2    5 1   
     8    3   24 1   
     9    3   25 1   
    10    3   26 1   
    11    4   27 1   
    12    4   28 1   
    13    4   29 1   
    14    5    6 1   
    15    5   30 1   
    16    6    7 2   
    17    6    8 1   
    18    8    9 1   
    19    8   31 1   
    20    8   32 1   
    21    9   10 1   
    22   10   11 ar  
    23   10   18 ar  
    24   11   12 1   
    25   11   13 ar  
    26   13   14 ar  
    27   13   33 1   
    28   14   15 1   
    29   14   17 ar  
    30   15   16 1   
    31   15   34 1   
    32   15   35 1   
    33   16   36 1   
    34   16   37 1   
    35   17   18 ar  
    36   17   38 1   
    37   18   19 1   
    38   19   20 1   
    39   20   39 1   
    40   20   40 1   
    41   20   41 1   
@<TRIPOS>SUBSTRUCTURE
     1 YY2         1 TEMP              0 ****  ****    0 ROOT
