@<TRIPOS>MOLECULE
YY2
   43    43     1     0     0
SMALL
bcc


@<TRIPOS>ATOM
      1 CAQ         1.1690   -0.9250   -1.0790 c3        1 YY2     -0.134433
      2 CAP         1.4310    0.3030   -0.2070 c3        1 YY2      0.165200
      3 CAR         0.1120    0.9830    0.1490 c3        1 YY2     -0.134433
      4 CAS         2.1510   -0.1240    1.0750 c3        1 YY2     -0.134433
      5 NAO         2.3450    1.2870   -0.9620 ny        1 YY2     -0.678800
      6 CAM         1.6480    2.0340   -2.0580 c         1 YY2      0.530100
      7 OAN         1.4080    1.4350   -3.0950 o         1 YY2     -0.391100
      8 CAL         1.2730    3.4810   -1.7860 c3        1 YY2      0.067400
      9 OAG         2.3440    4.0910   -1.0600 os        1 YY2     -0.338900
     10 CAF         2.6120    5.4100   -1.3970 ca        1 YY2      0.091100
     11 CAE         3.9440    5.7810   -1.6430 ca        1 YY2      0.046400
     12 Cl1         5.1860    4.6390   -1.7260 cl        1 YY2     -0.014400
     13 CAD         4.2620    7.1370   -1.8020 ca        1 YY2     -0.127000
     14 CAC         3.2600    8.1070   -1.7460 ca        1 YY2     -0.130300
     15 CAK         3.6300    9.5520   -1.8270 c3        1 YY2      0.162100
     16 NAT         4.0120    9.9650   -3.2150 nz        1 YY2     -0.841600
     17 CAB         1.9240    7.7460   -1.5400 ca        1 YY2     -0.156000
     18 CAA         1.5960    6.3980   -1.3590 ca        1 YY2      0.139100
     19 OAH         0.3250    5.9210   -1.1620 os        1 YY2     -0.335900
     20 CAI        -0.7100    6.8920   -0.9700 c3        1 YY2      0.107700
     21 H1          2.1130   -1.4890   -1.2800 hc        1 YY2      0.081478
     22 H2          0.4700   -1.6040   -0.5280 hc        1 YY2      0.081478
     23 H3          0.6930   -0.6460   -2.0510 hc        1 YY2      0.081478
     24 H4         -0.4710    1.2430   -0.7680 hc        1 YY2      0.081478
     25 H5          0.2750    1.9010    0.7640 hc        1 YY2      0.081478
     26 H6         -0.5010    0.2660    0.7540 hc        1 YY2      0.081478
     27 H7          1.5050   -0.8680    1.6070 hc        1 YY2      0.081478
     28 H8          3.1290   -0.6170    0.8520 hc        1 YY2      0.081478
     29 H9          2.3170    0.7420    1.7610 hc        1 YY2      0.081478
     30 H10         2.7260    1.9590   -0.2860 hn        1 YY2      0.466800
     31 H11         0.3520    3.5110   -1.1360 h1        1 YY2      0.123700
     32 H12         1.0720    3.9930   -2.7650 h1        1 YY2      0.123700
     33 H13         5.3170    7.4250   -1.9460 ha        1 YY2      0.164000
     34 H14         2.7690   10.2080   -1.5000 hx        1 YY2      0.126200
     35 H15         4.5160    9.7620   -1.1540 hx        1 YY2      0.126200
     36 H16         4.3090   10.9480   -3.2180 hn        1 YY2      0.466133
     37 H17         4.7840    9.3810   -3.5570 hn        1 YY2      0.466133
     38 H19         1.1380    8.5160   -1.4880 ha        1 YY2      0.167000
     39 H20        -0.8540    7.4910   -1.9020 h1        1 YY2      0.070367
     40 H21        -1.6110    6.2590   -0.7620 h1        1 YY2      0.070367
     41 H22        -0.4750    7.5480   -0.0980 h1        1 YY2      0.070367
     42 HAO2        3.1150    0.7380   -1.3640 hn        1 YY2      0.466800
     43 HAT3        3.2160    9.8550   -3.8530 hn        1 YY2      0.466133
@<TRIPOS>BOND
     1    1    2 1   
     2    1   21 1   
     3    1   22 1   
     4    1   23 1   
     5    2    3 1   
     6    2    4 1   
     7    2    5 1   
     8    3   24 1   
     9    3   25 1   
    10    3   26 1   
    11    4   27 1   
    12    4   28 1   
    13    4   29 1   
    14    5    6 1   
    15    5   30 1   
    16    5   42 1   
    17    6    7 2   
    18    6    8 1   
    19    8    9 1   
    20    8   31 1   
    21    8   32 1   
    22    9   10 1   
    23   10   11 ar  
    24   10   18 ar  
    25   11   12 1   
    26   11   13 ar  
    27   13   14 ar  
    28   13   33 1   
    29   14   15 1   
    30   14   17 ar  
    31   15   16 1   
    32   15   34 1   
    33   15   35 1   
    34   16   36 1   
    35   16   37 1   
    36   16   43 1   
    37   17   18 ar  
    38   17   38 1   
    39   18   19 1   
    40   19   20 1   
    41   20   39 1   
    42   20   40 1   
    43   20   41 1   
@<TRIPOS>SUBSTRUCTURE
     1 YY2         1 TEMP              0 ****  ****    0 ROOT
