@<TRIPOS>MOLECULE
YY3
   71    74     1     0     0
SMALL
bcc


@<TRIPOS>ATOM
      1 C13        -1.0930   -1.0210   -0.8940 c3        1 YY3      0.085100
      2 N2          0.0620   -0.9030   -1.8250 nx        1 YY3     -0.674400
      3 C12        -0.0670    0.3120   -2.6630 c3        1 YY3      0.085100
      4 C11         1.3430   -0.9270   -1.0520 c3        1 YY3      0.109800
      5 C10         2.6140   -1.0540   -1.9150 c3        1 YY3      0.164800
      6 N1          2.6860   -2.3070   -2.6410 nh        1 YY3     -0.643000
      7 C28         4.0200   -2.8680   -2.7110 c3        1 YY3      0.170100
      8 C3          2.0660   -1.2830   -4.8210 ca        1 YY3     -0.168000
      9 C4          1.3510   -1.3180   -6.0140 ca        1 YY3      0.048100
     10 O1          1.3550   -0.1900   -6.8240 os        1 YY3     -0.354900
     11 C14         2.4400   -0.1540   -7.7570 c3        1 YY3      0.112700
     12 C2          1.9870   -2.3340   -3.8900 ca        1 YY3      0.036600
     13 C1          1.1880   -3.4670   -4.2240 ca        1 YY3      0.056600
     14 N           1.1390   -4.6160   -3.4010 ns        1 YY3     -0.470100
     15 C7          0.5910   -4.6670   -2.1360 c         1 YY3      0.708300
     16 O           0.0400   -3.6620   -1.6220 o         1 YY3     -0.702100
     17 C8          0.6700   -5.9660   -1.4190 ce        1 YY3     -0.250200
     18 C9         -0.0660   -6.2000   -0.3320 c2        1 YY3     -0.105000
     19 C6          0.4630   -3.4880   -5.4320 ca        1 YY3     -0.132000
     20 C5          0.5290   -2.4290   -6.3560 ca        1 YY3      0.169600
     21 N3         -0.2610   -2.3850   -7.5130 nu        1 YY3     -0.705300
     22 C15        -0.2940   -3.4470   -8.4610 ca        1 YY3      0.857900
     23 N5         -0.8240   -3.1100   -9.6950 nb        1 YY3     -0.740000
     24 N4          0.1510   -4.7040   -8.0960 nb        1 YY3     -0.762000
     25 C16         0.0170   -5.6630   -9.0330 ca        1 YY3      0.460200
     26 C17        -0.5250   -5.4340  -10.3010 ca        1 YY3     -0.403600
     27 C18        -0.9430   -4.1090  -10.6070 ca        1 YY3      0.600100
     28 C19        -1.4930   -3.8170  -11.9110 cc        1 YY3     -0.255000
     29 C26        -2.2350   -2.6440  -12.3340 ca        1 YY3     -0.049800
     30 C25        -2.6700   -1.4760  -11.7060 ca        1 YY3     -0.080000
     31 C24        -3.3860   -0.5420  -12.4410 ca        1 YY3     -0.149000
     32 C23        -3.6830   -0.7470  -13.8000 ca        1 YY3     -0.111000
     33 C22        -3.2750   -1.8940  -14.4630 ca        1 YY3     -0.133000
     34 C21        -2.5500   -2.8470  -13.7310 ca        1 YY3     -0.058200
     35 N6         -2.0100   -4.0830  -14.1290 na        1 YY3     -0.057400
     36 C27        -2.1350   -4.6660  -15.4250 c3        1 YY3      0.021600
     37 C20        -1.3870   -4.6600  -13.0320 cd        1 YY3     -0.049100
     38 H1         -1.0360   -2.0160   -0.3720 hx        1 YY3      0.098867
     39 H2         -1.0610   -0.1870   -0.1460 hx        1 YY3      0.098867
     40 H3         -2.0460   -0.9690   -1.4830 hx        1 YY3      0.098867
     41 H5          0.0270    1.2270   -2.0220 hx        1 YY3      0.098867
     42 H6         -1.0690    0.3100   -3.1690 hx        1 YY3      0.098867
     43 H7          0.7380    0.3110   -3.4480 hx        1 YY3      0.098867
     44 H8          1.2810   -1.8130   -0.3540 hx        1 YY3      0.103700
     45 H9          1.4110    0.0240   -0.4550 hx        1 YY3      0.103700
     46 H10         2.6990   -0.1470   -2.5800 h1        1 YY3      0.066200
     47 H11         3.4720   -1.0090   -1.1810 h1        1 YY3      0.066200
     48 H12         3.9750   -3.8400   -3.2680 h1        1 YY3      0.049367
     49 H13         4.3790   -3.0650   -1.6650 h1        1 YY3      0.049367
     50 H14         4.7530   -2.1900   -3.2270 h1        1 YY3      0.049367
     51 H15         2.7210   -0.4140   -4.6400 ha        1 YY3      0.151000
     52 H16         2.3770   -1.0200   -8.4590 h1        1 YY3      0.052367
     53 H17         2.2880    0.8130   -8.2990 h1        1 YY3      0.052367
     54 H18         3.4160   -0.1600   -7.2140 h1        1 YY3      0.052367
     55 H19         1.4570   -5.4600   -3.8250 hn        1 YY3      0.338500
     56 H20         1.3660   -6.7200   -1.8210 ha        1 YY3      0.147000
     57 H22        -0.7640   -5.4560    0.0800 ha        1 YY3      0.135500
     58 H23        -0.0150   -7.1570    0.2090 ha        1 YY3      0.135500
     59 H25        -0.1720   -4.3640   -5.6550 ha        1 YY3      0.182000
     60 H26        -0.3220   -1.4690   -7.9230 hn        1 YY3      0.455800
     61 H27         0.3710   -6.6670   -8.7330 h4        1 YY3      0.029100
     62 H28        -0.6310   -6.2460  -11.0280 ha        1 YY3      0.157000
     63 H29        -2.4490   -1.2980  -10.6440 ha        1 YY3      0.149000
     64 H30        -3.7330    0.3820  -11.9550 ha        1 YY3      0.132000
     65 H31        -4.2540    0.0190  -14.3460 ha        1 YY3      0.137000
     66 H32        -3.5100   -2.0540  -15.5240 ha        1 YY3      0.138000
     67 H33        -1.9910   -3.8740  -16.2090 h1        1 YY3      0.058700
     68 H34        -1.3600   -5.4660  -15.5590 h1        1 YY3      0.058700
     69 H35        -3.1570   -5.1190  -15.5520 h1        1 YY3      0.058700
     70 H36        -0.8910   -5.6310  -13.1200 h4        1 YY3      0.171000
     71 H21         0.0580   -1.7490   -2.4370 hn        1 YY3      0.494800
@<TRIPOS>BOND
     1    1    2 1   
     2    1   38 1   
     3    1   39 1   
     4    1   40 1   
     5    2    3 1   
     6    2    4 1   
     7    2   71 1   
     8    3   41 1   
     9    3   42 1   
    10    3   43 1   
    11    4    5 1   
    12    4   44 1   
    13    4   45 1   
    14    5    6 1   
    15    5   46 1   
    16    5   47 1   
    17    6    7 1   
    18    6   12 1   
    19    7   48 1   
    20    7   49 1   
    21    7   50 1   
    22    8    9 ar  
    23    8   12 ar  
    24    8   51 1   
    25    9   10 1   
    26    9   20 ar  
    27   10   11 1   
    28   11   52 1   
    29   11   53 1   
    30   11   54 1   
    31   12   13 ar  
    32   13   14 1   
    33   13   19 ar  
    34   14   15 1   
    35   14   55 1   
    36   15   16 2   
    37   15   17 1   
    38   17   18 2   
    39   17   56 1   
    40   18   57 1   
    41   18   58 1   
    42   19   20 ar  
    43   19   59 1   
    44   20   21 1   
    45   21   22 1   
    46   21   60 1   
    47   22   23 ar  
    48   22   24 ar  
    49   23   27 ar  
    50   24   25 ar  
    51   25   26 ar  
    52   25   61 1   
    53   26   27 ar  
    54   26   62 1   
    55   27   28 1   
    56   28   29 1   
    57   28   37 2   
    58   29   30 ar  
    59   29   34 ar  
    60   30   31 ar  
    61   30   63 1   
    62   31   32 ar  
    63   31   64 1   
    64   32   33 ar  
    65   32   65 1   
    66   33   34 ar  
    67   33   66 1   
    68   34   35 1   
    69   35   36 1   
    70   35   37 1   
    71   36   67 1   
    72   36   68 1   
    73   36   69 1   
    74   37   70 1   
@<TRIPOS>SUBSTRUCTURE
     1 YY3         1 TEMP              0 ****  ****    0 ROOT
