@<TRIPOS>MOLECULE
YY3
   71    74     1     0     0
SMALL
bcc


@<TRIPOS>ATOM
      1 C13        -1.0390   -1.0340   -0.8810 c3        1 YY3      0.085100
      2 N2          0.1110   -0.9250   -1.8180 n4        1 YY3     -0.674400
      3 C12        -0.0100    0.2950   -2.6500 c3        1 YY3      0.085100
      4 C11         1.3960   -0.9660   -1.0540 c3        1 YY3      0.109800
      5 C10         2.6600   -1.1030   -1.9250 c3        1 YY3      0.164800
      6 N1          2.7140   -2.3540   -2.6560 nh        1 YY3     -0.643000
      7 C28         4.0420   -2.9290   -2.7370 c3        1 YY3      0.170100
      8 C3          2.0920   -1.3130   -4.8280 ca        1 YY3     -0.168000
      9 C4          1.3700   -1.3350   -6.0160 ca        1 YY3      0.048100
     10 O1          1.3810   -0.2040   -6.8220 os        1 YY3     -0.354900
     11 C14         2.4600   -0.1770   -7.7620 c3        1 YY3      0.112700
     12 C2          2.0080   -2.3680   -3.9010 ca        1 YY3      0.036600
     13 C1          1.1940   -3.4910   -4.2350 ca        1 YY3      0.056600
     14 N           1.1370   -4.6430   -3.4170 n         1 YY3     -0.470100
     15 C7          0.5970   -4.6930   -2.1490 c         1 YY3      0.708300
     16 O           0.0600   -3.6840   -1.6270 o         1 YY3     -0.702100
     17 C8          0.6650   -5.9950   -1.4380 ce        1 YY3     -0.250200
     18 C9         -0.0680   -6.2270   -0.3480 c2        1 YY3     -0.105000
     19 C6          0.4610   -3.4980   -5.4380 ca        1 YY3     -0.132000
     20 C5          0.5330   -2.4360   -6.3580 ca        1 YY3      0.169600
     21 N3         -0.2630   -2.3780   -7.5100 nh        1 YY3     -0.705300
     22 C15        -0.3160   -3.4360   -8.4610 ca        1 YY3      0.857900
     23 N5         -0.8530   -3.0880   -9.6900 nb        1 YY3     -0.740000
     24 N4          0.1180   -4.6990   -8.1060 nb        1 YY3     -0.762000
     25 C16        -0.0340   -5.6530   -9.0440 ca        1 YY3      0.460200
     26 C17        -0.5850   -5.4130  -10.3070 ca        1 YY3     -0.403600
     27 C18        -0.9910   -4.0820  -10.6040 ca        1 YY3      0.600100
     28 C19        -1.5490   -3.7800  -11.9020 cc        1 YY3     -0.255000
     29 C26        -2.2870   -2.6000  -12.3130 ca        1 YY3     -0.049800
     30 C25        -2.7080   -1.4330  -11.6750 ca        1 YY3     -0.080000
     31 C24        -3.4260   -0.4910  -12.3990 ca        1 YY3     -0.149000
     32 C23        -3.7390   -0.6880  -13.7550 ca        1 YY3     -0.111000
     33 C22        -3.3450   -1.8350  -14.4270 ca        1 YY3     -0.133000
     34 C21        -2.6180   -2.7950  -13.7070 ca        1 YY3     -0.058200
     35 N6         -2.1030   -4.0400  -14.1120 na        1 YY3     -0.057400
     36 C27        -2.1670   -4.5750  -15.4330 c3        1 YY3      0.022600
     37 C20        -1.4590   -4.6190  -13.0280 cd        1 YY3     -0.049100
     38 H1         -0.9940   -0.2030   -0.1300 hx        1 YY3      0.098867
     39 H2         -0.9900   -2.0320   -0.3640 hx        1 YY3      0.098867
     40 H3         -1.9960   -0.9690   -1.4640 hx        1 YY3      0.098867
     41 H5          0.7910    0.2880   -3.4400 hx        1 YY3      0.098867
     42 H6         -1.0150    0.3060   -3.1500 hx        1 YY3      0.098867
     43 H7          0.0990    1.2060   -2.0060 hx        1 YY3      0.098867
     44 H8          1.3290   -1.8550   -0.3590 hx        1 YY3      0.103700
     45 H9          1.4790   -0.0180   -0.4530 hx        1 YY3      0.103700
     46 H10         2.7520   -0.1940   -2.5870 h1        1 YY3      0.066200
     47 H11         3.5240   -1.0710   -1.1960 h1        1 YY3      0.066200
     48 H12         3.9830   -3.8980   -3.2980 h1        1 YY3      0.049367
     49 H13         4.7790   -2.2570   -3.2550 h1        1 YY3      0.049367
     50 H14         4.4050   -3.1340   -1.6950 h1        1 YY3      0.049367
     51 H15         2.7580   -0.4530   -4.6480 ha        1 YY3      0.151000
     52 H16         3.4390   -0.1960   -7.2250 h1        1 YY3      0.052367
     53 H17         2.3150    0.7940   -8.2990 h1        1 YY3      0.052367
     54 H18         2.3820   -1.0390   -8.4670 h1        1 YY3      0.052367
     55 H19         1.4430   -5.4880   -3.8460 hn        1 YY3      0.338500
     56 H20         1.3510   -6.7550   -1.8470 ha        1 YY3      0.147000
     57 H22        -0.7550   -5.4770    0.0710 ha        1 YY3      0.135500
     58 H23        -0.0240   -7.1860    0.1880 ha        1 YY3      0.135500
     59 H25        -0.1850   -4.3660   -5.6610 ha        1 YY3      0.182000
     60 H26        -0.3170   -1.4600   -7.9160 hn        1 YY3      0.455800
     61 H27         0.3120   -6.6620   -8.7520 h4        1 YY3      0.029100
     62 H28        -0.7060   -6.2210  -11.0360 ha        1 YY3      0.157000
     63 H29        -2.4770   -1.2610  -10.6140 ha        1 YY3      0.149000
     64 H30        -3.7620    0.4330  -11.9050 ha        1 YY3      0.132000
     65 H31        -4.3100    0.0840  -14.2910 ha        1 YY3      0.137000
     66 H32        -3.5920   -1.9880  -15.4860 ha        1 YY3      0.138000
     67 H33        -1.3960   -4.0870  -16.0900 h1        1 YY3      0.058367
     68 H34        -3.1850   -4.3840  -15.8670 h1        1 YY3      0.058367
     69 H35        -1.9780   -5.6810  -15.4040 h1        1 YY3      0.058367
     70 H36        -0.9720   -5.5930  -13.1250 h4        1 YY3      0.171000
     71 H21         0.0940   -1.7680   -2.4340 hn        1 YY3      0.494800
@<TRIPOS>BOND
     1    1    2 1   
     2    1   38 1   
     3    1   39 1   
     4    1   40 1   
     5    2    3 1   
     6    2    4 1   
     7    2   71 1   
     8    3   41 1   
     9    3   42 1   
    10    3   43 1   
    11    4    5 1   
    12    4   44 1   
    13    4   45 1   
    14    5    6 1   
    15    5   46 1   
    16    5   47 1   
    17    6    7 1   
    18    6   12 1   
    19    7   48 1   
    20    7   49 1   
    21    7   50 1   
    22    8    9 ar  
    23    8   12 ar  
    24    8   51 1   
    25    9   10 1   
    26    9   20 ar  
    27   10   11 1   
    28   11   52 1   
    29   11   53 1   
    30   11   54 1   
    31   12   13 ar  
    32   13   14 1   
    33   13   19 ar  
    34   14   15 1   
    35   14   55 1   
    36   15   16 2   
    37   15   17 1   
    38   17   18 2   
    39   17   56 1   
    40   18   57 1   
    41   18   58 1   
    42   19   20 ar  
    43   19   59 1   
    44   20   21 1   
    45   21   22 1   
    46   21   60 1   
    47   22   23 ar  
    48   22   24 ar  
    49   23   27 ar  
    50   24   25 ar  
    51   25   26 ar  
    52   25   61 1   
    53   26   27 ar  
    54   26   62 1   
    55   27   28 1   
    56   28   29 1   
    57   28   37 2   
    58   29   30 ar  
    59   29   34 ar  
    60   30   31 ar  
    61   30   63 1   
    62   31   32 ar  
    63   31   64 1   
    64   32   33 ar  
    65   32   65 1   
    66   33   34 ar  
    67   33   66 1   
    68   34   35 1   
    69   35   36 1   
    70   35   37 1   
    71   36   67 1   
    72   36   68 1   
    73   36   69 1   
    74   37   70 1   
@<TRIPOS>SUBSTRUCTURE
     1 YY3         1 TEMP              0 ****  ****    0 ROOT
