@<TRIPOS>MOLECULE
YYA
   33    32     1     0     0
SMALL
bcc


@<TRIPOS>ATOM
      1 C           3.0850   -0.5210    0.3610 c         1 YYA      0.885600
      2 N           2.2210    1.3200   -1.1510 n3        1 YYA     -0.803200
      3 O           3.3320   -1.3670   -0.5500 o         1 YYA     -0.836800
      4 CA          1.9800    0.5460    0.0640 c3        1 YYA     -0.005500
      5 CB          0.6270   -0.1960    0.0180 c3        1 YYA      0.174100
      6 CH         -4.7400   -0.9850    0.2460 ce        1 YYA     -0.102000
      7 CT         -6.0140   -1.3570    0.3960 c2        1 YYA     -0.250000
      8 CZ         -4.3380    0.3020   -0.2830 ce        1 YYA     -0.196000
      9 CD2        -1.8680   -0.0840   -0.0700 c3        1 YYA     -0.064200
     10 OG1         0.5420   -1.0810   -1.0920 oh        1 YYA     -0.654800
     11 CG2        -0.5860    0.7430   -0.0780 c3        1 YYA     -0.060700
     12 OXT         3.6590   -0.4810    1.4800 o         1 YYA     -0.836800
     13 H1          2.1830    0.6810   -1.9290 hn        1 YYA      0.353800
     14 HA          1.9610    1.2660    0.9310 h1        1 YYA      0.056700
     15 HB          0.5490   -0.8030    0.9660 h1        1 YYA      0.030700
     16 HE         -2.8650    1.7090   -0.8460 ha        1 YYA      0.118000
     17 HH         -3.9180   -1.6690    0.5260 ha        1 YYA      0.127000
     18 HN          3.6520    2.4930   -2.1270 h1        1 YYA      0.020367
     19 HNA         3.5100    2.7530   -0.3280 h1        1 YYA      0.020367
     20 H8          4.3700    1.2830   -0.9620 h1        1 YYA      0.020367
     21 HT         -6.2900   -2.3390    0.7980 ha        1 YYA      0.102000
     22 HTA        -6.8570   -0.7090    0.1270 ha        1 YYA      0.102000
     23 HZ         -5.1610    0.9710   -0.5870 ha        1 YYA      0.108000
     24 HD1         0.2160    2.5010    0.9110 hc        1 YYA      0.029367
     25 HD1A       -1.5720    2.2750    1.1010 hc        1 YYA      0.029367
     26 HD1B       -0.4210    1.2300    2.0350 hc        1 YYA      0.029367
     27 HD2        -1.9960   -0.5520    0.9430 hc        1 YYA      0.063700
     28 HD2A       -1.7540   -0.9240   -0.8120 hc        1 YYA      0.063700
     29 HOG1        1.4100   -1.5130   -1.1780 ho        1 YYA      0.451000
     30 HG2        -0.5200    1.2930   -1.0570 hc        1 YYA      0.064700
     31 CD1        -0.5900    1.7430    1.0580 c3        1 YYA     -0.087100
     32 CN          3.5050    1.9800   -1.1410 c3        1 YYA      0.151100
     33 CE         -3.0670    0.7090   -0.4230 c2        1 YYA     -0.105200
@<TRIPOS>BOND
     1    1    3 1   
     2    1    4 1   
     3    1   12 1   
     4    2    4 1   
     5    2   13 1   
     6    2   32 1   
     7    4    5 1   
     8    4   14 1   
     9    5   10 1   
    10    5   11 1   
    11    5   15 1   
    12    6    7 2   
    13    6    8 1   
    14    6   17 1   
    15    7   21 1   
    16    7   22 1   
    17    8   23 1   
    18    8   33 2   
    19    9   11 1   
    20    9   27 1   
    21    9   28 1   
    22    9   33 1   
    23   10   29 1   
    24   11   30 1   
    25   11   31 1   
    26   16   33 1   
    27   18   32 1   
    28   19   32 1   
    29   20   32 1   
    30   24   31 1   
    31   25   31 1   
    32   26   31 1   
@<TRIPOS>SUBSTRUCTURE
     1 YYA         1 TEMP              0 ****  ****    0 ROOT
