@<TRIPOS>MOLECULE
YYG
   67    70     1     0     0
SMALL
bcc


@<TRIPOS>ATOM
      1 P           1.9310    1.7810   -6.9780 p5        1 YYG      1.429800
      2 OP1         1.4940    3.1720   -7.2400 o         1 YYG     -0.843000
      3 OP2         3.3270    1.3110   -6.9200 o         1 YYG     -0.843000
      4 OP3         1.0830    0.9180   -8.0790 oh        1 YYG     -0.781400
      5 O5'         1.1490    1.2770   -5.6120 os        1 YYG     -0.584200
      6 C5'        -0.1560    1.7330   -5.4220 c3        1 YYG      0.161400
      7 C4'        -1.1910    0.6080   -5.4920 c3        1 YYG      0.036100
      8 O4'        -0.7990   -0.5100   -4.6700 os        1 YYG     -0.396600
      9 C3'        -2.6010    1.0970   -5.0230 c3        1 YYG      0.364800
     10 O3'        -3.6040    0.7050   -5.7760 o         1 YYG     -0.860500
     11 C2'        -2.7070    0.4690   -3.5620 c3        1 YYG      0.022100
     12 O2'        -3.9240   -0.2130   -3.3970 oh        1 YYG     -0.660800
     13 C1'        -1.5390   -0.5540   -3.4640 c3        1 YYG      0.218800
     14 N9         -0.6110   -0.3340   -2.3430 na        1 YYG     -0.199900
     15 C8          0.6680    0.2690   -2.4660 cc        1 YYG      0.436400
     16 N7          1.3330    0.3420   -1.3000 nd        1 YYG     -0.626000
     17 C5          0.4800   -0.2420   -0.3560 cd        1 YYG      0.153800
     18 C6          0.7300   -0.4290    1.0530 c         1 YYG      0.563800
     19 O6          1.7240   -0.0780    1.7070 o         1 YYG     -0.621500
     20 N1         -0.3360   -1.1120    1.7140 n         1 YYG     -0.209000
     21 C2         -1.5120   -1.5890    1.0460 cc        1 YYG      0.657400
     22 N2         -2.3130   -2.3010    1.9040 nd        1 YYG     -0.717000
     23 N3         -1.8020   -1.2580   -0.2960 na        1 YYG     -0.571700
     24 C3         -2.8370   -2.0020   -0.9690 c3        1 YYG      0.170100
     25 C4         -0.7400   -0.6770   -1.0000 cc        1 YYG      0.068000
     26 C11        -1.6510   -2.2750    3.1370 cd        1 YYG      0.317600
     27 C12        -0.4410   -1.5560    3.0460 cc        1 YYG     -0.212900
     28 C13         0.5460   -1.3000    4.1140 c3        1 YYG      0.010900
     29 C14         0.5420    0.1570    4.5400 c3        1 YYG     -0.091400
     30 C15         1.2150    0.3490    5.9100 c3        1 YYG      0.075700
     31 C16         1.5580    1.8350    6.0400 c         1 YYG      0.600100
     32 O17         2.6720    2.3550    6.0340 o         1 YYG     -0.522000
     33 O18         0.4610    2.6420    6.1670 os        1 YYG     -0.444900
     34 C19         0.6980    4.0500    6.1870 c3        1 YYG      0.125700
     35 N20         0.3940   -0.1210    6.9990 n         1 YYG     -0.525900
     36 C21         0.9560   -0.6680    8.1290 c         1 YYG      0.734100
     37 O22         2.1170   -1.0690    8.3140 o         1 YYG     -0.584000
     38 O23         0.0390   -0.8190    9.1590 os        1 YYG     -0.448900
     39 C24         0.5310   -1.5100   10.3060 c3        1 YYG      0.140700
     40 H5'        -0.4160    2.5100   -6.1950 h1        1 YYG      0.029700
     41 H5''       -0.2070    2.2090   -4.4000 h1        1 YYG      0.029700
     42 H4'        -1.2380    0.1710   -6.5250 h1        1 YYG      0.080700
     43 H3'        -2.5450    2.2210   -4.8720 h1        1 YYG     -0.050300
     44 HO3'        0.2610    1.3370   -8.3030 ho        1 YYG      0.422000
     45 H2'        -2.6550    1.2500   -2.7650 h1        1 YYG      0.041700
     46 HO2'       -4.3390   -0.2710   -4.2870 ho        1 YYG      0.447000
     47 H1'        -1.9170   -1.6160   -3.3660 h2        1 YYG      0.059700
     48 H8          1.0350    0.5990   -3.4630 h5        1 YYG      0.143100
     49 H31        -3.6450   -2.2810   -0.2430 h1        1 YYG      0.072367
     50 H32        -3.2910   -1.3440   -1.7620 h1        1 YYG      0.072367
     51 H33        -2.4290   -2.9370   -1.4380 h1        1 YYG      0.072367
     52 H101       -1.4280   -3.6740    4.7310 hc        1 YYG      0.037033
     53 H102       -2.3490   -2.1670    5.1490 hc        1 YYG      0.037033
     54 H103       -3.1350   -3.4630    4.1510 hc        1 YYG      0.037033
     55 H131        1.5770   -1.5720    3.7570 hc        1 YYG      0.060700
     56 H132        0.2890   -1.9660    4.9810 hc        1 YYG      0.060700
     57 H141       -0.5030    0.5600    4.5670 hc        1 YYG      0.082700
     58 H142        1.1170    0.7560    3.7800 hc        1 YYG      0.082700
     59 H15         2.2000   -0.2130    5.9330 h1        1 YYG      0.120700
     60 H191       -0.3270    4.4920    6.2330 h1        1 YYG      0.049367
     61 H192        1.3010    4.3180    7.0880 h1        1 YYG      0.049367
     62 H193        1.2360    4.3600    5.2590 h1        1 YYG      0.049367
     63 HN20       -0.5360    0.2300    7.0560 hn        1 YYG      0.335500
     64 H241       -0.3520   -1.5340   10.9920 h1        1 YYG      0.047367
     65 H242        0.8590   -2.5380   10.0240 h1        1 YYG      0.047367
     66 H243        1.3850   -0.9460   10.7550 h1        1 YYG      0.047367
     67 C10        -2.1730   -2.9300    4.3500 c3        1 YYG     -0.108400
@<TRIPOS>BOND
     1    1    2 1   
     2    1    3 1   
     3    1    4 1   
     4    1    5 1   
     5    4   44 1   
     6    5    6 1   
     7    6    7 1   
     8    6   40 1   
     9    6   41 1   
    10    7    8 1   
    11    7    9 1   
    12    7   42 1   
    13    8   13 1   
    14    9   10 1   
    15    9   11 1   
    16    9   43 1   
    17   11   12 1   
    18   11   13 1   
    19   11   45 1   
    20   12   46 1   
    21   13   14 1   
    22   13   47 1   
    23   14   15 1   
    24   14   25 1   
    25   15   16 2   
    26   15   48 1   
    27   16   17 1   
    28   17   18 1   
    29   17   25 2   
    30   18   19 2   
    31   18   20 1   
    32   20   21 1   
    33   20   27 1   
    34   21   22 2   
    35   21   23 1   
    36   22   26 1   
    37   23   24 1   
    38   23   25 1   
    39   24   49 1   
    40   24   50 1   
    41   24   51 1   
    42   26   27 2   
    43   26   67 1   
    44   27   28 1   
    45   28   29 1   
    46   28   55 1   
    47   28   56 1   
    48   29   30 1   
    49   29   57 1   
    50   29   58 1   
    51   30   31 1   
    52   30   35 1   
    53   30   59 1   
    54   31   32 2   
    55   31   33 1   
    56   33   34 1   
    57   34   60 1   
    58   34   61 1   
    59   34   62 1   
    60   35   36 1   
    61   35   63 1   
    62   36   37 2   
    63   36   38 1   
    64   38   39 1   
    65   39   64 1   
    66   39   65 1   
    67   39   66 1   
    68   52   67 1   
    69   53   67 1   
    70   54   67 1   
@<TRIPOS>SUBSTRUCTURE
     1 YYG         1 TEMP              0 ****  ****    0 ROOT
