@<TRIPOS>MOLECULE
YYY
   36    37     1     0     0
SMALL
bcc


@<TRIPOS>ATOM
      1 O3B        -7.1700   -2.5450    3.0740 o         1 YYY     -0.887500
      2 PB         -6.8290   -1.2360    2.4830 p5        1 YYY      1.590800
      3 O1B        -7.8100   -0.1300    2.4360 o         1 YYY     -0.887500
      4 O2B        -6.3110   -1.4910    0.9460 oh        1 YYY     -0.807400
      5 O3A        -5.3780   -0.6750    3.0170 os        1 YYY     -0.832800
      6 PA         -4.0900    0.0310    3.7080 p5        1 YYY      1.602800
      7 O1A        -4.3590    0.3580    5.1200 o         1 YYY     -0.891000
      8 O2A        -3.5150    1.0050    2.7460 o         1 YYY     -0.891000
      9 O5'        -2.9740   -1.2000    3.7070 os        1 YYY     -0.590200
     10 C5'        -2.3810   -1.5470    2.4970 c3        1 YYY      0.216400
     11 C4'        -0.9590   -0.9700    2.3810 c3        1 YYY      0.082100
     12 O4'        -0.0300   -2.0400    2.1300 os        1 YYY     -0.425600
     13 C3'        -0.7840    0.0470    1.2310 c3        1 YYY      0.140100
     14 O3'        -0.7820    1.3830    1.6950 oh        1 YYY     -0.661800
     15 C2'         0.5860   -0.2680    0.6250 c3        1 YYY     -0.112400
     16 C1'         1.1140   -1.4850    1.4230 c3        1 YYY      0.315500
     17 N1          1.7900   -2.4940    0.6220 n         1 YYY     -0.315400
     18 C2          2.9860   -3.1050    1.1490 c         1 YYY      0.748500
     19 O2          3.4470   -2.7290    2.2650 o         1 YYY     -0.706100
     20 N3          3.6710   -4.0700    0.4060 ne        1 YYY     -0.817100
     21 C4          3.1630   -4.4110   -0.8090 cf        1 YYY      0.654500
     22 N4          3.8140   -5.4510   -1.5430 nh        1 YYY     -0.880800
     23 C5          2.0190   -3.7870   -1.3610 cf        1 YYY     -0.590700
     24 C6          1.3250   -2.8120   -0.6130 c1        1 YYY     -0.079900
     25 H5'1       -2.3150   -2.6700    2.4540 h1        1 YYY      0.029200
     26 H5'2       -3.0160   -1.1730    1.6450 h1        1 YYY      0.029200
     27 H4'        -0.6620   -0.4900    3.3550 h1        1 YYY      0.054700
     28 H3'        -1.5990   -0.0790    0.4670 h1        1 YYY      0.045700
     29 H1'         1.8370   -1.1410    2.2250 h2        1 YYY      0.061700
     30 HA         -1.6670    1.5400    2.0750 ho        1 YYY      0.473000
     31 H2'1        0.4810   -0.5130   -0.4600 hc        1 YYY      0.056700
     32 H2'2        1.2840    0.5950    0.7410 hc        1 YYY      0.056700
     33 H6         -5.4810   -1.0760    0.7520 ho        1 YYY      0.425000
     34 H4N1        3.8260   -5.2270   -2.5160 hn        1 YYY      0.344800
     35 H4N2        4.7400   -5.6440   -1.2190 hn        1 YYY      0.344800
     36 H5          1.6290   -4.0590   -2.3450 ha        1 YYY      0.106000
@<TRIPOS>BOND
     1    1    2 1   
     2    2    3 1   
     3    2    4 1   
     4    2    5 1   
     5    4   33 1   
     6    5    6 1   
     7    6    7 1   
     8    6    8 1   
     9    6    9 1   
    10    9   10 1   
    11   10   11 1   
    12   10   25 1   
    13   10   26 1   
    14   11   12 1   
    15   11   13 1   
    16   11   27 1   
    17   12   16 1   
    18   13   14 1   
    19   13   15 1   
    20   13   28 1   
    21   14   30 1   
    22   15   16 1   
    23   15   31 1   
    24   15   32 1   
    25   16   17 1   
    26   16   29 1   
    27   17   18 1   
    28   17   24 2   
    29   18   19 2   
    30   18   20 1   
    31   20   21 2   
    32   21   22 1   
    33   21   23 1   
    34   22   34 1   
    35   22   35 1   
    36   23   24 2   
    37   23   36 1   
@<TRIPOS>SUBSTRUCTURE
     1 YYY         1 TEMP              0 ****  ****    0 ROOT
