@<TRIPOS>MOLECULE
YYY
   37    38     1     0     0
SMALL
bcc


@<TRIPOS>ATOM
      1 O3B         0.0000    0.0000    0.0000 o         1 YYY     -0.512833
      2 PB          1.6170    0.0000    0.0000 p5        1 YYY      0.853900
      3 O1B         1.9940    0.0000    1.5720 o         1 YYY     -0.512833
      4 O2B         2.2560   -1.0870   -0.8130 o         1 YYY     -0.512833
      5 O3A         1.9840    1.5010   -0.4720 os        1 YYY     -0.500800
      6 PA          1.7430    2.2590   -1.8800 p5        1 YYY      0.917800
      7 O1A         2.6670    1.4240   -2.9130 o         1 YYY     -0.667000
      8 O2A         0.3000    2.3620   -2.2840 o         1 YYY     -0.667000
      9 O5'         2.5030    3.6770   -1.7140 os        1 YYY     -0.471200
     10 C5'         3.8690    3.7090   -1.3350 c3        1 YYY      0.271400
     11 C4'         4.3240    5.1600   -1.2550 c3        1 YYY      0.135100
     12 O4'         3.5490    5.8110   -0.2300 os        1 YYY     -0.386600
     13 C3'         5.7820    5.3020   -0.8430 c3        1 YYY      0.157100
     14 O3'         6.3100    6.5290   -1.3410 oh        1 YYY     -0.586800
     15 C2'         5.7070    5.3540    0.6660 c3        1 YYY     -0.100400
     16 C1'         4.3880    6.0700    0.9040 c3        1 YYY      0.233500
     17 N1          3.7240    5.6280    2.0970 n         1 YYY     -0.021000
     18 C2          3.8950    6.2880    3.3380 c         1 YYY      0.747900
     19 O2          4.6270    7.2750    3.4370 o         1 YYY     -0.771500
     20 N3          3.2220    5.8060    4.4480 nc        1 YYY     -0.734100
     21 C4          2.4410    4.7610    4.3620 cd        1 YYY     -0.040500
     22 N4          1.7820    4.2970    5.4770 nz        1 YYY      0.300400
     23 C5          2.2380    4.0420    3.0770 cd        1 YYY     -0.273600
     24 C6          2.8940    4.5220    2.0220 cc        1 YYY     -0.106400
     25 H5'1        4.4620    3.1820   -2.0730 h1        1 YYY     -0.006800
     26 H5'2        3.9880    3.2370   -0.3680 h1        1 YYY     -0.006800
     27 H4'         4.1620    5.6550   -2.2050 h1        1 YYY      0.035700
     28 H3'         6.3660    4.4520   -1.1750 h1        1 YYY      0.012700
     29 H1'         4.5720    7.1350    0.9700 h2        1 YYY      0.040700
     30 HA          7.0980    6.3570   -1.8290 ho        1 YYY      0.370000
     31 H2'1        5.6820    4.3540    1.0830 hc        1 YYY      0.036700
     32 H2'2        6.5330    5.9270    1.0710 hc        1 YYY      0.036700
     33 H6          2.7710    4.0280    1.0660 h4        1 YYY      0.183000
     34 H4N1        2.1860    3.4290    5.7670 hn        1 YYY      0.133133
     35 H4N2        0.8150    4.1590    5.2590 hn        1 YYY      0.133133
     36 H5          1.8920    3.0160    3.0790 ha        1 YYY      0.146000
     37 H43         1.8650    4.9670    6.2160 hn        1 YYY      0.133133
@<TRIPOS>BOND
     1    1    2 1   
     2    2    3 1   
     3    2    4 1   
     4    2    5 1   
     5    5    6 1   
     6    6    7 1   
     7    6    8 1   
     8    6    9 1   
     9    9   10 1   
    10   10   11 1   
    11   10   25 1   
    12   10   26 1   
    13   11   12 1   
    14   11   13 1   
    15   11   27 1   
    16   12   16 1   
    17   13   14 1   
    18   13   15 1   
    19   13   28 1   
    20   14   30 1   
    21   15   16 1   
    22   15   31 1   
    23   15   32 1   
    24   16   17 1   
    25   16   29 1   
    26   17   18 1   
    27   17   24 1   
    28   18   19 2   
    29   18   20 1   
    30   20   21 2   
    31   21   22 1   
    32   21   23 1   
    33   22   34 1   
    34   22   35 1   
    35   22   37 1   
    36   23   24 2   
    37   23   36 1   
    38   24   33 1   
@<TRIPOS>SUBSTRUCTURE
     1 YYY         1 TEMP              0 ****  ****    0 ROOT
