@<TRIPOS>MOLECULE
YZ6
   68    69     1     0     0
SMALL
bcc


@<TRIPOS>ATOM
      1 O4          3.4830   -2.0610   -0.1270 o         1 YZ6     -0.415100
      2 C11         2.9610   -0.9670   -0.2590 c         1 YZ6      0.548100
      3 C07         2.4070   -0.0810    0.8610 c3        1 YZ6      0.055100
      4 O6          1.0910    0.3000    0.4990 os        1 YZ6     -0.434600
      5 C25         0.0730   -0.2190    1.3550 c3        1 YZ6      0.108700
      6 C06         3.2560    1.2090    0.9990 c3        1 YZ6      0.102100
      7 O2          4.4170    1.0680    0.2010 oh        1 YZ6     -0.649800
      8 C05         3.5390    1.4890    2.4900 c3        1 YZ6      0.118100
      9 O3          4.0570    0.3260    3.0960 oh        1 YZ6     -0.600800
     10 C04         4.4550    2.7260    2.6360 c3        1 YZ6      0.165300
     11 O1          5.7830    2.2540    2.4670 oh        1 YZ6     -0.639800
     12 C03         4.1620    3.4770    3.8860 c2        1 YZ6     -0.251200
     13 C02         4.7130    3.5170    5.1000 c2        1 YZ6     -0.089200
     14 C01         5.8500    2.8010    5.7600 c3        1 YZ6     -0.033800
     15 C10         5.9790    1.3430    5.3480 c3        1 YZ6     -0.091100
     16 C09         7.1520    3.5450    5.4820 c3        1 YZ6     -0.091100
     17 C08         5.6040    2.8320    7.2740 c3        1 YZ6     -0.091100
     18 N           2.8500   -0.3870   -1.6410 ny        1 YZ6     -0.665800
     19 C12         3.0350   -1.3840   -2.7320 c3        1 YZ6      0.109800
     20 C13         3.1300   -0.7490   -4.1100 c3        1 YZ6     -0.105400
     21 C14         1.8350   -0.0820   -4.5680 c3        1 YZ6     -0.041700
     22 C16         1.5620    1.1940   -3.8660 cc        1 YZ6      0.181000
     23 C19         0.4050    1.9260   -3.6790 cd        1 YZ6     -0.211300
     24 C18         0.7860    3.1570   -3.0200 cd        1 YZ6     -0.247300
     25 C17         2.1520    3.1060   -2.8420 cc        1 YZ6      0.241600
     26 O5          2.6620    1.9070   -3.3480 os        1 YZ6     -0.411800
     27 C15         1.8940    0.1300   -6.0540 ca        1 YZ6     -0.112300
     28 C24         1.0970   -0.6480   -6.9000 ca        1 YZ6     -0.116500
     29 C23         1.1590   -0.4630   -8.2810 ca        1 YZ6     -0.121000
     30 C22         2.0130    0.4990   -8.8220 ca        1 YZ6     -0.108000
     31 C21         2.8060    1.2790   -7.9790 ca        1 YZ6     -0.121000
     32 C20         2.7470    1.0970   -6.5990 ca        1 YZ6     -0.116500
     33 H1          2.4440   -0.6880    1.8120 h1        1 YZ6      0.141700
     34 H2          0.0630   -1.3350    1.3140 h1        1 YZ6      0.062033
     35 H3         -0.8710    0.2070    0.9290 h1        1 YZ6      0.062033
     36 H4          0.2310    0.1360    2.4030 h1        1 YZ6      0.062033
     37 H5          2.6740    2.0710    0.5600 h1        1 YZ6      0.090700
     38 H6          5.2020    1.0750    0.7700 ho        1 YZ6      0.462000
     39 H7          2.5550    1.6820    3.0050 h1        1 YZ6      0.097700
     40 H8          5.0250    0.3640    3.0790 ho        1 YZ6      0.439000
     41 H9          4.2460    3.4210    1.7640 h1        1 YZ6      0.055700
     42 H10         6.3750    2.8610    2.9290 ho        1 YZ6      0.447000
     43 H11         3.2900    4.1450    3.7230 ha        1 YZ6      0.129000
     44 H12         4.2450    4.2470    5.7990 ha        1 YZ6      0.132000
     45 H13         6.5990    0.7900    6.0960 hc        1 YZ6      0.043367
     46 H14         6.4800    1.2440    4.3560 hc        1 YZ6      0.043367
     47 H15         4.9720    0.8620    5.2980 hc        1 YZ6      0.043367
     48 H16         7.0680    4.6080    5.8120 hc        1 YZ6      0.043367
     49 H17         7.9870    3.0610    6.0450 hc        1 YZ6      0.043367
     50 H18         7.4090    3.5300    4.3970 hc        1 YZ6      0.043367
     51 H19         5.5340    3.8850    7.6390 hc        1 YZ6      0.043367
     52 H20         6.4470    2.3310    7.8070 hc        1 YZ6      0.043367
     53 H21         4.6560    2.2990    7.5210 hc        1 YZ6      0.043367
     54 H22         3.5630    0.3610   -1.7280 hn        1 YZ6      0.481300
     55 H23         2.1680   -2.1040   -2.6860 hx        1 YZ6      0.105700
     56 H24         3.9830   -1.9580   -2.5150 hx        1 YZ6      0.105700
     57 H25         3.9700   -0.0050   -4.1520 hc        1 YZ6      0.095700
     58 H26         3.3800   -1.5780   -4.8280 hc        1 YZ6      0.095700
     59 H27         0.9700   -0.7740   -4.3380 hc        1 YZ6      0.070700
     60 H28        -0.6060    1.6540   -3.9770 ha        1 YZ6      0.180000
     61 H29         0.1070    3.9610   -2.7410 ha        1 YZ6      0.181000
     62 H30         2.9050    3.7720   -2.4290 h4        1 YZ6      0.065100
     63 H31         0.4180   -1.4060   -6.4830 ha        1 YZ6      0.133500
     64 H32         0.5310   -1.0760   -8.9440 ha        1 YZ6      0.145500
     65 H33         2.0590    0.6440   -9.9120 ha        1 YZ6      0.147000
     66 H34         3.4770    2.0420   -8.4030 ha        1 YZ6      0.145500
     67 H35         3.3620    1.7190   -5.9300 ha        1 YZ6      0.133500
     68 HN3         1.9290    0.0680   -1.7350 hn        1 YZ6      0.481300
@<TRIPOS>BOND
     1    1    2 2   
     2    2    3 1   
     3    2   18 1   
     4    3    4 1   
     5    3    6 1   
     6    3   33 1   
     7    4    5 1   
     8    5   34 1   
     9    5   35 1   
    10    5   36 1   
    11    6    7 1   
    12    6    8 1   
    13    6   37 1   
    14    7   38 1   
    15    8    9 1   
    16    8   10 1   
    17    8   39 1   
    18    9   40 1   
    19   10   11 1   
    20   10   12 1   
    21   10   41 1   
    22   11   42 1   
    23   12   13 2   
    24   12   43 1   
    25   13   14 1   
    26   13   44 1   
    27   14   15 1   
    28   14   16 1   
    29   14   17 1   
    30   15   45 1   
    31   15   46 1   
    32   15   47 1   
    33   16   48 1   
    34   16   49 1   
    35   16   50 1   
    36   17   51 1   
    37   17   52 1   
    38   17   53 1   
    39   18   19 1   
    40   18   54 1   
    41   18   68 1   
    42   19   20 1   
    43   19   55 1   
    44   19   56 1   
    45   20   21 1   
    46   20   57 1   
    47   20   58 1   
    48   21   22 1   
    49   21   27 1   
    50   21   59 1   
    51   22   23 2   
    52   22   26 1   
    53   23   24 1   
    54   23   60 1   
    55   24   25 2   
    56   24   61 1   
    57   25   26 1   
    58   25   62 1   
    59   27   28 ar  
    60   27   32 ar  
    61   28   29 ar  
    62   28   63 1   
    63   29   30 ar  
    64   29   64 1   
    65   30   31 ar  
    66   30   65 1   
    67   31   32 ar  
    68   31   66 1   
    69   32   67 1   
@<TRIPOS>SUBSTRUCTURE
     1 YZ6         1 TEMP              0 ****  ****    0 ROOT
