@<TRIPOS>MOLECULE
YZ6
   67    68     1     0     0
SMALL
bcc


@<TRIPOS>ATOM
      1 O4          0.7860   -2.6570    1.9270 o         1 YZ6     -0.622100
      2 C11         0.2240   -2.0090    1.0180 c         1 YZ6      0.634100
      3 C07        -1.3080   -1.8700    1.0610 c3        1 YZ6      0.041100
      4 O6         -1.8920   -3.0850    0.6010 os        1 YZ6     -0.413600
      5 C25        -1.8800   -4.1270    1.5690 c3        1 YZ6      0.105700
      6 C06        -1.9010   -0.7630    0.1700 c3        1 YZ6      0.148100
      7 O2         -1.1990    0.4520    0.3320 oh        1 YZ6     -0.597800
      8 C05        -3.3970   -0.5860    0.4950 c3        1 YZ6      0.077100
      9 O3         -3.4380    0.2460    1.6480 oh        1 YZ6     -0.620800
     10 C04        -4.1470    0.0500   -0.6920 c3        1 YZ6      0.148300
     11 O1         -3.4740    1.1920   -1.1880 oh        1 YZ6     -0.588800
     12 C03        -5.5670    0.3360   -0.3140 c2        1 YZ6     -0.245200
     13 C02        -6.1870    1.4820   -0.6010 c2        1 YZ6     -0.117200
     14 C01        -7.6120    1.8150   -0.2880 c3        1 YZ6     -0.029800
     15 C10        -7.6370    3.0620    0.5910 c3        1 YZ6     -0.085100
     16 C09        -8.3360    2.1110   -1.5980 c3        1 YZ6     -0.085100
     17 C08        -8.3340    0.6860    0.4330 c3        1 YZ6     -0.085100
     18 N           0.9220   -1.4910   -0.0480 n         1 YZ6     -0.535900
     19 C12         2.3590   -1.5240   -0.1030 c3        1 YZ6      0.078000
     20 C13         3.0430   -0.2150    0.2980 c3        1 YZ6     -0.101400
     21 C14         4.5570   -0.3360    0.1450 c3        1 YZ6     -0.041700
     22 C16         4.9630   -0.4960   -1.2710 cc        1 YZ6      0.248000
     23 C19         5.9060   -1.3000   -1.8860 cd        1 YZ6     -0.254300
     24 C18         5.8460   -1.0070   -3.3010 cd        1 YZ6     -0.260300
     25 C17         4.8730   -0.0440   -3.4640 cc        1 YZ6      0.234600
     26 O5          4.3120    0.2910   -2.2320 os        1 YZ6     -0.365800
     27 C15         5.2290    0.8470    0.7790 ca        1 YZ6     -0.082300
     28 C24         5.9270    0.6890    1.9810 ca        1 YZ6     -0.118500
     29 C23         6.5390    1.7870    2.5860 ca        1 YZ6     -0.130500
     30 C22         6.4600    3.0470    1.9940 ca        1 YZ6     -0.128000
     31 C21         5.7670    3.2080    0.7940 ca        1 YZ6     -0.130500
     32 C20         5.1540    2.1140    0.1880 ca        1 YZ6     -0.118500
     33 H1         -1.5870   -1.6730    2.1350 h1        1 YZ6      0.079700
     34 H2         -2.2730   -5.0140    1.0130 h1        1 YZ6      0.048367
     35 H3         -0.8420   -4.3150    1.9400 h1        1 YZ6      0.048367
     36 H4         -2.5540   -3.8630    2.4210 h1        1 YZ6      0.048367
     37 H5         -1.7890   -1.0250   -0.9200 h1        1 YZ6      0.103700
     38 H6         -1.3390    0.7570    1.2390 ho        1 YZ6      0.424000
     39 H7         -3.8580   -1.5850    0.7310 h1        1 YZ6      0.069700
     40 H8         -4.3610    0.4900    1.7920 ho        1 YZ6      0.423000
     41 H9         -4.1410   -0.6760   -1.5590 h1        1 YZ6      0.087700
     42 H10        -3.0960    1.6590   -0.4290 ho        1 YZ6      0.415000
     43 H11        -6.0750   -0.5030    0.1880 ha        1 YZ6      0.127000
     44 H12        -5.6400    2.2910   -1.1210 ha        1 YZ6      0.138000
     45 H13        -7.1270    3.9110    0.0750 hc        1 YZ6      0.037367
     46 H14        -8.6930    3.3560    0.8040 hc        1 YZ6      0.037367
     47 H15        -7.1180    2.8660    1.5580 hc        1 YZ6      0.037367
     48 H16        -8.3290    1.2100   -2.2560 hc        1 YZ6      0.037367
     49 H17        -9.3950    2.3970   -1.3920 hc        1 YZ6      0.037367
     50 H18        -7.8370    2.9510   -2.1360 hc        1 YZ6      0.037367
     51 H19        -7.8300    0.4550    1.4020 hc        1 YZ6      0.037367
     52 H20        -9.3890    0.9840    0.6450 hc        1 YZ6      0.037367
     53 H21        -8.3460   -0.2360   -0.1970 hc        1 YZ6      0.037367
     54 H22         0.4750   -0.8030   -0.6140 hn        1 YZ6      0.323500
     55 H23         2.7280   -2.3540    0.5650 h1        1 YZ6      0.066700
     56 H24         2.6510   -1.7670   -1.1670 h1        1 YZ6      0.066700
     57 H25         2.6750    0.6310   -0.3380 hc        1 YZ6      0.060700
     58 H26         2.8060    0.0280    1.3670 hc        1 YZ6      0.060700
     59 H27         4.8940   -1.2740    0.6810 hc        1 YZ6      0.072700
     60 H28         6.5710   -2.0170   -1.4140 ha        1 YZ6      0.162000
     61 H29         6.4600   -1.4690   -4.0690 ha        1 YZ6      0.161000
     62 H30         4.4540    0.4970   -4.3070 h4        1 YZ6      0.052100
     63 H31         5.9930   -0.3020    2.4540 ha        1 YZ6      0.138000
     64 H32         7.0850    1.6560    3.5310 ha        1 YZ6      0.131500
     65 H33         6.9440    3.9110    2.4710 ha        1 YZ6      0.131000
     66 H34         5.7050    4.2000    0.3230 ha        1 YZ6      0.131500
     67 H35         4.6110    2.2340   -0.7630 ha        1 YZ6      0.138000
@<TRIPOS>BOND
     1    1    2 2   
     2    2    3 1   
     3    2   18 1   
     4    3    4 1   
     5    3    6 1   
     6    3   33 1   
     7    4    5 1   
     8    5   34 1   
     9    5   35 1   
    10    5   36 1   
    11    6    7 1   
    12    6    8 1   
    13    6   37 1   
    14    7   38 1   
    15    8    9 1   
    16    8   10 1   
    17    8   39 1   
    18    9   40 1   
    19   10   11 1   
    20   10   12 1   
    21   10   41 1   
    22   11   42 1   
    23   12   13 2   
    24   12   43 1   
    25   13   14 1   
    26   13   44 1   
    27   14   15 1   
    28   14   16 1   
    29   14   17 1   
    30   15   45 1   
    31   15   46 1   
    32   15   47 1   
    33   16   48 1   
    34   16   49 1   
    35   16   50 1   
    36   17   51 1   
    37   17   52 1   
    38   17   53 1   
    39   18   19 1   
    40   18   54 1   
    41   19   20 1   
    42   19   55 1   
    43   19   56 1   
    44   20   21 1   
    45   20   57 1   
    46   20   58 1   
    47   21   22 1   
    48   21   27 1   
    49   21   59 1   
    50   22   23 2   
    51   22   26 1   
    52   23   24 1   
    53   23   60 1   
    54   24   25 2   
    55   24   61 1   
    56   25   26 1   
    57   25   62 1   
    58   27   28 ar  
    59   27   32 ar  
    60   28   29 ar  
    61   28   63 1   
    62   29   30 ar  
    63   29   64 1   
    64   30   31 ar  
    65   30   65 1   
    66   31   32 ar  
    67   31   66 1   
    68   32   67 1   
@<TRIPOS>SUBSTRUCTURE
     1 YZ6         1 TEMP              0 ****  ****    0 ROOT
