@<TRIPOS>MOLECULE
YZ9
   27    28     1     0     0
SMALL
bcc


@<TRIPOS>ATOM
      1 C3          0.9430   -0.0340    5.4890 c3        1 YZ9     -0.101100
      2 C11        -0.3130   -0.0470    4.6540 c3        1 YZ9      0.140400
      3 O1         -2.0370   -0.0510    2.7050 o         1 YZ9     -0.558000
      4 O2          0.1260   -0.0120    3.2800 os        1 YZ9     -0.405900
      5 C6         -1.7510    0.0510   -2.5180 ca        1 YZ9     -0.024000
      6 C5         -1.2960    0.0170   -0.0650 cc        1 YZ9      0.078800
      7 C4          1.0310    0.1230   -2.9980 ca        1 YZ9     -0.257000
      8 O3          1.4640    0.0910   -0.6820 os        1 YZ9     -0.331200
      9 C2         -0.8570    0.0520   -1.4280 ca        1 YZ9     -0.219800
     10 C1          0.5300    0.0880   -1.6850 ca        1 YZ9      0.218100
     11 C7          1.0440    0.0570    0.6590 c         1 YZ9      0.740800
     12 C12        -0.8560   -0.0170    2.3370 c         1 YZ9      0.656300
     13 O4          0.4990    0.1540   -5.3630 oh        1 YZ9     -0.483100
     14 O5          2.0220    0.0660    1.3980 o         1 YZ9     -0.526500
     15 C10        -1.2840    0.0860   -3.8160 ca        1 YZ9     -0.189000
     16 C9         -0.3840    0.0190    0.9470 cd        1 YZ9     -0.269400
     17 C8          0.1130    0.1220   -4.0500 ca        1 YZ9      0.193100
     18 H31         0.6610   -0.0600    6.5690 hc        1 YZ9      0.050700
     19 H32         1.5800   -0.9190    5.2530 hc        1 YZ9      0.050700
     20 H33         1.5390    0.8880    5.2860 hc        1 YZ9      0.050700
     21 H111       -0.9180   -0.9780    4.8130 h1        1 YZ9      0.051700
     22 H112       -0.9590    0.8490    4.8460 h1        1 YZ9      0.051700
     23 H6         -2.8350    0.0230   -2.3200 ha        1 YZ9      0.148000
     24 H5         -2.3790   -0.0110    0.1530 ha        1 YZ9      0.172000
     25 H4          2.1160    0.1510   -3.1700 ha        1 YZ9      0.166000
     26 HO4         1.4690    0.1770   -5.3980 ho        1 YZ9      0.432000
     27 H10        -1.9680    0.0860   -4.6760 ha        1 YZ9      0.163000
@<TRIPOS>BOND
     1    1    2 1   
     2    1   18 1   
     3    1   19 1   
     4    1   20 1   
     5    2    4 1   
     6    2   21 1   
     7    2   22 1   
     8    3   12 2   
     9    4   12 1   
    10    5    9 ar  
    11    5   15 ar  
    12    5   23 1   
    13    6    9 1   
    14    6   16 2   
    15    6   24 1   
    16    7   10 ar  
    17    7   17 ar  
    18    7   25 1   
    19    8   10 1   
    20    8   11 1   
    21    9   10 ar  
    22   11   14 2   
    23   11   16 1   
    24   12   16 1   
    25   13   17 1   
    26   13   26 1   
    27   15   17 ar  
    28   15   27 1   
@<TRIPOS>SUBSTRUCTURE
     1 YZ9         1 TEMP              0 ****  ****    0 ROOT
