@<TRIPOS>MOLECULE
YZ9
   27    28     1     0     0
SMALL
bcc


@<TRIPOS>ATOM
      1 C3          0.0550   -0.0380    0.1060 c3        1 YZ9     -0.101100
      2 C11         1.5610   -0.0080    0.0270 c3        1 YZ9      0.140400
      3 O1          4.1060    0.0400    0.5620 o         1 YZ9     -0.558000
      4 O2          2.0280   -0.0080    1.3910 os        1 YZ9     -0.405900
      5 C6          6.9920    0.0740    4.9270 ca        1 YZ9     -0.024000
      6 C5          5.1640    0.0450    3.2290 cc        1 YZ9      0.078800
      7 C4          5.0460    0.0150    6.9730 ca        1 YZ9     -0.257000
      8 O3          3.3170   -0.0120    5.3710 os        1 YZ9     -0.331200
      9 C2          5.6240    0.0460    4.5850 ca        1 YZ9     -0.219800
     10 C1          4.6640    0.0160    5.6200 ca        1 YZ9      0.218100
     11 C7          2.8540   -0.0130    4.0440 c         1 YZ9      0.740800
     12 C12         3.3780    0.0180    1.5630 c         1 YZ9      0.656300
     13 O4          6.8820    0.0450    8.5540 oh        1 YZ9     -0.483100
     14 O5          1.6290   -0.0410    4.0340 o         1 YZ9     -0.526500
     15 C10         7.3910    0.0730    6.2480 ca        1 YZ9     -0.189000
     16 C9          3.8280    0.0170    2.9610 cd        1 YZ9     -0.269400
     17 C8          6.4090    0.0440    7.2690 ca        1 YZ9      0.193100
     18 H31        -0.3620   -0.0400   -0.9290 hc        1 YZ9      0.050700
     19 H32        -0.3270    0.8560    0.6550 hc        1 YZ9      0.050700
     20 H33        -0.2910   -0.9520    0.6440 hc        1 YZ9      0.050700
     21 H111        1.9760   -0.9100   -0.4940 h1        1 YZ9      0.051700
     22 H112        1.9400    0.9170   -0.4820 h1        1 YZ9      0.051700
     23 H6          7.7430    0.0970    4.1220 ha        1 YZ9      0.148000
     24 H5          5.9030    0.0680    2.4080 ha        1 YZ9      0.172000
     25 H4          4.2780   -0.0080    7.7580 ha        1 YZ9      0.166000
     26 HO4         6.1250    0.0230    9.1610 ho        1 YZ9      0.432000
     27 H10         8.4530    0.0950    6.5300 ha        1 YZ9      0.163000
@<TRIPOS>BOND
     1    1    2 1   
     2    1   18 1   
     3    1   19 1   
     4    1   20 1   
     5    2    4 1   
     6    2   21 1   
     7    2   22 1   
     8    3   12 2   
     9    4   12 1   
    10    5    9 ar  
    11    5   15 ar  
    12    5   23 1   
    13    6    9 1   
    14    6   16 2   
    15    6   24 1   
    16    7   10 ar  
    17    7   17 ar  
    18    7   25 1   
    19    8   10 1   
    20    8   11 1   
    21    9   10 ar  
    22   11   14 2   
    23   11   16 1   
    24   12   16 1   
    25   13   17 1   
    26   13   26 1   
    27   15   17 ar  
    28   15   27 1   
@<TRIPOS>SUBSTRUCTURE
     1 YZ9         1 TEMP              0 ****  ****    0 ROOT
