@<TRIPOS>MOLECULE
YZE
   51    47     1     0     0
SMALL
bcc


@<TRIPOS>ATOM
      1 C2          0.0720    4.4920   -7.9870 c1        1 YZE     -0.202500
      2 C4          0.1570    4.4180   -6.6340 c1        1 YZE     -0.202500
      3 C5         -0.9850    3.8080   -5.8340 c2        1 YZE     -0.161000
      4 C6         -0.9230    4.3020   -4.4040 c3        1 YZE     -0.052000
      5 C7         -1.7030    5.5640   -4.2820 c2        1 YZE      0.335000
      6 O8         -2.9550    5.5400   -4.3800 o         1 YZE     -0.577500
      7 O9         -1.1080    6.6540   -4.1000 o         1 YZE     -0.577500
      8 N10        -1.4870    3.2970   -3.5150 n         1 YZE     -0.331000
      9 C11        -0.9090    3.0930   -2.1700 c2        1 YZE      0.349000
     10 N12        -1.3520    1.9930   -1.3570 n         1 YZE     -0.333000
     11 C13        -0.6840    1.6930   -0.1470 c3        1 YZE     -0.034000
     12 C14        -1.3940    0.5190    0.5520 c3        1 YZE     -0.177000
     13 C15        -0.9130    0.4160    1.9880 c3        1 YZE     -0.155000
     14 C16        -1.0690   -1.0270    2.4740 c3        1 YZE     -0.190000
     15 C17        -0.1400   -1.2690    3.6670 c3        1 YZE     -0.029000
     16 N18         0.1260   -2.7130    3.7960 n         1 YZE     -0.343000
     17 C19         1.2150   -3.1670    4.5940 c2        1 YZE      0.334000
     18 C20         1.6850   -4.6160    4.4920 c2        1 YZE     -0.101000
     19 C21         2.7930   -5.0390    5.2160 c2        1 YZE     -0.098000
     20 C22         3.1670   -6.3780    5.1950 c1        1 YZE     -0.143000
     21 C23         2.4360   -7.2900    4.4520 c1        1 YZE     -0.249000
     22 I24         3.0630   -9.3010    4.3350 i         1 YZE      0.082000
     23 C25         1.3270   -6.8670    3.7260 c1        1 YZE     -0.107000
     24 C26         0.9530   -5.5300    3.7470 c2        1 YZE     -0.071000
     25 O27         1.8030   -2.3960    5.3000 o         1 YZE     -0.432000
     26 C28         0.7370    1.3180   -0.4420 c2        1 YZE      0.326000
     27 O29         1.6810    1.9970    0.0460 o         1 YZE     -0.592500
     28 O30         0.9860    0.4080   -1.2730 o         1 YZE     -0.592500
     29 O31        -0.0710    3.8670   -1.7440 o         1 YZE     -0.448000
     30 H2         -0.7240    4.1510   -8.4500 DU        1 YZE      0.121000
     31 H2A         0.8050    4.8830   -8.5010 ha        1 YZE      0.122500
     32 H4          0.9560    4.7610   -6.1710 ha        1 YZE      0.122500
     33 H5         -0.9080    2.8410   -5.8460 ha        1 YZE      0.090500
     34 H5A        -1.8500    4.0760   -6.2390 ha        1 YZE      0.090500
     35 H6          0.0010    4.4690   -4.1580 h1        1 YZE      0.101000
     36 HN10       -2.1670    2.7470   -3.8130 hn        1 YZE      0.222000
     37 HN12       -2.0190    1.4640   -1.6440 hn        1 YZE      0.211000
     38 H13        -0.6980    2.4830    0.4410 h1        1 YZE      0.109000
     39 H14        -2.3600    0.6710    0.5420 hc        1 YZE      0.082500
     40 H15        -1.4460    1.0120    2.5550 hc        1 YZE      0.079500
     41 H16        -2.0010   -1.1830    2.7470 hc        1 YZE      0.095500
     42 H16A       -0.8340   -1.6390    1.7520 hc        1 YZE      0.095500
     43 H17        -0.5710   -0.9390    4.4910 h1        1 YZE      0.077500
     44 H17A        0.7070   -0.7910    3.5260 h1        1 YZE      0.077500
     45 HN18       -0.4330   -3.3190    3.3990 hn        1 YZE      0.285000
     46 H21         3.2540   -4.4130    5.8110 ha        1 YZE      0.141000
     47 H22         3.9490   -6.6770    5.7070 ha        1 YZE      0.122000
     48 H25         0.8110   -7.5120    3.2000 DU        1 YZE      0.121000
     49 H26         0.1880   -5.2300    3.2240 ha        1 YZE      0.244000
     50 H23        -1.1900   -0.3120    0.0810 hc        1 YZE      0.082500
     51 H24         0.0200    0.6740    2.0360 hc        1 YZE      0.079500
@<TRIPOS>BOND
     1    1    2 1   
     2    1   31 1   
     3    2   32 1   
     4    3    4 1   
     5    3   33 1   
     6    3   34 1   
     7    4    5 1   
     8    4    8 1   
     9    4   35 1   
    10    5    6 1   
    11    5    7 1   
    12    8    9 1   
    13    8   36 1   
    14    9   10 1   
    15    9   29 1   
    16   10   11 1   
    17   10   37 1   
    18   11   12 1   
    19   11   26 1   
    20   11   38 1   
    21   12   13 1   
    22   12   39 1   
    23   12   50 1   
    24   13   14 1   
    25   13   40 1   
    26   13   51 1   
    27   14   15 1   
    28   14   41 1   
    29   14   42 1   
    30   15   16 1   
    31   15   43 1   
    32   15   44 1   
    33   16   17 1   
    34   16   45 1   
    35   17   18 1   
    36   17   25 1   
    37   18   19 1   
    38   18   24 1   
    39   19   20 1   
    40   19   46 1   
    41   20   47 1   
    42   21   22 1   
    43   21   23 1   
    44   23   24 1   
    45   24   49 1   
    46   26   27 1   
    47   26   28 1   
@<TRIPOS>SUBSTRUCTURE
     1 YZE         1 TEMP              0 ****  ****    0 ROOT
