@<TRIPOS>MOLECULE
YZE
   51    51     1     0     0
SMALL
bcc


@<TRIPOS>ATOM
      1 C2          7.3720    3.4980   -0.9240 c2        1 YZE     -0.301000
      2 C4          6.4900    2.5460   -0.6160 c2        1 YZE     -0.102200
      3 C5          5.0420    2.6420   -0.9160 c3        1 YZE     -0.048200
      4 C6          4.2510    1.4090   -0.4540 c3        1 YZE     -0.041300
      5 C7          2.7390    1.7600   -0.5250 c         1 YZE      0.888600
      6 O8          1.9460    1.0240   -1.1900 o         1 YZE     -0.856300
      7 O9          2.3280    2.7740    0.1120 o         1 YZE     -0.856300
      8 N10         4.6210    0.2220   -1.2120 n         1 YZE     -0.504900
      9 C11         4.8570   -0.9710   -0.4620 c         1 YZE      0.735100
     10 N12         4.6760   -2.1950   -1.0970 n         1 YZE     -0.546900
     11 C13         4.8790   -3.4480   -0.4070 c3        1 YZE     -0.022300
     12 C14         3.5590   -4.0610    0.0960 c3        1 YZE     -0.073400
     13 C15         2.7990   -3.1780    1.0650 c3        1 YZE     -0.078400
     14 C16         1.7160   -2.3660    0.3830 c3        1 YZE     -0.092400
     15 C17         0.9610   -1.5160    1.4080 c3        1 YZE      0.092000
     16 N18         0.2330   -0.4260    0.8090 n         1 YZE     -0.538900
     17 C19        -0.9430    0.0350    1.3240 c         1 YZE      0.660700
     18 C20        -1.5760    1.2330    0.6830 ca        1 YZE     -0.115600
     19 C21        -2.9700    1.3500    0.7800 ca        1 YZE     -0.088000
     20 C22        -3.6260    2.4430    0.2240 ca        1 YZE     -0.125500
     21 C23        -2.8890    3.4330   -0.4300 ca        1 YZE      0.034900
     22 I24        -3.8520    5.0250   -1.2360 i         1 YZE     -0.210900
     23 C25        -1.5050    3.3250   -0.5240 ca        1 YZE     -0.125500
     24 C26        -0.8390    2.2240    0.0300 ca        1 YZE     -0.088000
     25 O27        -1.5270   -0.5340    2.2830 o         1 YZE     -0.684100
     26 C28         5.5700   -4.5300   -1.3080 c         1 YZE      0.907600
     27 O29         5.6190   -4.3570   -2.5590 o         1 YZE     -0.847300
     28 O30         6.0400   -5.5390   -0.7120 o         1 YZE     -0.847300
     29 O31         5.2440   -0.9010    0.7380 o         1 YZE     -0.694100
     30 H2          8.4390    3.4050   -0.6920 ha        1 YZE      0.088000
     31 H2A         7.0870    4.4280   -1.4300 ha        1 YZE      0.088000
     32 H4          6.8100    1.6180   -0.1100 ha        1 YZE      0.140000
     33 H5          4.5980    3.5290   -0.3850 hc        1 YZE      0.057200
     34 H5A         4.8940    2.8040   -2.0170 hc        1 YZE      0.057200
     35 H6          4.4840    1.2390    0.6400 h1        1 YZE      0.085700
     36 HN10        3.9930    0.0930   -1.9850 hn        1 YZE      0.286500
     37 HN12        4.7120   -2.2560   -2.0900 hn        1 YZE      0.325500
     38 H13         5.5470   -3.2740    0.4860 h1        1 YZE      0.063700
     39 H14         2.9110   -4.3200   -0.7810 hc        1 YZE      0.040700
     40 H15         2.3270   -3.8160    1.8590 hc        1 YZE      0.034700
     41 H16         2.1810   -1.7050   -0.3980 hc        1 YZE      0.054200
     42 H16A        0.9970   -3.0470   -0.1410 hc        1 YZE      0.054200
     43 H17         0.2440   -2.1660    1.9850 h1        1 YZE      0.041700
     44 H17A        1.7040   -1.0900    2.1460 h1        1 YZE      0.041700
     45 HN18        0.7030    0.0860    0.0800 hn        1 YZE      0.375500
     46 H21        -3.5350    0.5680    1.3130 ha        1 YZE      0.194500
     47 H22        -4.7200    2.5200    0.3050 ha        1 YZE      0.136000
     48 H25        -0.9060    4.0960   -1.0340 ha        1 YZE      0.136000
     49 H26         0.2740    2.1750   -0.0690 ha        1 YZE      0.194500
     50 H23         3.8400   -5.0230    0.6020 hc        1 YZE      0.040700
     51 H24         3.5180   -2.4820    1.5760 hc        1 YZE      0.034700
@<TRIPOS>BOND
     1    1    2 2   
     2    1   30 1   
     3    1   31 1   
     4    2    3 1   
     5    2   32 1   
     6    3    4 1   
     7    3   33 1   
     8    3   34 1   
     9    4    5 1   
    10    4    8 1   
    11    4   35 1   
    12    5    6 1   
    13    5    7 1   
    14    8    9 1   
    15    8   36 1   
    16    9   10 1   
    17    9   29 2   
    18   10   11 1   
    19   10   37 1   
    20   11   12 1   
    21   11   26 1   
    22   11   38 1   
    23   12   13 1   
    24   12   39 1   
    25   12   50 1   
    26   13   14 1   
    27   13   40 1   
    28   13   51 1   
    29   14   15 1   
    30   14   41 1   
    31   14   42 1   
    32   15   16 1   
    33   15   43 1   
    34   15   44 1   
    35   16   17 1   
    36   16   45 1   
    37   17   18 1   
    38   17   25 2   
    39   18   19 ar  
    40   18   24 ar  
    41   19   20 ar  
    42   19   46 1   
    43   20   21 ar  
    44   20   47 1   
    45   21   22 1   
    46   21   23 ar  
    47   23   24 ar  
    48   23   48 1   
    49   24   49 1   
    50   26   27 1   
    51   26   28 1   
@<TRIPOS>SUBSTRUCTURE
     1 YZE         1 TEMP              0 ****  ****    0 ROOT
