@<TRIPOS>MOLECULE
YZE
   54    54     1     0     0
SMALL
bcc


@<TRIPOS>ATOM
      1 C2         -1.2200   -1.2780    2.9000 c2        1 YZE     -0.169000
      2 C4          0.0210   -1.7580    2.8530 c2        1 YZE     -0.242200
      3 C5          0.4230   -3.0590    3.4400 c3        1 YZE     -0.069200
      4 C6          1.2580   -3.8940    2.4700 c3        1 YZE      0.032500
      5 C7          1.5820   -5.2610    3.1240 c         1 YZE      0.910600
      6 O8          2.7270   -5.4460    3.6150 o         1 YZE     -0.819800
      7 O9          0.6800   -6.1520    3.1080 o         1 YZE     -0.819800
      8 N10         0.5090   -4.1350    1.1810 ny        1 YZE     -0.635800
      9 C11         1.4230   -4.4510    0.0460 c         1 YZE      0.671100
     10 N12         3.9470   -4.7900    0.9160 n8        1 YZE     -0.973800
     11 C13         4.0930   -5.9010    0.0170 c3        1 YZE      0.130500
     12 C14         4.8960   -7.1120    0.5310 c3        1 YZE     -0.104400
     13 C15         4.4970   -7.6720    1.8790 c3        1 YZE     -0.102400
     14 C16         3.2160   -8.4770    1.8270 c3        1 YZE     -0.107400
     15 C17         2.9000   -9.1320    3.1660 c3        1 YZE      0.118800
     16 N18         2.2970   -8.1870    4.1480 ny        1 YZE     -0.691800
     17 C19         2.1940   -8.7860    5.5190 c         1 YZE      0.572700
     18 C20         0.9120   -8.6650    6.2230 ca        1 YZE     -0.184600
     19 C21         0.6800   -9.5740    7.2700 ca        1 YZE     -0.071500
     20 C22        -0.5100   -9.5170    7.9920 ca        1 YZE     -0.105500
     21 C23        -1.4710   -8.5520    7.6850 ca        1 YZE      0.073900
     22 I24        -3.1960   -8.4690    8.7310 i         1 YZE     -0.078900
     23 C25        -1.2330   -7.6400    6.6540 ca        1 YZE     -0.105500
     24 C26        -0.0480   -7.6890    5.9210 ca        1 YZE     -0.071500
     25 O27         3.2030   -9.3460    5.9410 o         1 YZE     -0.455100
     26 C28         2.7530   -6.4100   -0.4980 c         1 YZE      0.662100
     27 O29         1.5260   -5.7870   -0.1390 os        1 YZE     -0.460200
     28 O30         2.5120   -7.3860   -1.1850 o         1 YZE     -0.404000
     29 O31         1.8740   -3.5980   -0.7020 o         1 YZE     -0.412000
     30 H2         -2.0580   -1.8240    3.3570 ha        1 YZE      0.131000
     31 H2A        -1.4790   -0.2890    2.4950 ha        1 YZE      0.131000
     32 H4          0.8450   -1.1670    2.4150 ha        1 YZE      0.137000
     33 H5         -0.4690   -3.6500    3.7840 hc        1 YZE      0.091700
     34 H5A         1.0710   -2.8770    4.3440 hc        1 YZE      0.091700
     35 H6          2.2100   -3.3430    2.2180 hx        1 YZE      0.124700
     36 HN10       -0.0360   -3.2950    0.9450 hn        1 YZE      0.479800
     37 HN12        3.9700   -5.0530    1.8840 hn        1 YZE      0.404800
     38 H13         4.6170   -5.5420   -0.9290 h1        1 YZE      0.110700
     39 H14         4.8330   -7.9230   -0.2450 hc        1 YZE      0.080200
     40 H15         4.4030   -6.8550    2.6450 hc        1 YZE      0.067200
     41 H16         2.3610   -7.8250    1.4970 hc        1 YZE      0.079700
     42 H16A        3.3170   -9.3020    1.0690 hc        1 YZE      0.079700
     43 H17         3.8410   -9.5580    3.6220 hx        1 YZE      0.101200
     44 H17A        2.1650   -9.9730    3.0110 hx        1 YZE      0.101200
     45 HN18        1.3660   -7.8780    3.8040 hn        1 YZE      0.495800
     46 H21         1.4450  -10.3290    7.5200 ha        1 YZE      0.170500
     47 H22        -0.6780  -10.2400    8.8080 ha        1 YZE      0.167500
     48 H25        -1.9810   -6.8670    6.4090 ha        1 YZE      0.167500
     49 H26         0.1070   -6.9370    5.1260 ha        1 YZE      0.170500
     50 H23         5.9710   -6.7870    0.5920 hc        1 YZE      0.080200
     51 H24         5.3330   -8.3420    2.2260 hc        1 YZE      0.067200
     52 H102       -0.1230   -4.9410    1.3430 hn        1 YZE      0.479800
     53 H122        4.6100   -4.0680    0.7240 hn        1 YZE      0.404800
     54 H182        2.8770   -7.3200    4.1990 hn        1 YZE      0.495800
@<TRIPOS>BOND
     1    1    2 2   
     2    1   30 1   
     3    1   31 1   
     4    2    3 1   
     5    2   32 1   
     6    3    4 1   
     7    3   33 1   
     8    3   34 1   
     9    4    5 1   
    10    4    8 1   
    11    4   35 1   
    12    5    6 1   
    13    5    7 1   
    14    8    9 1   
    15    8   36 1   
    16    8   52 1   
    17    9   27 1   
    18    9   29 2   
    19   10   11 1   
    20   10   37 1   
    21   10   53 1   
    22   11   12 1   
    23   11   26 1   
    24   11   38 1   
    25   12   13 1   
    26   12   39 1   
    27   12   50 1   
    28   13   14 1   
    29   13   40 1   
    30   13   51 1   
    31   14   15 1   
    32   14   41 1   
    33   14   42 1   
    34   15   16 1   
    35   15   43 1   
    36   15   44 1   
    37   16   17 1   
    38   16   45 1   
    39   16   54 1   
    40   17   18 1   
    41   17   25 2   
    42   18   19 ar  
    43   18   24 ar  
    44   19   20 ar  
    45   19   46 1   
    46   20   21 ar  
    47   20   47 1   
    48   21   22 1   
    49   21   23 ar  
    50   23   24 ar  
    51   23   48 1   
    52   24   49 1   
    53   26   27 1   
    54   26   28 2   
@<TRIPOS>SUBSTRUCTURE
     1 YZE         1 TEMP              0 ****  ****    0 ROOT
