@<TRIPOS>MOLECULE
YZE
   54    54     1     0     0
SMALL
bcc


@<TRIPOS>ATOM
      1 C2         -0.9550   -1.1690    3.0170 c2        1 YZE     -0.172000
      2 C4          0.2820   -1.6340    2.8570 c2        1 YZE     -0.239200
      3 C5          0.7560   -2.9210    3.4200 c3        1 YZE     -0.068200
      4 C6          1.4870   -3.7690    2.3780 c3        1 YZE      0.033500
      5 C7          1.9100   -5.1090    3.0280 c         1 YZE      0.911600
      6 O8          3.0630   -5.1900    3.5310 o         1 YZE     -0.823800
      7 O9          1.0990   -6.0850    3.0100 o         1 YZE     -0.823800
      8 N10         0.6120   -4.0390    1.1790 n4        1 YZE     -0.639800
      9 C11         1.3990   -4.1480   -0.0860 c         1 YZE      0.672100
     10 N12         3.8110   -5.1090    0.5910 n3        1 YZE     -0.979800
     11 C13         3.5190   -6.3330   -0.1070 c3        1 YZE      0.134500
     12 C14         3.0900   -7.5090    0.7900 c3        1 YZE     -0.109400
     13 C15         4.1830   -7.9540    1.7380 c3        1 YZE     -0.092400
     14 C16         3.7260   -9.1510    2.5530 c3        1 YZE     -0.101400
     15 C17         3.6900   -8.9090    4.0550 c3        1 YZE      0.117800
     16 N18         2.7470   -7.8360    4.4800 n4        1 YZE     -0.690800
     17 C19         2.3920   -7.9830    5.9330 c         1 YZE      0.573700
     18 C20         0.9960   -8.3000    6.2580 ca        1 YZE     -0.184600
     19 C21         0.7670   -9.0830    7.4020 ca        1 YZE     -0.077500
     20 C22        -0.5360   -9.4080    7.7710 ca        1 YZE     -0.103500
     21 C23        -1.6160   -8.9480    7.0140 ca        1 YZE      0.069900
     22 I24        -3.5040   -9.4230    7.5470 i         1 YZE     -0.076900
     23 C25        -1.3860   -8.1520    5.8890 ca        1 YZE     -0.103500
     24 C26        -0.0860   -7.8230    5.5070 ca        1 YZE     -0.077500
     25 O27         3.3190   -7.8540    6.7260 o         1 YZE     -0.440100
     26 C28         2.3620   -6.1300   -1.0850 c         1 YZE      0.658100
     27 O29         1.2360   -5.3610   -0.6640 os        1 YZE     -0.473200
     28 O30         2.1460   -6.6390   -2.1640 o         1 YZE     -0.379000
     29 O31         1.9750   -3.2040   -0.5990 o         1 YZE     -0.398000
     30 H2         -1.7370   -1.7160    3.5620 ha        1 YZE      0.130500
     31 H2A        -1.2650   -0.1890    2.6230 ha        1 YZE      0.130500
     32 H4          1.0520   -1.0420    2.3300 ha        1 YZE      0.141000
     33 H5         -0.0880   -3.5100    3.8700 hc        1 YZE      0.091200
     34 H5A         1.5000   -2.7200    4.2430 hc        1 YZE      0.091200
     35 H6          2.4060   -3.2180    2.0180 hx        1 YZE      0.130700
     36 HN10       -0.0630   -3.2700    1.0780 hn        1 YZE      0.477300
     37 HN12        3.9900   -5.2400    1.5670 hn        1 YZE      0.407800
     38 H13         4.3900   -6.6720   -0.7520 h1        1 YZE      0.092700
     39 H14         2.1790   -7.2140    1.3810 hc        1 YZE      0.078200
     40 H15         4.4780   -7.1090    2.4170 hc        1 YZE      0.064700
     41 H16         4.4400  -10.0060    2.3930 hc        1 YZE      0.079200
     42 H16A        2.7180   -9.5040    2.2050 hc        1 YZE      0.079200
     43 H17         3.3820   -9.8670    4.5660 hx        1 YZE      0.099700
     44 H17A        4.7150   -8.6220    4.4320 hx        1 YZE      0.099700
     45 HN18        3.1960   -6.9000    4.3370 hn        1 YZE      0.493300
     46 H21         1.6190   -9.4310    8.0100 ha        1 YZE      0.170500
     47 H22        -0.7020  -10.0280    8.6690 ha        1 YZE      0.168000
     48 H25        -2.2320   -7.7710    5.2930 ha        1 YZE      0.168000
     49 H26         0.0600   -7.1640    4.6320 ha        1 YZE      0.170500
     50 H23         2.8050   -8.3630    0.1180 hc        1 YZE      0.078200
     51 H24         5.0970   -8.2320    1.1480 hc        1 YZE      0.064700
     52 H102        0.1100   -4.9300    1.3500 hn        1 YZE      0.477300
     53 H122        4.5430   -4.5900    0.1500 hn        1 YZE      0.407800
     54 H182        1.8970   -7.8310    3.8900 hn        1 YZE      0.493300
@<TRIPOS>BOND
     1    1    2 2   
     2    1   30 1   
     3    1   31 1   
     4    2    3 1   
     5    2   32 1   
     6    3    4 1   
     7    3   33 1   
     8    3   34 1   
     9    4    5 1   
    10    4    8 1   
    11    4   35 1   
    12    5    6 1   
    13    5    7 1   
    14    8    9 1   
    15    8   36 1   
    16    8   52 1   
    17    9   27 1   
    18    9   29 2   
    19   10   11 1   
    20   10   37 1   
    21   10   53 1   
    22   11   12 1   
    23   11   26 1   
    24   11   38 1   
    25   12   13 1   
    26   12   39 1   
    27   12   50 1   
    28   13   14 1   
    29   13   40 1   
    30   13   51 1   
    31   14   15 1   
    32   14   41 1   
    33   14   42 1   
    34   15   16 1   
    35   15   43 1   
    36   15   44 1   
    37   16   17 1   
    38   16   45 1   
    39   16   54 1   
    40   17   18 1   
    41   17   25 2   
    42   18   19 ar  
    43   18   24 ar  
    44   19   20 ar  
    45   19   46 1   
    46   20   21 ar  
    47   20   47 1   
    48   21   22 1   
    49   21   23 ar  
    50   23   24 ar  
    51   23   48 1   
    52   24   49 1   
    53   26   27 1   
    54   26   28 2   
@<TRIPOS>SUBSTRUCTURE
     1 YZE         1 TEMP              0 ****  ****    0 ROOT
