@<TRIPOS>MOLECULE
YZY
  112   111     1     0     0
SMALL
bcc


@<TRIPOS>ATOM
      1 O1          1.2580    0.3620    0.1760 oh        1 YZY     -0.595800
      2 C1          2.4560    0.9790    0.5900 c3        1 YZY      0.122400
      3 C2          2.8730    0.5820    2.0080 c3        1 YZY      0.102100
      4 O2          2.4670   -0.7710    2.2710 os        1 YZY     -0.435900
      5 C3          3.2860   -1.7780    1.8270 c         1 YZY      0.642100
      6 O3          4.3520   -1.4730    1.2900 o         1 YZY     -0.543000
      7 C4          2.7040   -3.1330    2.0810 c3        1 YZY     -0.126400
      8 C5          3.7880   -4.1370    2.4100 c3        1 YZY     -0.079400
      9 C6          3.2100   -5.5310    2.5270 c3        1 YZY     -0.078400
     10 C7          4.2850   -6.5390    2.8740 c3        1 YZY     -0.079400
     11 C8          3.7120   -7.9350    2.9870 c3        1 YZY     -0.079400
     12 C9          4.7860   -8.9430    3.3350 c3        1 YZY     -0.079400
     13 C10         4.2140  -10.3390    3.4480 c3        1 YZY     -0.079400
     14 C11         5.2880  -11.3470    3.7960 c3        1 YZY     -0.079400
     15 C12         4.7160  -12.7430    3.9090 c3        1 YZY     -0.079400
     16 C13         5.7910  -13.7510    4.2580 c3        1 YZY     -0.079400
     17 C14         5.2190  -15.1480    4.3710 c3        1 YZY     -0.078400
     18 C15         6.2940  -16.1550    4.7200 c3        1 YZY     -0.079400
     19 C16         5.7220  -17.5520    4.8320 c3        1 YZY     -0.079400
     20 C17         6.7960  -18.5600    5.1820 c3        1 YZY     -0.080400
     21 C18         6.2320  -19.9530    5.2950 c3        1 YZY     -0.092100
     22 C19         2.2240    1.4350    3.0960 c3        1 YZY      0.136400
     23 O4          0.8310    1.5630    2.7750 os        1 YZY     -0.455900
     24 C20         0.0260    2.1270    3.7310 c         1 YZY      0.637100
     25 O5          0.5520    2.5110    4.7770 o         1 YZY     -0.536000
     26 C21        -1.4110    2.1640    3.3180 c3        1 YZY     -0.127400
     27 C22        -2.0550    3.4770    3.7130 c3        1 YZY     -0.079400
     28 C23        -3.5380    3.4580    3.4140 c3        1 YZY     -0.079400
     29 C24        -4.1860    4.7730    3.7920 c3        1 YZY     -0.079400
     30 C25        -5.6700    4.7590    3.4950 c3        1 YZY     -0.079400
     31 C26        -6.3170    6.0740    3.8740 c3        1 YZY     -0.077400
     32 C27        -7.8010    6.0590    3.5730 c3        1 YZY     -0.048200
     33 C28        -8.4600    7.3360    3.9340 c2        1 YZY     -0.175200
     34 C29        -9.7550    7.5900    3.7170 c2        1 YZY     -0.172200
     35 C30       -10.6890    6.6280    3.0860 c3        1 YZY     -0.049200
     36 C31       -12.1040    7.1630    3.0130 c3        1 YZY     -0.077400
     37 C32       -13.0340    6.1600    2.3650 c3        1 YZY     -0.079400
     38 C33       -14.4490    6.6930    2.2890 c3        1 YZY     -0.079400
     39 C34       -15.3800    5.6910    1.6410 c3        1 YZY     -0.079400
     40 C35       -16.7940    6.2230    1.5660 c3        1 YZY     -0.079400
     41 C36       -17.7270    5.2220    0.9170 c3        1 YZY     -0.080400
     42 C37       -19.1370    5.7490    0.8400 c3        1 YZY     -0.092100
     43 H1O         0.6140    0.4680    0.8890 ho        1 YZY      0.416000
     44 H11         3.2270    0.6260   -0.1480 h1        1 YZY      0.056700
     45 H12         2.3530    2.0960    0.5400 h1        1 YZY      0.056700
     46 H21         3.9920    0.6690    2.1120 h1        1 YZY      0.087700
     47 H41         2.1570   -3.4380    1.1480 hc        1 YZY      0.081200
     48 H42         1.9550   -3.0720    2.9140 hc        1 YZY      0.081200
     49 H51         4.5760   -4.1130    1.6110 hc        1 YZY      0.057700
     50 H52         4.2860   -3.8520    3.3740 hc        1 YZY      0.057700
     51 H61         2.7230   -5.8200    1.5580 hc        1 YZY      0.041700
     52 H62         2.4120   -5.5450    3.3150 hc        1 YZY      0.041700
     53 H71         4.7700   -6.2520    3.8440 hc        1 YZY      0.042700
     54 H72         5.0840   -6.5220    2.0870 hc        1 YZY      0.042700
     55 H81         2.9110   -7.9510    3.7730 hc        1 YZY      0.040200
     56 H82         3.2270   -8.2220    2.0160 hc        1 YZY      0.040200
     57 H91         5.5860   -8.9260    2.5490 hc        1 YZY      0.040200
     58 H92         5.2710   -8.6550    4.3050 hc        1 YZY      0.040200
     59 H101        3.7290  -10.6270    2.4770 hc        1 YZY      0.039700
     60 H102        3.4130  -10.3560    4.2340 hc        1 YZY      0.039700
     61 H111        6.0880  -11.3300    3.0100 hc        1 YZY      0.039700
     62 H112        5.7730  -11.0590    4.7670 hc        1 YZY      0.039700
     63 H121        3.9160  -12.7600    4.6950 hc        1 YZY      0.039700
     64 H122        4.2320  -13.0310    2.9390 hc        1 YZY      0.039700
     65 H131        6.2750  -13.4630    5.2280 hc        1 YZY      0.039700
     66 H132        6.5910  -13.7340    3.4720 hc        1 YZY      0.039700
     67 H141        4.4190  -15.1640    5.1570 hc        1 YZY      0.039700
     68 H142        4.7350  -15.4350    3.4000 hc        1 YZY      0.039700
     69 H151        6.7780  -15.8670    5.6900 hc        1 YZY      0.039700
     70 H152        7.0940  -16.1380    3.9330 hc        1 YZY      0.039700
     71 H161        5.2380  -17.8400    3.8620 hc        1 YZY      0.039700
     72 H162        4.9220  -17.5690    5.6190 hc        1 YZY      0.039700
     73 H171        7.5960  -18.5410    4.3950 hc        1 YZY      0.038700
     74 H172        7.2800  -18.2700    6.1510 hc        1 YZY      0.038700
     75 H181        5.7660  -20.2700    4.3310 hc        1 YZY      0.032700
     76 H182        7.0390  -20.6790    5.5530 hc        1 YZY      0.032700
     77 H183        5.4500  -19.9970    6.0910 hc        1 YZY      0.032700
     78 H191        2.3330    0.9550    4.1030 h1        1 YZY      0.068200
     79 H192        2.6810    2.4590    3.1060 h1        1 YZY      0.068200
     80 H211       -1.9280    1.3070    3.8280 hc        1 YZY      0.079700
     81 H212       -1.4920    2.0030    2.2100 hc        1 YZY      0.079700
     82 H221       -1.8850    3.6610    4.8080 hc        1 YZY      0.057700
     83 H222       -1.5670    4.3190    3.1550 hc        1 YZY      0.057700
     84 H231       -3.7010    3.2580    2.3220 hc        1 YZY      0.041700
     85 H232       -4.0270    2.6220    3.9810 hc        1 YZY      0.041700
     86 H241       -4.0220    4.9730    4.8840 hc        1 YZY      0.043200
     87 H242       -3.6970    5.6100    3.2260 hc        1 YZY      0.043200
     88 H251       -5.8330    4.5600    2.4030 hc        1 YZY      0.040700
     89 H252       -6.1590    3.9220    4.0600 hc        1 YZY      0.040700
     90 H261       -5.8270    6.9110    3.3100 hc        1 YZY      0.042700
     91 H262       -6.1560    6.2710    4.9660 hc        1 YZY      0.042700
     92 H271       -7.9610    5.8510    2.4780 hc        1 YZY      0.047700
     93 H272       -8.2900    5.2150    4.1340 hc        1 YZY      0.047700
     94 H281       -7.8160    8.0950    4.4070 ha        1 YZY      0.122000
     95 H291      -10.1880    8.5600    4.0110 ha        1 YZY      0.122000
     96 H301      -10.3260    6.3820    2.0500 hc        1 YZY      0.047200
     97 H302      -10.6810    5.6630    3.6660 hc        1 YZY      0.047200
     98 H311      -12.1140    8.1190    2.4270 hc        1 YZY      0.041700
     99 H312      -12.4690    7.4020    4.0460 hc        1 YZY      0.041700
    100 H321      -12.6680    5.9190    1.3320 hc        1 YZY      0.039700
    101 H322      -13.0230    5.2030    2.9500 hc        1 YZY      0.039700
    102 H331      -14.8160    6.9330    3.3220 hc        1 YZY      0.039700
    103 H332      -14.4600    7.6500    1.7040 hc        1 YZY      0.039700
    104 H341      -15.3690    4.7340    2.2260 hc        1 YZY      0.039700
    105 H342      -15.0130    5.4500    0.6080 hc        1 YZY      0.039700
    106 H351      -17.1620    6.4640    2.5980 hc        1 YZY      0.039700
    107 H352      -16.8060    7.1810    0.9800 hc        1 YZY      0.039700
    108 H361      -17.7130    4.2650    1.5030 hc        1 YZY      0.038700
    109 H362      -17.3570    4.9820   -0.1150 hc        1 YZY      0.038700
    110 H371      -19.8060    4.9960    0.3590 hc        1 YZY      0.032700
    111 H372      -19.1740    6.6890    0.2390 hc        1 YZY      0.032700
    112 H373      -19.5310    5.9710    1.8610 hc        1 YZY      0.032700
@<TRIPOS>BOND
     1    1    2 1   
     2    1   43 1   
     3    2    3 1   
     4    2   44 1   
     5    2   45 1   
     6    3    4 1   
     7    3   22 1   
     8    3   46 1   
     9    4    5 1   
    10    5    6 2   
    11    5    7 1   
    12    7    8 1   
    13    7   47 1   
    14    7   48 1   
    15    8    9 1   
    16    8   49 1   
    17    8   50 1   
    18    9   10 1   
    19    9   51 1   
    20    9   52 1   
    21   10   11 1   
    22   10   53 1   
    23   10   54 1   
    24   11   12 1   
    25   11   55 1   
    26   11   56 1   
    27   12   13 1   
    28   12   57 1   
    29   12   58 1   
    30   13   14 1   
    31   13   59 1   
    32   13   60 1   
    33   14   15 1   
    34   14   61 1   
    35   14   62 1   
    36   15   16 1   
    37   15   63 1   
    38   15   64 1   
    39   16   17 1   
    40   16   65 1   
    41   16   66 1   
    42   17   18 1   
    43   17   67 1   
    44   17   68 1   
    45   18   19 1   
    46   18   69 1   
    47   18   70 1   
    48   19   20 1   
    49   19   71 1   
    50   19   72 1   
    51   20   21 1   
    52   20   73 1   
    53   20   74 1   
    54   21   75 1   
    55   21   76 1   
    56   21   77 1   
    57   22   23 1   
    58   22   78 1   
    59   22   79 1   
    60   23   24 1   
    61   24   25 2   
    62   24   26 1   
    63   26   27 1   
    64   26   80 1   
    65   26   81 1   
    66   27   28 1   
    67   27   82 1   
    68   27   83 1   
    69   28   29 1   
    70   28   84 1   
    71   28   85 1   
    72   29   30 1   
    73   29   86 1   
    74   29   87 1   
    75   30   31 1   
    76   30   88 1   
    77   30   89 1   
    78   31   32 1   
    79   31   90 1   
    80   31   91 1   
    81   32   33 1   
    82   32   92 1   
    83   32   93 1   
    84   33   34 2   
    85   33   94 1   
    86   34   35 1   
    87   34   95 1   
    88   35   36 1   
    89   35   96 1   
    90   35   97 1   
    91   36   37 1   
    92   36   98 1   
    93   36   99 1   
    94   37   38 1   
    95   37  100 1   
    96   37  101 1   
    97   38   39 1   
    98   38  102 1   
    99   38  103 1   
   100   39   40 1   
   101   39  104 1   
   102   39  105 1   
   103   40   41 1   
   104   40  106 1   
   105   40  107 1   
   106   41   42 1   
   107   41  108 1   
   108   41  109 1   
   109   42  110 1   
   110   42  111 1   
   111   42  112 1   
@<TRIPOS>SUBSTRUCTURE
     1 YZY         1 TEMP              0 ****  ****    0 ROOT
