@<TRIPOS>MOLECULE
605
   46    48     1     0     0
SMALL
bcc


@<TRIPOS>ATOM
      1 C1         -0.1270    0.3130    0.0440 ca        1 605     -0.117000
      2 C2          1.2800    0.3850    0.0200 ca        1 605      0.115900
      3 C3          2.0340    0.0820    1.1750 ca        1 605     -0.181300
      4 C4          1.3660   -0.2810    2.3470 ca        1 605     -0.168000
      5 C5         -0.0380   -0.3430    2.3710 ca        1 605      0.141900
      6 C6         -0.7840   -0.0480    1.2100 ca        1 605     -0.109000
      7 C10         3.5200    0.0690    1.1280 c3        1 605     -0.048100
      8 C11         4.1020    1.4900    1.0510 c3        1 605      0.182800
      9 C14         5.6000    1.4720    1.0020 ca        1 605     -0.160300
     10 N15         3.6130    2.3290    2.2090 n4        1 605     -0.843600
     11 C17         6.2500    2.0340   -0.1030 ca        1 605     -0.097000
     12 C18         7.6380    1.9600   -0.2100 ca        1 605     -0.102000
     13 C19         8.3960    1.3310    0.7880 cp        1 605     -0.019000
     14 C20         7.7410    0.7900    1.9050 ca        1 605     -0.102000
     15 C21         6.3540    0.8570    2.0080 ca        1 605     -0.097000
     16 C26         9.8490    1.2210    0.6480 cp        1 605     -0.048000
     17 C27        10.4130    0.8890   -0.5940 ca        1 605     -0.035000
     18 C28        11.7980    0.7750   -0.7330 ca        1 605     -0.112000
     19 C29        12.6380    0.9930    0.3540 ca        1 605     -0.078000
     20 C30        12.0860    1.3280    1.6010 ca        1 605     -0.199600
     21 C31        10.6900    1.4380    1.7450 ca        1 605     -0.028000
     22 F34        -0.6710   -0.6900    3.5120 f         1 605     -0.105900
     23 F35         1.9130    0.7490   -1.1210 f         1 605     -0.132900
     24 C40        12.8790    1.5750    2.8010 c         1 605      0.573700
     25 N41        14.3910    1.5100    2.6710 n4        1 605     -0.759400
     26 O42        12.4970    1.8360    3.9330 o         1 605     -0.411100
     27 H1         -0.6960    0.5360   -0.8750 ha        1 605      0.184000
     28 H4          1.9290   -0.5650    3.2490 ha        1 605      0.155000
     29 H6         -1.8850   -0.1180    1.2380 ha        1 605      0.187000
     30 H10         3.8610   -0.4680    0.1970 hc        1 605      0.100700
     31 H10A        3.9430   -0.4830    2.0080 hc        1 605      0.100700
     32 H11         3.6870    1.9840    0.1150 hx        1 605      0.125700
     33 HN15        2.6030    2.1750    2.3290 hn        1 605      0.460800
     34 HN1A        4.0970    2.0560    3.0690 hn        1 605      0.460800
     35 H17         5.6730    2.5220   -0.9060 ha        1 605      0.150500
     36 H18         8.1380    2.4020   -1.0890 ha        1 605      0.160000
     37 H20         8.3220    0.2890    2.6960 ha        1 605      0.160000
     38 H21         5.8590    0.3960    2.8780 ha        1 605      0.150500
     39 H27         9.7600    0.7070   -1.4650 ha        1 605      0.173000
     40 H28        12.2290    0.5090   -1.7140 ha        1 605      0.180000
     41 H29        13.7230    0.8920    0.2000 ha        1 605      0.136000
     42 H31        10.2630    1.7030    2.7280 ha        1 605      0.171000
     43 HN41       14.7140    2.1950    1.9800 hn        1 605      0.473800
     44 HN4A       14.6780    0.5730    2.3710 hn        1 605      0.473800
     45 H153        3.7920    3.3190    2.0260 hn        1 605      0.460800
     46 H413       14.8250    1.7190    3.5810 hn        1 605      0.473800
@<TRIPOS>BOND
     1    1    2 ar  
     2    1    6 ar  
     3    1   27 1   
     4    2    3 ar  
     5    2   23 1   
     6    3    4 ar  
     7    3    7 1   
     8    4    5 ar  
     9    4   28 1   
    10    5    6 ar  
    11    5   22 1   
    12    6   29 1   
    13    7    8 1   
    14    7   30 1   
    15    7   31 1   
    16    8    9 1   
    17    8   10 1   
    18    8   32 1   
    19    9   11 ar  
    20    9   15 ar  
    21   10   33 1   
    22   10   34 1   
    23   10   45 1   
    24   11   12 ar  
    25   11   35 1   
    26   12   13 ar  
    27   12   36 1   
    28   13   14 ar  
    29   13   16 1   
    30   14   15 ar  
    31   14   37 1   
    32   15   38 1   
    33   16   17 ar  
    34   16   21 ar  
    35   17   18 ar  
    36   17   39 1   
    37   18   19 ar  
    38   18   40 1   
    39   19   20 ar  
    40   19   41 1   
    41   20   21 ar  
    42   20   24 1   
    43   21   42 1   
    44   24   25 1   
    45   24   26 2   
    46   25   43 1   
    47   25   44 1   
    48   25   46 1   
@<TRIPOS>SUBSTRUCTURE
     1 605         1 TEMP              0 ****  ****    0 ROOT
