@<TRIPOS>MOLECULE
605
   44    46     1     0     0
SMALL
bcc


@<TRIPOS>ATOM
      1 C1          6.3790   -1.2340   -0.1080 ca        1 605     -0.136000
      2 C2          4.9780   -1.2410   -0.2430 ca        1 605      0.112900
      3 C3          4.2650   -0.0310   -0.4020 ca        1 605     -0.087300
      4 C4          4.9730    1.1710   -0.4210 ca        1 605     -0.153000
      5 C5          6.3720    1.1750   -0.2860 ca        1 605      0.116900
      6 C6          7.0760   -0.0340   -0.1280 ca        1 605     -0.143000
      7 C10         2.7870   -0.0320   -0.5530 c3        1 605     -0.081100
      8 C11         2.0710   -0.0310    0.8200 c3        1 605      0.216800
      9 C14         0.5910   -0.1900    0.5730 ca        1 605     -0.072300
     10 N15         2.3650    1.1050    1.6700 n3        1 605     -0.899800
     11 C17        -0.0630   -1.3500    0.9990 ca        1 605     -0.120500
     12 C18        -1.4270   -1.5150    0.7660 ca        1 605     -0.115000
     13 C19        -2.1610   -0.5180    0.1100 cp        1 605     -0.041000
     14 C20        -1.5040    0.6480   -0.3100 ca        1 605     -0.115000
     15 C21        -0.1400    0.8080   -0.0800 ca        1 605     -0.120500
     16 C26        -3.5920   -0.6880   -0.1340 cp        1 605     -0.042000
     17 C27        -4.1050   -1.9350   -0.5210 ca        1 605     -0.100000
     18 C28        -5.4680   -2.0910   -0.7630 ca        1 605     -0.138000
     19 C29        -6.3390   -1.0120   -0.6130 ca        1 605     -0.104000
     20 C30        -5.8380    0.2320   -0.2190 ca        1 605     -0.140600
     21 C31        -4.4680    0.3960    0.0110 ca        1 605     -0.069000
     22 F34         7.0460    2.3500   -0.3070 f         1 605     -0.135900
     23 F35         4.3200   -2.4250   -0.2230 f         1 605     -0.135900
     24 C40        -6.7190    1.4230   -0.0590 c         1 605      0.670700
     25 N41        -7.9820    1.2340    0.4490 n         1 605     -0.673000
     26 O42        -6.3390    2.5720   -0.3670 o         1 605     -0.610100
     27 H1          6.9150   -2.1880    0.0120 ha        1 605      0.156000
     28 H4          4.4410    2.1250   -0.5520 ha        1 605      0.152000
     29 H6          8.1710   -0.0180   -0.0230 ha        1 605      0.156000
     30 H10         2.4590    0.8600   -1.1500 hc        1 605      0.066200
     31 H10A        2.4670   -0.9520   -1.1110 hc        1 605      0.066200
     32 H11         2.4460   -0.9430    1.3810 h1        1 605      0.072700
     33 HN15        3.3500    1.2880    1.6710 hn        1 605      0.351800
     34 HN1A        1.8780    1.9240    1.3630 hn        1 605      0.351800
     35 H17         0.4990   -2.1370    1.5260 ha        1 605      0.134000
     36 H18        -1.9330   -2.4290    1.1110 ha        1 605      0.138500
     37 H20        -2.0690    1.4380   -0.8280 ha        1 605      0.138500
     38 H21         0.3610    1.7270   -0.4190 ha        1 605      0.134000
     39 H27        -3.4240   -2.7910   -0.6450 ha        1 605      0.139000
     40 H28        -5.8590   -3.0690   -1.0790 ha        1 605      0.137000
     41 H29        -7.4110   -1.1470   -0.8250 ha        1 605      0.135000
     42 H31        -4.0860    1.3880    0.3040 ha        1 605      0.159000
     43 HN41       -8.2750    0.3490    0.7710 hn        1 605      0.312500
     44 HN4A       -8.5680    2.0170    0.5950 hn        1 605      0.312500
@<TRIPOS>BOND
     1    1    2 ar  
     2    1    6 ar  
     3    1   27 1   
     4    2    3 ar  
     5    2   23 1   
     6    3    4 ar  
     7    3    7 1   
     8    4    5 ar  
     9    4   28 1   
    10    5    6 ar  
    11    5   22 1   
    12    6   29 1   
    13    7    8 1   
    14    7   30 1   
    15    7   31 1   
    16    8    9 1   
    17    8   10 1   
    18    8   32 1   
    19    9   11 ar  
    20    9   15 ar  
    21   10   33 1   
    22   10   34 1   
    23   11   12 ar  
    24   11   35 1   
    25   12   13 ar  
    26   12   36 1   
    27   13   14 ar  
    28   13   16 1   
    29   14   15 ar  
    30   14   37 1   
    31   15   38 1   
    32   16   17 ar  
    33   16   21 ar  
    34   17   18 ar  
    35   17   39 1   
    36   18   19 ar  
    37   18   40 1   
    38   19   20 ar  
    39   19   41 1   
    40   20   21 ar  
    41   20   24 1   
    42   21   42 1   
    43   24   25 1   
    44   24   26 2   
    45   25   43 1   
    46   25   44 1   
@<TRIPOS>SUBSTRUCTURE
     1 605         1 TEMP              0 ****  ****    0 ROOT
