@<TRIPOS>MOLECULE
605
   46    48     1     0     0
SMALL
bcc


@<TRIPOS>ATOM
      1 C1         -0.1270    0.3140    0.0410 ca        1 605     -0.117000
      2 C2          1.2800    0.3840    0.0180 ca        1 605      0.115900
      3 C3          2.0330    0.0870    1.1750 ca        1 605     -0.181300
      4 C4          1.3630   -0.2680    2.3490 ca        1 605     -0.168000
      5 C5         -0.0400   -0.3290    2.3720 ca        1 605      0.141900
      6 C6         -0.7850   -0.0400    1.2080 ca        1 605     -0.109000
      7 C10         3.5190    0.0720    1.1300 c3        1 605     -0.048100
      8 C11         4.1030    1.4910    1.0420 c3        1 605      0.182800
      9 C14         5.6010    1.4710    0.9950 ca        1 605     -0.160300
     10 N15         3.6130    2.3410    2.1920 nz        1 605     -0.843600
     11 C17         6.2540    2.0210   -0.1140 ca        1 605     -0.097500
     12 C18         7.6420    1.9440   -0.2180 ca        1 605     -0.102000
     13 C19         8.3970    1.3250    0.7880 cp        1 605     -0.019000
     14 C20         7.7400    0.7950    1.9090 ca        1 605     -0.102000
     15 C21         6.3520    0.8640    2.0090 ca        1 605     -0.097500
     16 C26         9.8500    1.2110    0.6510 cp        1 605     -0.048000
     17 C27        10.4160    0.8650   -0.5850 ca        1 605     -0.035000
     18 C28        11.8010    0.7480   -0.7210 ca        1 605     -0.112000
     19 C29        12.6400    0.9770    0.3650 ca        1 605     -0.078000
     20 C30        12.0860    1.3260    1.6070 ca        1 605     -0.199600
     21 C31        10.6900    1.4390    1.7480 ca        1 605     -0.028000
     22 F34        -0.6750   -0.6680    3.5140 f         1 605     -0.105900
     23 F35         1.9150    0.7400   -1.1250 f         1 605     -0.132900
     24 C40        12.8770    1.5850    2.8070 c         1 605      0.573700
     25 N41        14.3890    1.5180    2.6790 nz        1 605     -0.759400
     26 O42        12.4930    1.8580    3.9350 o         1 605     -0.411100
     27 H1         -0.6940    0.5310   -0.8800 ha        1 605      0.184000
     28 H4          1.9250   -0.5480    3.2530 ha        1 605      0.155000
     29 H6         -1.8860   -0.1090    1.2360 ha        1 605      0.187000
     30 H10         3.9410   -0.4740    2.0150 hc        1 605      0.100700
     31 H10A        3.8600   -0.4730    0.2040 hc        1 605      0.100700
     32 H11         3.6900    1.9780    0.1000 hx        1 605      0.125700
     33 HN15        4.0950    2.0740    3.0550 hn        1 605      0.460800
     34 HN1A        2.6020    2.1890    2.3120 hn        1 605      0.460800
     35 H17         5.6780    2.5020   -0.9220 ha        1 605      0.150500
     36 H18         8.1440    2.3770   -1.1000 ha        1 605      0.160000
     37 H20         8.3180    0.3010    2.7060 ha        1 605      0.160000
     38 H21         5.8560    0.4120    2.8820 ha        1 605      0.150500
     39 H27         9.7640    0.6740   -1.4560 ha        1 605      0.173000
     40 H28        12.2330    0.4700   -1.6990 ha        1 605      0.180000
     41 H29        13.7250    0.8730    0.2150 ha        1 605      0.136000
     42 H31        10.2610    1.7150    2.7280 ha        1 605      0.171000
     43 HN41       14.8220    1.7370    3.5880 hn        1 605      0.473800
     44 HN4A       14.7130    2.1950    1.9820 hn        1 605      0.473800
     45 H153        3.7950    3.3290    2.0010 hn        1 605      0.460800
     46 H413       14.6760    0.5780    2.3910 hn        1 605      0.473800
@<TRIPOS>BOND
     1    1    2 ar  
     2    1    6 ar  
     3    1   27 1   
     4    2    3 ar  
     5    2   23 1   
     6    3    4 ar  
     7    3    7 1   
     8    4    5 ar  
     9    4   28 1   
    10    5    6 ar  
    11    5   22 1   
    12    6   29 1   
    13    7    8 1   
    14    7   30 1   
    15    7   31 1   
    16    8    9 1   
    17    8   10 1   
    18    8   32 1   
    19    9   11 ar  
    20    9   15 ar  
    21   10   33 1   
    22   10   34 1   
    23   10   45 1   
    24   11   12 ar  
    25   11   35 1   
    26   12   13 ar  
    27   12   36 1   
    28   13   14 ar  
    29   13   16 1   
    30   14   15 ar  
    31   14   37 1   
    32   15   38 1   
    33   16   17 ar  
    34   16   21 ar  
    35   17   18 ar  
    36   17   39 1   
    37   18   19 ar  
    38   18   40 1   
    39   19   20 ar  
    40   19   41 1   
    41   20   21 ar  
    42   20   24 1   
    43   21   42 1   
    44   24   25 1   
    45   24   26 2   
    46   25   43 1   
    47   25   44 1   
    48   25   46 1   
@<TRIPOS>SUBSTRUCTURE
     1 605         1 TEMP              0 ****  ****    0 ROOT
