@<TRIPOS>MOLECULE
605
   44    37     1     0     0
SMALL
bcc


@<TRIPOS>ATOM
      1 C1         -6.3380   -1.3980   -1.2630 c1        1 605     -0.130500
      2 C2         -4.9710   -1.3020   -1.0540 c1        1 605      0.073000
      3 C3         -4.4830   -0.9680    0.2000 c1        1 605     -0.083000
      4 C4         -5.3630   -0.7310    1.2450 c1        1 605     -0.143000
      5 C5         -6.7300   -0.8260    1.0350 c1        1 605      0.077000
      6 C6         -7.2170   -1.1600   -0.2190 c1        1 605     -0.130500
      7 C10        -2.9900   -0.9770    0.4570 c3        1 605     -0.123000
      8 C11        -2.3900    0.3300   -0.0120 c3        1 605      0.018000
      9 C14        -0.8810    0.2280    0.0060 c2        1 605     -0.081000
     10 N15        -2.8040    1.3780    0.8540 n3        1 605     -0.351000
     11 C17        -0.2330    0.3280   -1.2150 c1        1 605     -0.124000
     12 C18         1.1500    0.2350   -1.2770 c1        1 605     -0.093000
     13 C19         1.8830    0.0410   -0.1170 c1        1 605     -0.041000
     14 C20         1.2350   -0.0590    1.1050 c1        1 605     -0.124000
     15 C21        -0.1470    0.0340    1.1660 c2        1 605     -0.107000
     16 C26         3.2670   -0.0520   -0.1780 c1        1 605     -0.041000
     17 C27         3.8730   -1.2910   -0.3130 c1        1 605     -0.130500
     18 C28         5.2560   -1.3890   -0.3290 c1        1 605     -0.130500
     19 C29         6.0330   -0.2470   -0.2110 c1        1 605     -0.104000
     20 C30         5.4270    0.9920   -0.0770 c1        1 605     -0.120000
     21 C31         4.0440    1.0900   -0.0600 c1        1 605     -0.093000
     22 F34        -7.5780   -0.6340    2.0530 f         1 605     -0.102000
     23 F35        -4.1210   -1.5570   -2.0570 f         1 605     -0.102000
     24 C40         6.2750    2.2430    0.0090 c2        1 605      0.344000
     25 N41         7.6910    2.1470   -0.0490 n         1 605     -0.434000
     26 O42         5.7440    3.3320    0.1050 o         1 605     -0.371000
     27 H1         -6.6820   -1.6330   -2.1460 ha        1 605      0.146750
     28 H4         -5.0200   -0.4960    2.1280 ha        1 605      0.164000
     29 H6         -8.1800   -1.2270   -0.3660 ha        1 605      0.146750
     30 H10        -2.5790   -1.7180   -0.0320 hc        1 605      0.109500
     31 H10A       -2.8240   -1.0870    1.4140 hc        1 605      0.109500
     32 H11        -2.6930    0.5200   -0.9220 h1        1 605      0.063000
     33 HN15       -3.4830    1.8500    0.4590 hn        1 605      0.153500
     34 HN1A       -2.0970    1.9380    1.0150 hn        1 605      0.153500
     35 H17        -0.7500    0.4650   -2.0330 ha        1 605      0.137000
     36 H18         1.6060    0.3060   -2.1370 ha        1 605      0.151000
     37 H20         1.7520   -0.1950    1.9210 ha        1 605      0.134000
     38 H21        -0.6030   -0.0370    2.0260 ha        1 605      0.149000
     39 H27         3.3260   -2.0950   -0.3960 ha        1 605      0.146750
     40 H28         5.6820   -2.2620   -0.4240 ha        1 605      0.146750
     41 H29         7.0070   -0.3160   -0.2230 ha        1 605      0.135000
     42 H31         3.6180    1.9630    0.0340 ha        1 605      0.151000
     43 HN41        8.1880    2.8710   -0.2960 hn        1 605      0.226000
     44 HN4A        8.1050    1.3630    0.1750 hn        1 605      0.226000
@<TRIPOS>BOND
     1    1    6 1   
     2    1   27 1   
     3    2    3 1   
     4    2   23 1   
     5    3    7 1   
     6    4    5 1   
     7    4   28 1   
     8    5   22 1   
     9    6   29 1   
    10    7    8 1   
    11    7   30 1   
    12    7   31 1   
    13    8    9 1   
    14    8   10 1   
    15    8   32 1   
    16    9   11 1   
    17    9   15 1   
    18   10   33 1   
    19   10   34 1   
    20   11   35 1   
    21   12   13 1   
    22   12   36 1   
    23   14   15 1   
    24   14   37 1   
    25   15   38 1   
    26   16   21 1   
    27   17   18 1   
    28   17   39 1   
    29   18   40 1   
    30   19   20 1   
    31   19   41 1   
    32   20   24 1   
    33   21   42 1   
    34   24   25 1   
    35   24   26 1   
    36   25   43 1   
    37   25   44 1   
@<TRIPOS>SUBSTRUCTURE
     1 605         1 TEMP              0 ****  ****    0 ROOT
