@<TRIPOS>MOLECULE
605
   46    48     1     0     0
SMALL
bcc


@<TRIPOS>ATOM
      1 C1         -0.1280    0.3260    0.0380 ca        1 605     -0.117000
      2 C2          1.2800    0.3970    0.0150 ca        1 605      0.115900
      3 C3          2.0330    0.0860    1.1680 ca        1 605     -0.181300
      4 C4          1.3650   -0.2840    2.3370 ca        1 605     -0.168000
      5 C5         -0.0390   -0.3460    2.3610 ca        1 605      0.141900
      6 C6         -0.7850   -0.0420    1.2010 ca        1 605     -0.109000
      7 C10         3.5190    0.0720    1.1210 c3        1 605     -0.048100
      8 C11         4.1030    1.4920    1.0510 c3        1 605      0.182800
      9 C14         5.6010    1.4740    1.0020 ca        1 605     -0.160300
     10 N15         3.6140    2.3270    2.2120 n4        1 605     -0.843600
     11 C17         6.2530    2.0380   -0.1000 ca        1 605     -0.097000
     12 C18         7.6400    1.9640   -0.2070 ca        1 605     -0.102000
     13 C19         8.3960    1.3310    0.7900 cp        1 605     -0.019000
     14 C20         7.7400    0.7870    1.9050 ca        1 605     -0.102000
     15 C21         6.3530    0.8540    2.0070 ca        1 605     -0.097000
     16 C26         9.8500    1.2200    0.6510 cp        1 605     -0.048000
     17 C27        10.4140    0.8900   -0.5910 ca        1 605     -0.035000
     18 C28        11.8000    0.7760   -0.7290 ca        1 605     -0.112000
     19 C29        12.6390    0.9910    0.3590 ca        1 605     -0.078000
     20 C30        12.0860    1.3230    1.6060 ca        1 605     -0.199600
     21 C31        10.6900    1.4340    1.7500 ca        1 605     -0.028000
     22 F34        -0.6720   -0.6990    3.4990 f         1 605     -0.105900
     23 F35         1.9130    0.7680   -1.1240 f         1 605     -0.132900
     24 C40        12.8790    1.5660    2.8080 c         1 605      0.573700
     25 N41        14.3900    1.5020    2.6790 n4        1 605     -0.759400
     26 O42        12.4950    1.8240    3.9400 o         1 605     -0.411100
     27 H1         -0.6960    0.5550   -0.8800 ha        1 605      0.184000
     28 H4          1.9280   -0.5750    3.2380 ha        1 605      0.155000
     29 H6         -1.8860   -0.1120    1.2290 ha        1 605      0.187000
     30 H10         3.9420   -0.4850    1.9980 hc        1 605      0.100700
     31 H10A        3.8600   -0.4610    0.1880 hc        1 605      0.100700
     32 H11         3.6890    1.9910    0.1160 hx        1 605      0.125700
     33 HN15        2.6030    2.1740    2.3300 hn        1 605      0.460800
     34 HN1A        4.0960    2.0500    3.0710 hn        1 605      0.460800
     35 H17         5.6760    2.5300   -0.9010 ha        1 605      0.150500
     36 H18         8.1410    2.4080   -1.0830 ha        1 605      0.160000
     37 H20         8.3200    0.2830    2.6950 ha        1 605      0.160000
     38 H21         5.8570    0.3900    2.8750 ha        1 605      0.150500
     39 H27         9.7620    0.7110   -1.4630 ha        1 605      0.173000
     40 H28        12.2310    0.5110   -1.7110 ha        1 605      0.180000
     41 H29        13.7240    0.8890    0.2060 ha        1 605      0.136000
     42 H31        10.2620    1.6970    2.7330 ha        1 605      0.171000
     43 HN41       14.8240    1.7080    3.5890 hn        1 605      0.473800
     44 HN4A       14.7130    2.1880    1.9900 hn        1 605      0.473800
     45 H153        3.7940    3.3180    2.0330 hn        1 605      0.460800
     46 H413       14.6770    0.5650    2.3770 hn        1 605      0.473800
@<TRIPOS>BOND
     1    1    2 ar  
     2    1    6 ar  
     3    1   27 1   
     4    2    3 ar  
     5    2   23 1   
     6    3    4 ar  
     7    3    7 1   
     8    4    5 ar  
     9    4   28 1   
    10    5    6 ar  
    11    5   22 1   
    12    6   29 1   
    13    7    8 1   
    14    7   30 1   
    15    7   31 1   
    16    8    9 1   
    17    8   10 1   
    18    8   32 1   
    19    9   11 ar  
    20    9   15 ar  
    21   10   33 1   
    22   10   34 1   
    23   10   45 1   
    24   11   12 ar  
    25   11   35 1   
    26   12   13 ar  
    27   12   36 1   
    28   13   14 ar  
    29   13   16 1   
    30   14   15 ar  
    31   14   37 1   
    32   15   38 1   
    33   16   17 ar  
    34   16   21 ar  
    35   17   18 ar  
    36   17   39 1   
    37   18   19 ar  
    38   18   40 1   
    39   19   20 ar  
    40   19   41 1   
    41   20   21 ar  
    42   20   24 1   
    43   21   42 1   
    44   24   25 1   
    45   24   26 2   
    46   25   43 1   
    47   25   44 1   
    48   25   46 1   
@<TRIPOS>SUBSTRUCTURE
     1 605         1 TEMP              0 ****  ****    0 ROOT
