@<TRIPOS>MOLECULE
606
   50    51     1     0     0
SMALL
bcc


@<TRIPOS>ATOM
      1 C29         7.1550    0.3060    0.6260 ca        1 606     -0.126000
      2 C30         8.3540   -0.0340   -0.0000 ca        1 606     -0.132000
      3 C31         8.4760   -1.2540   -0.6630 ca        1 606     -0.141000
      4 C32         7.3940   -2.1340   -0.6990 ca        1 606     -0.132000
      5 C33         6.1960   -1.7980   -0.0730 ca        1 606     -0.126000
      6 C28         6.0670   -0.5740    0.5960 ca        1 606     -0.066300
      7 C27         4.7920   -0.2240    1.2810 c3        1 606     -0.030100
      8 C26         3.6370   -0.0870    0.3130 c3        1 606     -0.071400
      9 C25         2.3410    0.2290    1.0120 c3        1 606     -0.397600
     10 P24         1.1530    0.2580   -0.1560 p5        1 606      1.515100
     11 O34         1.1290   -0.9510   -0.9810 o         1 606     -0.878300
     12 O35         1.5080    1.5600   -1.0250 oh        1 606     -0.819400
     13 C23        -0.2030    0.6300    0.6940 c3        1 606     -0.437600
     14 C1         -1.3970    0.8110   -0.2240 c3        1 606     -0.155400
     15 C2         -1.6520    2.3170   -0.6080 c         1 606      0.918600
     16 O14        -0.8150    3.1750   -0.1960 o         1 606     -0.819300
     17 O13        -2.6400    2.5700   -1.3370 o         1 606     -0.819300
     18 C3         -2.6410    0.2490    0.3760 ca        1 606      0.020700
     19 C8         -3.5020   -0.5230   -0.4100 ca        1 606     -0.148000
     20 C4         -2.9790    0.5120    1.7110 ca        1 606     -0.147000
     21 C5         -4.1580    0.0040    2.2480 ca        1 606     -0.119000
     22 C6         -5.0210   -0.7660    1.4740 ca        1 606     -0.186000
     23 C7         -4.6990   -1.0400    0.1280 ca        1 606      0.083600
     24 N9         -5.5310   -1.8930   -0.6470 nh        1 606     -0.706600
     25 C10        -6.9680   -1.6350   -0.5450 c2        1 606      0.748100
     26 N12        -7.3990   -0.2890   -0.6960 nh        1 606     -0.912800
     27 N11        -7.8460   -2.5900   -0.3810 n2        1 606     -0.862100
     28 H29         7.0620    1.2730    1.1420 ha        1 606      0.135000
     29 H30         9.2020    0.6650    0.0260 ha        1 606      0.124000
     30 H31         9.4200   -1.5200   -1.1590 ha        1 606      0.122000
     31 H32         7.4850   -3.0950   -1.2270 ha        1 606      0.124000
     32 H33         5.3410   -2.4890   -0.1090 ha        1 606      0.135000
     33 H271        4.5520   -1.0250    2.0320 hc        1 606      0.043200
     34 H272        4.9110    0.7370    1.8500 hc        1 606      0.043200
     35 H261        3.8440    0.7300   -0.4300 hc        1 606      0.071700
     36 H262        3.5010   -1.0400   -0.2710 hc        1 606      0.071700
     37 H251        2.1370   -0.5400    1.7970 hc        1 606      0.084200
     38 H252        2.4340    1.2040    1.5530 hc        1 606      0.084200
     39 HO35        0.8770    2.2900   -1.0160 ho        1 606      0.509000
     40 H231       -0.4370   -0.1550    1.4580 hc        1 606      0.103700
     41 H232       -0.0940    1.5930    1.2700 hc        1 606      0.103700
     42 H1         -1.1820    0.2790   -1.1960 hc        1 606      0.063700
     43 H8         -3.2400   -0.7050   -1.4640 ha        1 606      0.143000
     44 H4         -2.3160    1.1420    2.3210 ha        1 606      0.136000
     45 H5         -4.4190    0.2190    3.2940 ha        1 606      0.115000
     46 H6         -5.9460   -1.1630    1.9150 ha        1 606      0.122000
     47 HN9        -5.2460   -1.9190   -1.6100 hn        1 606      0.398800
     48 H121       -6.7390    0.3950   -0.3940 hn        1 606      0.407800
     49 H122       -8.3280   -0.1100   -0.3830 hn        1 606      0.407800
     50 HN11       -7.4710   -3.5130   -0.3720 hn        1 606      0.398400
@<TRIPOS>BOND
     1    1    2 ar  
     2    1    6 ar  
     3    1   28 1   
     4    2    3 ar  
     5    2   29 1   
     6    3    4 ar  
     7    3   30 1   
     8    4    5 ar  
     9    4   31 1   
    10    5    6 ar  
    11    5   32 1   
    12    6    7 1   
    13    7    8 1   
    14    7   33 1   
    15    7   34 1   
    16    8    9 1   
    17    8   35 1   
    18    8   36 1   
    19    9   10 1   
    20    9   37 1   
    21    9   38 1   
    22   10   11 2   
    23   10   12 1   
    24   10   13 1   
    25   12   39 1   
    26   13   14 1   
    27   13   40 1   
    28   13   41 1   
    29   14   15 1   
    30   14   18 1   
    31   14   42 1   
    32   15   16 1   
    33   15   17 1   
    34   18   19 ar  
    35   18   20 ar  
    36   19   23 ar  
    37   19   43 1   
    38   20   21 ar  
    39   20   44 1   
    40   21   22 ar  
    41   21   45 1   
    42   22   23 ar  
    43   22   46 1   
    44   23   24 1   
    45   24   25 1   
    46   24   47 1   
    47   25   26 1   
    48   25   27 2   
    49   26   48 1   
    50   26   49 1   
    51   27   50 1   
@<TRIPOS>SUBSTRUCTURE
     1 606         1 TEMP              0 ****  ****    0 ROOT
