@<TRIPOS>MOLECULE
606
   50    51     1     0     0
SMALL
bcc


@<TRIPOS>ATOM
      1 C29        -0.8340   -1.3590    1.0720 ca        1 606     -0.129000
      2 C30         0.5320   -1.4260    1.3360 ca        1 606     -0.136000
      3 C31         1.0280   -1.0240    2.5770 ca        1 606     -0.149000
      4 C32         0.1510   -0.5550    3.5540 ca        1 606     -0.136000
      5 C33        -1.2170   -0.4890    3.2920 ca        1 606     -0.129000
      6 C28        -1.7220   -0.8900    2.0500 ca        1 606     -0.057300
      7 C27        -3.1790   -0.8070    1.7560 c3        1 606     -0.047100
      8 C26        -3.8000   -2.1840    1.5820 c3        1 606     -0.041400
      9 C25        -5.2620   -2.1210    1.2310 c3        1 606     -0.351600
     10 P24        -5.4870   -2.6050   -0.3860 p5        1 606      1.272400
     11 O34        -5.2320   -1.4550   -1.2820 o         1 606     -0.883000
     12 O35        -4.8110   -3.9200   -0.6220 o         1 606     -0.883000
     13 C23        -7.1710   -2.9490   -0.3870 c3        1 606     -0.343600
     14 C1         -7.4330   -4.3180    0.2010 c3        1 606     -0.086400
     15 C2         -7.7070   -5.3340   -0.8920 c         1 606      0.650100
     16 O14        -6.6620   -5.8060   -1.6110 oh        1 606     -0.616100
     17 O13        -8.8000   -5.8180   -1.2160 o         1 606     -0.565000
     18 C3         -8.5290   -4.2820    1.2220 ca        1 606     -0.028300
     19 C8         -8.2010   -4.3770    2.5770 ca        1 606     -0.165000
     20 C4         -9.8680   -4.1330    0.8420 ca        1 606     -0.115000
     21 C5        -10.8650   -4.0780    1.8120 ca        1 606     -0.118000
     22 C6        -10.5500   -4.1660    3.1650 ca        1 606     -0.178000
     23 C7         -9.2060   -4.3140    3.5660 ca        1 606      0.091600
     24 N9         -8.8630   -4.3090    4.9420 nu        1 606     -0.711600
     25 C10        -9.6730   -5.1280    5.8370 c2        1 606      0.748100
     26 N12       -10.0890   -6.4050    5.3650 nv        1 606     -0.906800
     27 N11        -9.9760   -4.7530    7.0530 n2        1 606     -0.857100
     28 H29        -1.2280   -1.6790    0.0940 ha        1 606      0.139000
     29 H30         1.2210   -1.7990    0.5640 ha        1 606      0.119500
     30 H31         2.1060   -1.0780    2.7840 ha        1 606      0.116000
     31 H32         0.5370   -0.2390    4.5330 ha        1 606      0.119500
     32 H33        -1.9050   -0.1200    4.0670 ha        1 606      0.139000
     33 H271       -3.7090   -0.2650    2.5840 hc        1 606      0.054700
     34 H272       -3.3270   -0.2060    0.8170 hc        1 606      0.054700
     35 H261       -3.6510   -2.7570    2.5380 hc        1 606      0.044200
     36 H262       -3.2470   -2.7490    0.7800 hc        1 606      0.044200
     37 H251       -5.8410   -2.7740    1.9290 hc        1 606      0.059200
     38 H252       -5.6540   -1.0850    1.3730 hc        1 606      0.059200
     39 H231       -7.5460   -2.8940   -1.4380 hc        1 606      0.078200
     40 H232       -7.7320   -2.1680    0.1790 hc        1 606      0.078200
     41 H1         -6.4790   -4.6700    0.7090 hc        1 606      0.096700
     42 H8         -7.1450   -4.4900    2.8670 ha        1 606      0.138000
     43 H4        -10.1230   -4.0880   -0.2300 ha        1 606      0.161000
     44 H5        -11.9160   -3.9620    1.5080 ha        1 606      0.125000
     45 H6        -11.3500   -4.1030    3.9170 ha        1 606      0.126000
     46 HN9        -7.8850   -4.4730    5.0930 hn        1 606      0.403800
     47 H121      -10.2720   -6.4390    4.3840 hn        1 606      0.402800
     48 H122       -5.8300   -5.3260   -1.3740 ho        1 606      0.505000
     49 HN11       -9.5760   -3.8890    7.3480 hn        1 606      0.401400
     50 H123      -10.8090   -6.8290    5.9090 hn        1 606      0.402800
@<TRIPOS>BOND
     1    1    2 ar  
     2    1    6 ar  
     3    1   28 1   
     4    2    3 ar  
     5    2   29 1   
     6    3    4 ar  
     7    3   30 1   
     8    4    5 ar  
     9    4   31 1   
    10    5    6 ar  
    11    5   32 1   
    12    6    7 1   
    13    7    8 1   
    14    7   33 1   
    15    7   34 1   
    16    8    9 1   
    17    8   35 1   
    18    8   36 1   
    19    9   10 1   
    20    9   37 1   
    21    9   38 1   
    22   10   11 1   
    23   10   12 1   
    24   10   13 1   
    25   13   14 1   
    26   13   39 1   
    27   13   40 1   
    28   14   15 1   
    29   14   18 1   
    30   14   41 1   
    31   15   16 1   
    32   15   17 2   
    33   16   48 1   
    34   18   19 ar  
    35   18   20 ar  
    36   19   23 ar  
    37   19   42 1   
    38   20   21 ar  
    39   20   43 1   
    40   21   22 ar  
    41   21   44 1   
    42   22   23 ar  
    43   22   45 1   
    44   23   24 1   
    45   24   25 1   
    46   24   46 1   
    47   25   26 1   
    48   25   27 2   
    49   26   47 1   
    50   26   50 1   
    51   27   49 1   
@<TRIPOS>SUBSTRUCTURE
     1 606         1 TEMP              0 ****  ****    0 ROOT
