@<TRIPOS>MOLECULE
606
   50    51     1     0     0
SMALL
bcc


@<TRIPOS>ATOM
      1 C29        -0.3690   -1.2240    0.8260 ca        1 606     -0.128500
      2 C30         0.9980   -1.3150    1.0820 ca        1 606     -0.134000
      3 C31         1.5370   -0.7330    2.2290 ca        1 606     -0.147000
      4 C32         0.7030   -0.0630    3.1220 ca        1 606     -0.134000
      5 C33        -0.6650    0.0290    2.8690 ca        1 606     -0.128500
      6 C28        -1.2130   -0.5490    1.7180 ca        1 606     -0.058300
      7 C27        -2.6700   -0.4360    1.4330 c3        1 606     -0.033100
      8 C26        -3.3650   -1.7810    1.4040 c3        1 606     -0.068400
      9 C25        -4.8220   -1.6650    1.0530 c3        1 606     -0.353600
     10 P24        -5.4120   -3.2500    1.0160 p5        1 606      1.273400
     11 O34        -4.7820   -4.0130   -0.1040 o         1 606     -0.885500
     12 O35        -5.4510   -3.8330    2.3810 o         1 606     -0.885500
     13 C23        -7.0330   -2.9780    0.5030 c3        1 606     -0.343600
     14 C1         -7.7110   -4.3320    0.4030 c3        1 606     -0.078400
     15 C2         -7.9610   -4.6950   -1.0450 c         1 606      0.646100
     16 O14        -6.8860   -4.8350   -1.8590 oh        1 606     -0.621100
     17 O13        -9.0380   -4.9100   -1.6170 o         1 606     -0.566000
     18 C3         -8.9080   -4.4010    1.3020 ca        1 606     -0.035300
     19 C8         -8.6680   -4.6630    2.6580 ca        1 606     -0.153000
     20 C4        -10.2170   -4.1880    0.8620 ca        1 606     -0.130000
     21 C5        -11.2750   -4.2530    1.7670 ca        1 606     -0.130000
     22 C6        -11.0520   -4.5150    3.1140 ca        1 606     -0.176000
     23 C7         -9.7340   -4.7150    3.5790 ca        1 606      0.087600
     24 N9         -9.4790   -4.8710    4.9650 nh        1 606     -0.717600
     25 C10       -10.2390   -5.8660    5.7020 c2        1 606      0.757100
     26 N12       -10.6920   -7.0180    5.0010 nh        1 606     -0.905800
     27 N11       -10.4880   -5.7570    6.9840 n2        1 606     -0.875100
     28 H29        -0.7960   -1.6910   -0.0740 ha        1 606      0.135500
     29 H30         1.6510   -1.8510    0.3780 ha        1 606      0.121000
     30 H31         2.6150   -0.8070    2.4300 ha        1 606      0.118000
     31 H32         1.1230    0.3920    4.0310 ha        1 606      0.121000
     32 H33        -1.3200    0.5520    3.5820 ha        1 606      0.135500
     33 H271       -2.8050    0.0690    0.4380 hc        1 606      0.040700
     34 H272       -3.1640    0.2160    2.2030 hc        1 606      0.040700
     35 H261       -3.2840   -2.2850    2.4050 hc        1 606      0.065700
     36 H262       -2.8740   -2.4550    0.6490 hc        1 606      0.065700
     37 H251       -5.3540   -1.0430    1.8100 hc        1 606      0.061700
     38 H252       -4.9420   -1.1530    0.0690 hc        1 606      0.061700
     39 H231       -7.0590   -2.4530   -0.4800 hc        1 606      0.070200
     40 H232       -7.5720   -2.3280    1.2320 hc        1 606      0.070200
     41 H1         -6.9770   -5.1200    0.7760 hc        1 606      0.099700
     42 H8         -7.6220   -4.7960    3.0020 ha        1 606      0.192000
     43 H4        -10.4170   -3.9830   -0.2020 ha        1 606      0.163000
     44 H5        -12.3030   -4.0900    1.4110 ha        1 606      0.119000
     45 H6        -11.8990   -4.5440    3.8140 ha        1 606      0.122000
     46 HN9        -8.4980   -4.9290    5.1700 hn        1 606      0.418800
     47 H121      -10.8750   -6.8700    4.0320 hn        1 606      0.401800
     48 H122       -6.0460   -4.6330   -1.3740 ho        1 606      0.502000
     49 HN11      -10.0670   -4.9750    7.4350 hn        1 606      0.396400
     50 H123      -11.4160   -7.5230    5.4630 hn        1 606      0.401800
@<TRIPOS>BOND
     1    1    2 ar  
     2    1    6 ar  
     3    1   28 1   
     4    2    3 ar  
     5    2   29 1   
     6    3    4 ar  
     7    3   30 1   
     8    4    5 ar  
     9    4   31 1   
    10    5    6 ar  
    11    5   32 1   
    12    6    7 1   
    13    7    8 1   
    14    7   33 1   
    15    7   34 1   
    16    8    9 1   
    17    8   35 1   
    18    8   36 1   
    19    9   10 1   
    20    9   37 1   
    21    9   38 1   
    22   10   11 1   
    23   10   12 1   
    24   10   13 1   
    25   13   14 1   
    26   13   39 1   
    27   13   40 1   
    28   14   15 1   
    29   14   18 1   
    30   14   41 1   
    31   15   16 1   
    32   15   17 2   
    33   16   48 1   
    34   18   19 ar  
    35   18   20 ar  
    36   19   23 ar  
    37   19   42 1   
    38   20   21 ar  
    39   20   43 1   
    40   21   22 ar  
    41   21   44 1   
    42   22   23 ar  
    43   22   45 1   
    44   23   24 1   
    45   24   25 1   
    46   24   46 1   
    47   25   26 1   
    48   25   27 2   
    49   26   47 1   
    50   26   50 1   
    51   27   49 1   
@<TRIPOS>SUBSTRUCTURE
     1 606         1 TEMP              0 ****  ****    0 ROOT
