@<TRIPOS>MOLECULE
606
   50    45     1     0     0
SMALL
bcc


@<TRIPOS>ATOM
      1 C29         5.3170   -3.5700    2.2370 c1        1 606     -0.132000
      2 C30         5.8790   -4.6020    2.9720 c1        1 606     -0.139667
      3 C31         5.5760   -4.7390    4.3180 c1        1 606     -0.139667
      4 C32         4.7120   -3.8440    4.9290 c1        1 606     -0.139667
      5 C33         4.1500   -2.8120    4.1940 c1        1 606     -0.139667
      6 C28         4.4530   -2.6740    2.8480 c1        1 606     -0.062000
      7 C27         3.8600   -1.5310    2.0520 c3        1 606     -0.125000
      8 C26         2.3750   -1.7580    1.8730 c3        1 606     -0.143000
      9 C25         1.8780   -0.9430    0.6990 c3        1 606     -0.886000
     10 P24         0.4220    0.0180    1.2010 p5        1 606      2.828000
     11 O34         0.8300    1.4060    1.5120 o         1 606     -1.155000
     12 O35        -0.2270   -0.6400    2.4840 oh        1 606     -0.863000
     13 C23        -0.7910    0.0320   -0.1510 c3        1 606     -0.909000
     14 C1         -1.1840    1.4600   -0.4620 c3        1 606     -0.149000
     15 C2         -1.5650    2.1670    0.8180 c2        1 606      0.337000
     16 O14        -0.8680    3.1280    1.2380 o         1 606     -0.556000
     17 O13        -2.5920    1.8100    1.4520 o         1 606     -0.556000
     18 C3         -2.3630    1.4630   -1.4120 c2        1 606      0.000000
     19 C8         -2.3950    2.3550   -2.4740 c2        1 606     -0.168000
     20 C4         -3.3920    0.5500   -1.2430 c1        1 606     -0.120000
     21 C5         -4.4530    0.5280   -2.1350 c1        1 606     -0.139667
     22 C6         -4.4840    1.4180   -3.1970 c1        1 606     -0.139667
     23 C7         -3.4550    2.3320   -3.3670 c1        1 606     -0.006000
     24 N9         -3.4380    3.1770   -4.5120 n3        1 606     -0.271000
     25 C10        -4.6450    3.7600   -4.9850 c2        1 606      0.158000
     26 N12        -4.7190    5.1600   -5.2040 n3        1 606     -0.346000
     27 N11        -5.6880    3.0060   -5.2170 n1        1 606     -0.336000
     28 H29         5.5300   -3.4730    1.2900 ha        1 606      0.127000
     29 H30         6.4870   -5.2320    2.5420 ha        1 606      0.126667
     30 H31         5.9720   -5.4660    4.8350 ha        1 606      0.126667
     31 H32         4.4990   -3.9410    5.8760 ha        1 606      0.126667
     32 H33         3.5420   -2.1810    4.6240 ha        1 606      0.126667
     33 H271        4.2920   -1.4870    1.1760 hc        1 606      0.086000
     34 H272        4.0060   -0.6910    2.5310 hc        1 606      0.086000
     35 H261        1.9030   -1.4830    2.6840 hc        1 606      0.103000
     36 H262        2.2080   -2.7080    1.7050 hc        1 606      0.103000
     37 H251        1.6360   -1.5430   -0.0350 hc        1 606      0.134000
     38 H252        2.5840   -0.3340    0.4030 hc        1 606      0.134000
     39 HO35       -0.2360   -0.0500    3.1470 ho        1 606      0.317000
     40 H231       -1.5840   -0.4730    0.1170 hc        1 606      0.139000
     41 H232       -0.3970   -0.3790   -0.9470 hc        1 606      0.139000
     42 H1         -0.4300    1.9210   -0.8770 hc        1 606      0.097000
     43 H8         -1.6700    2.9980   -2.5930 ha        1 606      0.142000
     44 H4         -3.3700   -0.0770   -0.4960 ha        1 606      0.186000
     45 H5         -5.1770   -0.1150   -2.0160 ha        1 606      0.126667
     46 H6         -5.2300    1.4020   -3.8240 ha        1 606      0.126667
     47 HN9        -2.6540    3.3320   -4.9520 hn        1 606      0.197000
     48 H121       -4.0610    5.7080   -4.8840 hn        1 606      0.199000
     49 H122       -5.4060    5.5100   -5.6950 hn        1 606      0.199000
     50 HN11       -5.6400    2.1060   -5.0760 DU        1 606      0.152000
@<TRIPOS>BOND
     1    1    6 1   
     2    1   28 1   
     3    2    3 1   
     4    2   29 1   
     5    3   30 1   
     6    4    5 1   
     7    4   31 1   
     8    5   32 1   
     9    6    7 1   
    10    7    8 1   
    11    7   33 1   
    12    7   34 1   
    13    8    9 1   
    14    8   35 1   
    15    8   36 1   
    16    9   10 1   
    17    9   37 1   
    18    9   38 1   
    19   10   11 1   
    20   10   12 1   
    21   10   13 1   
    22   12   39 1   
    23   13   14 1   
    24   13   40 1   
    25   13   41 1   
    26   14   15 1   
    27   14   18 1   
    28   14   42 1   
    29   15   16 1   
    30   15   17 1   
    31   18   19 1   
    32   18   20 1   
    33   19   23 1   
    34   19   43 1   
    35   20   44 1   
    36   21   22 1   
    37   21   45 1   
    38   22   46 1   
    39   23   24 1   
    40   24   25 1   
    41   24   47 1   
    42   25   26 1   
    43   25   27 1   
    44   26   48 1   
    45   26   49 1   
@<TRIPOS>SUBSTRUCTURE
     1 606         1 TEMP              0 ****  ****    0 ROOT
