@<TRIPOS>MOLECULE
606
   52    53     1     0     0
SMALL
bcc


@<TRIPOS>ATOM
      1 C29        -0.5820   -2.2540    1.1230 ca        1 606     -0.126000
      2 C30         0.6690   -2.6260    1.6120 ca        1 606     -0.122500
      3 C31         1.1060   -2.1510    2.8500 ca        1 606     -0.118000
      4 C32         0.2880   -1.3020    3.5960 ca        1 606     -0.122500
      5 C33        -0.9640   -0.9300    3.1080 ca        1 606     -0.126000
      6 C28        -1.4070   -1.4050    1.8700 ca        1 606     -0.102300
      7 C27        -2.7360   -0.9970    1.3370 c3        1 606     -0.024100
      8 C26        -3.7440   -2.1220    1.4570 c3        1 606     -0.065400
      9 C25        -5.1010   -1.7480    0.9010 c3        1 606     -0.478600
     10 P24        -6.0880   -3.0180    1.1150 p5        1 606      1.575100
     11 O34        -6.1240   -3.6460    2.4520 o         1 606     -0.960300
     12 O35        -5.6280   -4.1720    0.0990 oh        1 606     -0.813400
     13 C23        -7.5750   -2.5490    0.5680 c3        1 606     -0.436600
     14 C1         -8.5150   -3.7160    0.3130 c3        1 606     -0.079400
     15 C2         -9.3580   -3.3780   -0.9070 c         1 606      0.620100
     16 O14       -10.4950   -2.9170   -0.9210 o         1 606     -0.452000
     17 O13        -8.8130   -3.5640   -2.1420 oh        1 606     -0.559100
     18 C3         -9.3830   -4.1420    1.4620 ca        1 606     -0.060300
     19 C8         -9.0310   -3.8290    2.7750 ca        1 606     -0.143000
     20 C4        -10.5080   -4.9500    1.2330 ca        1 606     -0.069000
     21 C5        -11.2290   -5.4680    2.3070 ca        1 606     -0.098000
     22 C6        -10.8400   -5.2160    3.6230 ca        1 606     -0.091000
     23 C7         -9.7240   -4.3950    3.8580 ca        1 606     -0.038400
     24 N9         -9.2600   -4.1350    5.2090 n4        1 606     -0.630200
     25 C10        -8.0310   -5.0680    5.6980 c2        1 606      0.053000
     26 N12        -6.9330   -4.9320    4.6810 n4        1 606     -0.743400
     27 N11        -8.0960   -5.7150    6.7240 n1        1 606     -0.166000
     28 H29        -0.9180   -2.6200    0.1420 ha        1 606      0.128500
     29 H30         1.3160   -3.2890    1.0180 ha        1 606      0.140500
     30 H31         2.0960   -2.4410    3.2330 ha        1 606      0.143000
     31 H32         0.6340   -0.9200    4.5680 ha        1 606      0.140500
     32 H33        -1.5990   -0.2510    3.6970 ha        1 606      0.128500
     33 H271       -2.6330   -0.7050    0.2570 hc        1 606      0.056200
     34 H272       -3.1160   -0.0970    1.8890 hc        1 606      0.056200
     35 H261       -3.8670   -2.4130    2.5350 hc        1 606      0.056700
     36 H262       -3.3710   -3.0240    0.9010 hc        1 606      0.056700
     37 H251       -4.9680   -1.4480   -0.1750 hc        1 606      0.128700
     38 H252       -5.4460   -0.8050    1.4060 hc        1 606      0.128700
     39 HO35       -5.1390   -4.9120    0.4480 ho        1 606      0.492000
     40 H231       -8.0800   -1.8220    1.2590 hc        1 606      0.129200
     41 H232       -7.4780   -1.9700   -0.3970 hc        1 606      0.129200
     42 H1         -7.8780   -4.6190    0.0500 hc        1 606      0.091700
     43 H8         -8.1720   -3.1550    2.9490 ha        1 606      0.151000
     44 H4        -10.8330   -5.1650    0.2000 ha        1 606      0.175000
     45 H5        -12.1190   -6.0930    2.1170 ha        1 606      0.174000
     46 H6        -11.4090   -5.6620    4.4550 ha        1 606      0.166000
     47 HN9        -8.9990   -3.1540    5.2980 hn        1 606      0.439300
     48 H121       -7.2260   -5.2390    3.7460 hn        1 606      0.463800
     49 H122       -6.1540   -5.5200    4.9920 hn        1 606      0.463800
     50 HN11       -7.9310   -3.9590   -2.0740 ho        1 606      0.435000
     51 H92       -10.0200   -4.3280    5.8700 hn        1 606      0.439300
     52 H123       -6.5930   -3.9680    4.5780 hn        1 606      0.463800
@<TRIPOS>BOND
     1    1    2 ar  
     2    1    6 ar  
     3    1   28 1   
     4    2    3 ar  
     5    2   29 1   
     6    3    4 ar  
     7    3   30 1   
     8    4    5 ar  
     9    4   31 1   
    10    5    6 ar  
    11    5   32 1   
    12    6    7 1   
    13    7    8 1   
    14    7   33 1   
    15    7   34 1   
    16    8    9 1   
    17    8   35 1   
    18    8   36 1   
    19    9   10 1   
    20    9   37 1   
    21    9   38 1   
    22   10   11 2   
    23   10   12 1   
    24   10   13 1   
    25   12   39 1   
    26   13   14 1   
    27   13   40 1   
    28   13   41 1   
    29   14   15 1   
    30   14   18 1   
    31   14   42 1   
    32   15   16 2   
    33   15   17 1   
    34   17   50 1   
    35   18   19 ar  
    36   18   20 ar  
    37   19   23 ar  
    38   19   43 1   
    39   20   21 ar  
    40   20   44 1   
    41   21   22 ar  
    42   21   45 1   
    43   22   23 ar  
    44   22   46 1   
    45   23   24 1   
    46   24   25 1   
    47   24   47 1   
    48   24   51 1   
    49   25   26 1   
    50   25   27 2   
    51   26   48 1   
    52   26   49 1   
    53   26   52 1   
@<TRIPOS>SUBSTRUCTURE
     1 606         1 TEMP              0 ****  ****    0 ROOT
