@<TRIPOS>MOLECULE
608
   52    55     1     0     0
SMALL
bcc


@<TRIPOS>ATOM
      1 C10        -0.2720   -0.3690    0.0310 ca        1 608     -0.164000
      2 C11         0.9970   -0.5770   -0.4840 ca        1 608     -0.060500
      3 C12         2.0090    0.3770   -0.2510 ca        1 608     -0.170400
      4 C13         1.7370    1.5500    0.4890 ca        1 608     -0.060500
      5 C14         0.4720    1.7560    1.0020 ca        1 608     -0.164000
      6 C15        -0.5470    0.7950    0.7760 ca        1 608      0.227100
      7 C16         8.0150   -6.2360   -2.4010 ca        1 608      0.423200
      8 N4          7.2370   -7.3350   -2.3910 nb        1 608     -0.598000
      9 C17         7.9160   -5.2080   -1.4420 ca        1 608     -0.223800
     10 C18         6.9630   -5.3430   -0.4250 ca        1 608     -0.164300
     11 C8          6.1500   -6.4830   -0.3970 ca        1 608     -0.223800
     12 C9          6.3290   -7.4530   -1.4040 ca        1 608      0.423200
     13 C19         4.7180   -1.0970    0.8780 ca        1 608     -0.285900
     14 C20         4.5360   -0.0970    1.8530 ca        1 608     -0.030000
     15 C21         5.2280   -0.1560    3.0590 ca        1 608     -0.190300
     16 C22         6.1040   -1.2390    3.2780 ca        1 608      0.505200
     17 N3          6.2890   -2.2220    2.3790 nb        1 608     -0.635000
     18 C23         5.6120   -2.1700    1.2070 ca        1 608      0.557200
     19 N1          5.8200   -3.2870    0.2590 n4        1 608     -0.762700
     20 C7          6.8590   -4.3180    0.6500 c3        1 608      0.191100
     21 C24         4.0060   -1.0680   -0.4050 c         1 608      0.571700
     22 N2          3.3310    0.1960   -0.8560 n4        1 608     -0.502200
     23 O1          3.9250   -2.0080   -1.1970 o         1 608     -0.474100
     24 O2         -1.7530    1.0990    1.3280 os        1 608     -0.201200
     25 C1         -4.3380   -1.4470    1.9070 ca        1 608     -0.112000
     26 C2         -5.1160   -1.2910    0.7580 ca        1 608     -0.096000
     27 C3         -4.7460   -0.3760   -0.2300 ca        1 608     -0.112000
     28 C4         -3.5910    0.3910   -0.0810 ca        1 608     -0.119000
     29 C5         -2.8230    0.2170    1.0760 ca        1 608      0.018100
     30 C6         -3.1770   -0.6930    2.0780 ca        1 608     -0.119000
     31 H10        -1.0750   -1.1050   -0.1500 ha        1 608      0.196000
     32 H11         1.1980   -1.4840   -1.0790 ha        1 608      0.155000
     33 H13         2.5080    2.3240    0.6450 ha        1 608      0.155000
     34 H14         0.2310    2.6680    1.5770 ha        1 608      0.196000
     35 H8          5.4110   -6.6470    0.3990 ha        1 608      0.153000
     36 H9          5.7180   -8.3770   -1.4170 h4        1 608      0.061100
     37 H20         3.8240    0.7330    1.6910 ha        1 608      0.178000
     38 H21         5.0970    0.6200    3.8350 ha        1 608      0.212000
     39 H22         6.6910   -1.3420    4.2200 h4        1 608      0.098100
     40 HN1         4.9130   -3.7660    0.1330 hn        1 608      0.468800
     41 H71         6.5380   -4.7850    1.6270 hx        1 608      0.128200
     42 H72         7.8420   -3.7850    0.8020 hx        1 608      0.128200
     43 HN2         3.2030    0.1400   -1.8830 hn        1 608      0.477300
     44 H1         -4.6450   -2.1600    2.6890 ha        1 608      0.160000
     45 H2         -6.0360   -1.8860    0.6350 ha        1 608      0.161000
     46 H3         -5.3740   -0.2480   -1.1260 ha        1 608      0.160000
     47 H4         -3.3030    1.1330   -0.8390 ha        1 608      0.152500
     48 H6         -2.5700   -0.7860    2.9900 ha        1 608      0.152500
     49 H16         8.7620   -6.1810   -3.2180 h4        1 608      0.061100
     50 H12         6.0850   -2.8890   -0.6550 hn        1 608      0.468800
     51 H221        3.9220    1.0080   -0.6370 hn        1 608      0.477300
     52 H17         8.5960   -4.3460   -1.4880 ha        1 608      0.153000
@<TRIPOS>BOND
     1    1    2 ar  
     2    1    6 ar  
     3    1   31 1   
     4    2    3 ar  
     5    2   32 1   
     6    3    4 ar  
     7    3   22 1   
     8    4    5 ar  
     9    4   33 1   
    10    5    6 ar  
    11    5   34 1   
    12    6   24 1   
    13    7    8 ar  
    14    7    9 ar  
    15    7   49 1   
    16    8   12 ar  
    17    9   10 ar  
    18    9   52 1   
    19   10   11 ar  
    20   10   20 1   
    21   11   12 ar  
    22   11   35 1   
    23   12   36 1   
    24   13   14 ar  
    25   13   18 ar  
    26   13   21 1   
    27   14   15 ar  
    28   14   37 1   
    29   15   16 ar  
    30   15   38 1   
    31   16   17 ar  
    32   16   39 1   
    33   17   18 ar  
    34   18   19 1   
    35   19   20 1   
    36   19   40 1   
    37   19   50 1   
    38   20   41 1   
    39   20   42 1   
    40   21   22 1   
    41   21   23 2   
    42   22   43 1   
    43   22   51 1   
    44   24   29 1   
    45   25   26 ar  
    46   25   30 ar  
    47   25   44 1   
    48   26   27 ar  
    49   26   45 1   
    50   27   28 ar  
    51   27   46 1   
    52   28   29 ar  
    53   28   47 1   
    54   29   30 ar  
    55   30   48 1   
@<TRIPOS>SUBSTRUCTURE
     1 608         1 TEMP              0 ****  ****    0 ROOT
