@<TRIPOS>MOLECULE
608
   50    42     1     0     0
SMALL
bcc


@<TRIPOS>ATOM
      1 C10        -2.1800    1.8120   -1.5490 c1        1 608     -0.139000
      2 C11        -0.7930    1.7050   -1.5320 c1        1 608     -0.163000
      3 C12        -0.1840    0.5240   -1.9310 c1        1 608      0.060000
      4 C13        -0.9580   -0.5490   -2.3450 c2        1 608     -0.134000
      5 C14        -2.3500   -0.4410   -2.3620 c1        1 608     -0.114000
      6 C15        -2.9560    0.7350   -1.9660 c1        1 608      0.029000
      7 C16         1.0780   -2.8370    4.8370 c1        1 608     -0.035000
      8 N4          1.0090   -1.5580    5.3080 n1        1 608     -0.173000
      9 C17         1.9260   -3.1440    3.7860 c1        1 608     -0.173000
     10 C18         2.6950   -2.1650    3.2190 c1        1 608     -0.082000
     11 C8          2.6230   -0.8810    3.6940 c1        1 608     -0.128167
     12 C9          1.7750   -0.5790    4.7440 c1        1 608     -0.128167
     13 C19         3.4580   -0.6250   -0.9900 c1        1 608     -0.262000
     14 C20         4.2130    0.2290   -1.7420 c1        1 608     -0.128167
     15 C21         5.5670    0.2880   -1.5590 c1        1 608     -0.128167
     16 C22         6.1750   -0.5220   -0.6070 c1        1 608     -0.035000
     17 N3          5.4230   -1.3760    0.1450 n1        1 608     -0.173000
     18 C23         4.0680   -1.4370   -0.0360 c1        1 608      0.198000
     19 N1          3.2600   -2.2210    0.8630 n3        1 608     -0.290000
     20 C7          3.7500   -2.5320    2.1900 c3        1 608      0.009000
     21 C24         1.9100   -0.6100   -1.1220 c2        1 608      0.367000
     22 N2          1.2630    0.4150   -1.9270 n2        1 608     -0.322000
     23 O1          1.2390   -1.3690   -0.4560 o         1 608     -0.365000
     24 O2         -4.3010    0.2990   -2.0400 os        1 608     -0.157000
     25 C1         -6.7580    3.0700   -2.2910 c1        1 608     -0.107000
     26 C2         -7.0130    3.3240   -0.9540 c1        1 608     -0.128167
     27 C3         -6.3460    2.6020    0.0300 c1        1 608     -0.128167
     28 C4         -5.4260    1.6280   -0.3290 c1        1 608     -0.179000
     29 C5         -5.1710    1.3730   -1.6690 c2        1 608      0.063000
     30 C6         -5.8360    2.0930   -2.6500 c2        1 608     -0.146000
     31 H10        -2.6080    2.6410   -1.2700 ha        1 608      0.150000
     32 H11        -0.2540    2.4540   -1.2430 ha        1 608      0.133000
     33 H13        -0.5340   -1.3730   -2.6230 ha        1 608      0.175000
     34 H14        -2.8900   -1.1890   -2.6510 ha        1 608      0.154000
     35 H16         0.5280   -3.5370    5.2430 ha        1 608      0.160500
     36 H17         1.9760   -4.0630    3.4480 ha        1 608      0.144000
     37 H8          3.1750   -0.1750    3.2880 ha        1 608      0.145833
     38 H9          1.7240    0.3440    5.0860 ha        1 608      0.145833
     39 H20         3.7880    0.7970   -2.4090 ha        1 608      0.145833
     40 H21         6.1090    0.9020   -2.0990 ha        1 608      0.145833
     41 H22         7.1420   -0.4800   -0.4760 ha        1 608      0.160500
     42 HN1         2.4390   -2.5160    0.6000 hn        1 608      0.249000
     43 H71         4.5670   -2.0220    2.3640 h1        1 608      0.115000
     44 H72         3.9450   -3.4910    2.2500 h1        1 608      0.115000
     45 HN2         1.7600    1.0540   -2.3210 hn        1 608      0.234000
     46 H1         -7.2280    3.5790   -2.9840 ha        1 608      0.135000
     47 H2         -7.6600    4.0100   -0.7020 ha        1 608      0.145833
     48 H3         -6.5260    2.7810    0.9770 ha        1 608      0.145833
     49 H4         -4.9570    1.1190    0.3630 ha        1 608      0.147000
     50 H6         -5.6560    1.9140   -3.5980 ha        1 608      0.150000
@<TRIPOS>BOND
     1    1    6 1   
     2    1   31 1   
     3    2    3 1   
     4    2   32 1   
     5    3    4 1   
     6    4    5 1   
     7    4   33 1   
     8    5   34 1   
     9    6   24 1   
    10    7    8 1   
    11    7   35 1   
    12    9   10 1   
    13    9   36 1   
    14   10   20 1   
    15   11   12 1   
    16   11   37 1   
    17   12   38 1   
    18   13   18 1   
    19   13   21 1   
    20   14   15 1   
    21   14   39 1   
    22   15   40 1   
    23   16   17 1   
    24   16   41 1   
    25   18   19 1   
    26   19   20 1   
    27   19   42 1   
    28   20   43 1   
    29   20   44 1   
    30   21   22 1   
    31   21   23 1   
    32   22   45 1   
    33   24   29 1   
    34   25   30 1   
    35   25   46 1   
    36   26   27 1   
    37   26   47 1   
    38   27   48 1   
    39   28   29 1   
    40   28   49 1   
    41   29   30 1   
    42   30   50 1   
@<TRIPOS>SUBSTRUCTURE
     1 608         1 TEMP              0 ****  ****    0 ROOT
