@<TRIPOS>MOLECULE
608
   50    53     1     0     0
SMALL
bcc


@<TRIPOS>ATOM
      1 C10         2.6630   -2.1880    2.1290 ca        1 608     -0.128500
      2 C11         2.6660   -2.1170    0.7400 ca        1 608     -0.147000
      3 C12         1.8270   -1.1990    0.0700 ca        1 608      0.049600
      4 C13         0.9870   -0.3570    0.8400 ca        1 608     -0.147000
      5 C14         0.9880   -0.4260    2.2260 ca        1 608     -0.128500
      6 C15         1.8270   -1.3470    2.8690 ca        1 608      0.077100
      7 C16         9.4310   -0.3340   -4.1230 ca        1 608      0.393700
      8 N4          9.5380    0.4590   -3.0390 nb        1 608     -0.660000
      9 C17         8.2150   -0.6000   -4.7770 ca        1 608     -0.234300
     10 C18         7.0470   -0.0060   -4.2840 ca        1 608     -0.066300
     11 C8          7.1410    0.8220   -3.1590 ca        1 608     -0.234300
     12 C9          8.4050    1.0200   -2.5740 ca        1 608      0.393700
     13 C19         2.3800   -1.3330   -3.6740 ca        1 608     -0.339900
     14 C20         1.0970   -1.5790   -4.1740 ca        1 608     -0.028000
     15 C21         0.8240   -1.3610   -5.5190 ca        1 608     -0.312300
     16 C22         1.8730   -0.8960   -6.3350 ca        1 608      0.465200
     17 N3          3.1150   -0.6550   -5.9090 nb        1 608     -0.734000
     18 C23         3.3990   -0.8640   -4.5740 ca        1 608      0.705200
     19 N1          4.6580   -0.5400   -4.0830 nh        1 608     -0.848900
     20 C7          5.7420   -0.2300   -4.9890 c3        1 608      0.246100
     21 C24         2.6910   -1.5950   -2.2430 c         1 608      0.697700
     22 N2          1.7700   -1.0990   -1.3310 n         1 608     -0.464100
     23 O1          3.7110   -2.2240   -1.8960 o         1 608     -0.607100
     24 O2          1.6870   -1.4390    4.2510 os        1 608     -0.249200
     25 C1          5.1890   -1.2720    5.4510 ca        1 608     -0.106000
     26 C2          5.0400   -1.9270    6.6730 ca        1 608     -0.152000
     27 C3          3.7930   -2.4280    7.0510 ca        1 608     -0.106000
     28 C4          2.6900   -2.2850    6.2130 ca        1 608     -0.161000
     29 C5          2.8540   -1.6200    4.9870 ca        1 608      0.107100
     30 C6          4.0990   -1.1110    4.5980 ca        1 608     -0.161000
     31 H10         3.3190   -2.9040    2.6460 ha        1 608      0.152500
     32 H11         3.3330   -2.7860    0.1720 ha        1 608      0.154000
     33 H13         0.3200    0.3680    0.3470 ha        1 608      0.154000
     34 H14         0.3320    0.2250    2.8220 ha        1 608      0.152500
     35 H17         8.1900   -1.2590   -5.6540 ha        1 608      0.149500
     36 H8          6.2530    1.3130   -2.7390 ha        1 608      0.149500
     37 H9          8.5180    1.6640   -1.6840 h4        1 608      0.024100
     38 H20         0.3080   -1.9630   -3.5080 ha        1 608      0.142000
     39 H21        -0.1710   -1.5490   -5.9400 ha        1 608      0.150000
     40 H22         1.7070   -0.7110   -7.4140 h4        1 608      0.025100
     41 HN1         4.9220   -1.0060   -3.2360 hn        1 608      0.451800
     42 H71         5.4740    0.7150   -5.5490 h1        1 608      0.065200
     43 H72         5.8690   -1.0510   -5.7560 h1        1 608      0.065200
     44 HN2         1.0380   -0.5280   -1.6920 hn        1 608      0.320500
     45 H1          6.1720   -0.8750    5.1550 ha        1 608      0.135000
     46 H2          5.9050   -2.0480    7.3410 ha        1 608      0.134000
     47 H3          3.6770   -2.9430    8.0160 ha        1 608      0.135000
     48 H4          1.7020   -2.6720    6.4960 ha        1 608      0.149000
     49 H6          4.2090   -0.5960    3.6330 ha        1 608      0.149000
     50 H16        10.3740   -0.7820   -4.4840 h4        1 608      0.024100
@<TRIPOS>BOND
     1    1    2 ar  
     2    1    6 ar  
     3    1   31 1   
     4    2    3 ar  
     5    2   32 1   
     6    3    4 ar  
     7    3   22 1   
     8    4    5 ar  
     9    4   33 1   
    10    5    6 ar  
    11    5   34 1   
    12    6   24 1   
    13    7    8 ar  
    14    7    9 ar  
    15    7   50 1   
    16    8   12 ar  
    17    9   10 ar  
    18    9   35 1   
    19   10   11 ar  
    20   10   20 1   
    21   11   12 ar  
    22   11   36 1   
    23   12   37 1   
    24   13   14 ar  
    25   13   18 ar  
    26   13   21 1   
    27   14   15 ar  
    28   14   38 1   
    29   15   16 ar  
    30   15   39 1   
    31   16   17 ar  
    32   16   40 1   
    33   17   18 ar  
    34   18   19 1   
    35   19   20 1   
    36   19   41 1   
    37   20   42 1   
    38   20   43 1   
    39   21   22 1   
    40   21   23 2   
    41   22   44 1   
    42   24   29 1   
    43   25   26 ar  
    44   25   30 ar  
    45   25   45 1   
    46   26   27 ar  
    47   26   46 1   
    48   27   28 ar  
    49   27   47 1   
    50   28   29 ar  
    51   28   48 1   
    52   29   30 ar  
    53   30   49 1   
@<TRIPOS>SUBSTRUCTURE
     1 608         1 TEMP              0 ****  ****    0 ROOT
