@<TRIPOS>MOLECULE
608
   50    53     1     0     0
SMALL
bcc


@<TRIPOS>ATOM
      1 C10        -0.1620   -0.0940   -0.1400 ca        1 608     -0.128500
      2 C11         1.2260   -0.1530   -0.0780 ca        1 608     -0.147000
      3 C12         1.9030    0.1970    1.1090 ca        1 608      0.049600
      4 C13         1.1430    0.6070    2.2330 ca        1 608     -0.147000
      5 C14        -0.2420    0.6610    2.1720 ca        1 608     -0.128500
      6 C15        -0.8930    0.3120    0.9800 ca        1 608      0.077100
      7 C16         5.9610   -7.1150   -1.3830 ca        1 608      0.393700
      8 N4          4.8700   -7.5320   -0.7120 nb        1 608     -0.660000
      9 C17         6.6370   -5.9150   -1.1010 ca        1 608     -0.234300
     10 C18         6.1600   -5.1070   -0.0620 ca        1 608     -0.066300
     11 C8          5.0290   -5.5270    0.6460 ca        1 608     -0.234300
     12 C9          4.4210   -6.7420    0.2820 ca        1 608      0.393700
     13 C19         5.6390   -0.3120    0.7460 ca        1 608     -0.339900
     14 C20         6.1620    0.9420    1.0740 ca        1 608     -0.028000
     15 C21         7.5100    1.0710    1.3870 ca        1 608     -0.312300
     16 C22         8.3050   -0.0900    1.3550 ca        1 608      0.465200
     17 N3          7.8570   -1.3080    1.0390 nb        1 608     -0.734000
     18 C23         6.5190   -1.4500    0.7310 ca        1 608      0.705200
     19 N1          6.0030   -2.7170    0.4820 nh        1 608     -0.848900
     20 C7          6.8890   -3.8450    0.2950 c3        1 608      0.246100
     21 C24         4.2040   -0.4540    0.3780 c         1 608      0.697700
     22 N2          3.3040    0.1800    1.2230 n         1 608     -0.464100
     23 O1          3.8440   -1.0980   -0.6280 o         1 608     -0.607100
     24 O2         -2.2720    0.5030    0.9590 os        1 608     -0.249200
     25 C1         -3.5320   -2.7110   -0.3910 ca        1 608     -0.106000
     26 C2         -4.7490   -2.2740   -0.9130 ca        1 608     -0.152000
     27 C3         -5.1030   -0.9270   -0.8290 ca        1 608     -0.106000
     28 C4         -4.2470   -0.0070   -0.2290 ca        1 608     -0.161000
     29 C5         -3.0270   -0.4610    0.2960 ca        1 608      0.107100
     30 C6         -2.6610   -1.8100    0.2200 ca        1 608     -0.161000
     31 H10        -0.6860   -0.3690   -1.0680 ha        1 608      0.152500
     32 H11         1.7870   -0.4770   -0.9710 ha        1 608      0.154000
     33 H13         1.6420    0.8880    3.1730 ha        1 608      0.154000
     34 H14        -0.8320    0.9840    3.0420 ha        1 608      0.152500
     35 H17         7.5190   -5.6250   -1.6880 ha        1 608      0.149500
     36 H8          4.6210   -4.9280    1.4720 ha        1 608      0.149500
     37 H9          3.5250   -7.1050    0.8170 h4        1 608      0.024100
     38 H20         5.5120    1.8320    1.0680 ha        1 608      0.142000
     39 H21         7.9490    2.0420    1.6450 ha        1 608      0.150000
     40 H22         9.3860   -0.0400    1.5920 h4        1 608      0.025100
     41 HN1         5.1560   -2.7400   -0.0510 hn        1 608      0.451800
     42 H71         7.4470   -4.0190    1.2630 h1        1 608      0.065200
     43 H72         7.6590   -3.6210   -0.5020 h1        1 608      0.065200
     44 HN2         3.6740    0.5890    2.0530 hn        1 608      0.320500
     45 H1         -3.2540   -3.7740   -0.4560 ha        1 608      0.135000
     46 H2         -5.4300   -2.9920   -1.3920 ha        1 608      0.134000
     47 H3         -6.0640   -0.5840   -1.2410 ha        1 608      0.135000
     48 H4         -4.5130    1.0570   -0.1530 ha        1 608      0.149000
     49 H6         -1.7010   -2.1470    0.6350 ha        1 608      0.149000
     50 H16         6.3090   -7.7800   -2.1940 h4        1 608      0.024100
@<TRIPOS>BOND
     1    1    2 ar  
     2    1    6 ar  
     3    1   31 1   
     4    2    3 ar  
     5    2   32 1   
     6    3    4 ar  
     7    3   22 1   
     8    4    5 ar  
     9    4   33 1   
    10    5    6 ar  
    11    5   34 1   
    12    6   24 1   
    13    7    8 ar  
    14    7    9 ar  
    15    7   50 1   
    16    8   12 ar  
    17    9   10 ar  
    18    9   35 1   
    19   10   11 ar  
    20   10   20 1   
    21   11   12 ar  
    22   11   36 1   
    23   12   37 1   
    24   13   14 ar  
    25   13   18 ar  
    26   13   21 1   
    27   14   15 ar  
    28   14   38 1   
    29   15   16 ar  
    30   15   39 1   
    31   16   17 ar  
    32   16   40 1   
    33   17   18 ar  
    34   18   19 1   
    35   19   20 1   
    36   19   41 1   
    37   20   42 1   
    38   20   43 1   
    39   21   22 1   
    40   21   23 2   
    41   22   44 1   
    42   24   29 1   
    43   25   26 ar  
    44   25   30 ar  
    45   25   45 1   
    46   26   27 ar  
    47   26   46 1   
    48   27   28 ar  
    49   27   47 1   
    50   28   29 ar  
    51   28   48 1   
    52   29   30 ar  
    53   30   49 1   
@<TRIPOS>SUBSTRUCTURE
     1 608         1 TEMP              0 ****  ****    0 ROOT
