@<TRIPOS>MOLECULE
609
   33    37     1     0     0
SMALL
bcc


@<TRIPOS>ATOM
      1 CAW         1.0190    0.3900    0.0040 ca        1 609      0.019000
      2 CAR         2.4410    0.4010   -0.0020 ca        1 609     -0.056000
      3 CAI         3.1150    1.6530    0.0130 ca        1 609     -0.018000
      4 CAF         2.4100    2.8360    0.0420 ca        1 609     -0.207000
      5 CAJ         1.0040    2.8300    0.0550 ca        1 609     -0.031000
      6 CAS         0.3130    1.6290    0.0350 ca        1 609     -0.192600
      7 CAP        -1.1640    1.6630    0.0430 c         1 609      0.747100
      8 OAB        -1.8390    2.7080    0.0740 o         1 609     -0.630500
      9 NAX        -1.8110    0.4160    0.0120 n         1 609     -0.283500
     10 CAU        -3.1850    0.1130    0.0050 ca        1 609     -0.020400
     11 CAK        -4.3300    0.9090    0.0280 ca        1 609     -0.109000
     12 CAE        -5.5610    0.2610    0.0110 ca        1 609     -0.139000
     13 CAD        -5.6560   -1.1370   -0.0270 ca        1 609     -0.152000
     14 CAH        -4.5270   -1.9490   -0.0500 ca        1 609     -0.092000
     15 CAQ        -3.2690   -1.3380   -0.0340 ca        1 609      0.083400
     16 NAM        -1.9710   -1.8950   -0.0500 nc        1 609     -0.587100
     17 CAV        -1.1240   -0.8470   -0.0220 cd        1 609      0.499500
     18 CAT         0.3320   -0.8590   -0.0220 ca        1 609     -0.192900
     19 CAL         1.0470   -2.0470   -0.0440 ca        1 609     -0.033000
     20 CAG         2.4510   -2.0250   -0.0390 ca        1 609     -0.162000
     21 CAO         3.1550   -0.8330   -0.0210 ca        1 609     -0.045600
     22 CAN         4.6850   -0.9040   -0.0080 c         1 609      0.905200
     23 OAC         5.2010   -1.8570    0.6340 o         1 609     -0.810300
     24 OAA         5.3370   -0.0300   -0.6440 o         1 609     -0.810300
     25 HAI         4.2240    1.6420   -0.0190 ha        1 609      0.202000
     26 HAF         2.9410    3.7990    0.0520 ha        1 609      0.130000
     27 HAJ         0.4450    3.7800    0.0790 ha        1 609      0.141000
     28 HAK        -4.2480    2.0060    0.0570 ha        1 609      0.158000
     29 HAE        -6.4820    0.8610    0.0280 ha        1 609      0.122000
     30 HAD        -6.6520   -1.6040   -0.0390 ha        1 609      0.120000
     31 HAH        -4.6140   -3.0440   -0.0790 ha        1 609      0.139000
     32 HAL         0.5200   -3.0140   -0.0620 ha        1 609      0.143000
     33 HAG         3.0180   -2.9710   -0.0290 ha        1 609      0.162000
@<TRIPOS>BOND
     1    1    2 ar  
     2    1    6 ar  
     3    1   18 ar  
     4    2    3 ar  
     5    2   21 ar  
     6    3    4 ar  
     7    3   25 1   
     8    4    5 ar  
     9    4   26 1   
    10    5    6 ar  
    11    5   27 1   
    12    6    7 1   
    13    7    8 2   
    14    7    9 1   
    15    9   10 1   
    16    9   17 1   
    17   10   11 ar  
    18   10   15 ar  
    19   11   12 ar  
    20   11   28 1   
    21   12   13 ar  
    22   12   29 1   
    23   13   14 ar  
    24   13   30 1   
    25   14   15 ar  
    26   14   31 1   
    27   15   16 1   
    28   16   17 2   
    29   17   18 1   
    30   18   19 ar  
    31   19   20 ar  
    32   19   32 1   
    33   20   21 ar  
    34   20   33 1   
    35   21   22 1   
    36   22   23 1   
    37   22   24 1   
@<TRIPOS>SUBSTRUCTURE
     1 609         1 TEMP              0 ****  ****    0 ROOT
