@<TRIPOS>MOLECULE
609
   33    29     1     0     0
SMALL
bcc


@<TRIPOS>ATOM
      1 CAW         1.4290   -0.3600    0.2770 c1        1 609      0.019000
      2 CAR         2.8140   -0.5870    0.1840 c1        1 609     -0.056000
      3 CAI         3.6030   -0.5970    1.3440 c1        1 609     -0.018000
      4 CAF         3.0150   -0.3730    2.5880 c1        1 609     -0.121667
      5 CAJ         1.6400   -0.1390    2.6800 c1        1 609     -0.121667
      6 CAS         0.8470   -0.1290    1.5130 c1        1 609     -0.172000
      7 CAP        -0.5980    0.1400    1.6020 c2        1 609      0.384000
      8 OAB        -1.1120    0.3460    2.6800 o         1 609     -0.355000
      9 NAX        -1.3910    0.1100    0.4330 n         1 609     -0.217000
     10 CAU        -2.7150    0.3660    0.2190 c1        1 609     -0.013000
     11 CAK        -3.7540    0.7000    1.0890 c1        1 609     -0.121667
     12 CAE        -5.0340    0.9100    0.5940 c1        1 609     -0.121667
     13 CAD        -5.2790    0.7870   -0.7640 c1        1 609     -0.121667
     14 CAH        -4.2470    0.4550   -1.6270 c1        1 609     -0.121667
     15 CAQ        -2.9590    0.2440   -1.1290 c1        1 609     -0.056000
     16 NAM        -1.7840   -0.0870   -1.7420 n1        1 609     -0.160000
     17 CAV        -0.8130   -0.1700   -0.7800 c2        1 609      0.121000
     18 CAT         0.6480   -0.3130   -0.8830 c2        1 609     -0.109000
     19 CAL         1.2580   -0.4880   -2.1590 c1        1 609     -0.033000
     20 CAG         2.6320   -0.7100   -2.2500 c1        1 609     -0.162000
     21 CAO         3.4180   -0.7610   -1.0820 c2        1 609     -0.025000
     22 CAN         4.7280   -0.1020   -1.3890 c2        1 609      0.354000
     23 OAC         5.7700   -0.7940   -1.4850 o         1 609     -0.545000
     24 OAA         4.7790    1.1420   -1.5760 o         1 609     -0.545000
     25 HAI         4.5550   -0.7580    1.2800 ha        1 609      0.202000
     26 HAF         3.5650   -0.3560    3.3880 ha        1 609      0.135000
     27 HAJ         1.2330    0.0160    3.5420 ha        1 609      0.135000
     28 HAK        -3.5810    0.7870    2.0500 ha        1 609      0.135000
     29 HAE        -5.7610    1.1330    1.2010 ha        1 609      0.135000
     30 HAD        -6.1780    0.9350   -1.1120 ha        1 609      0.135000
     31 HAH        -4.4210    0.3680   -2.5900 ha        1 609      0.135000
     32 HAL         0.7770   -0.6280   -2.9920 ha        1 609      0.143000
     33 HAG         2.9170   -1.0870   -3.1040 ha        1 609      0.162000
@<TRIPOS>BOND
     1    1    6 1   
     2    1   18 1   
     3    2    3 1   
     4    2   21 1   
     5    3   25 1   
     6    4    5 1   
     7    4   26 1   
     8    5   27 1   
     9    6    7 1   
    10    7    8 1   
    11    7    9 1   
    12    9   10 1   
    13    9   17 1   
    14   10   15 1   
    15   11   12 1   
    16   11   28 1   
    17   12   29 1   
    18   13   14 1   
    19   13   30 1   
    20   14   31 1   
    21   16   17 1   
    22   17   18 1   
    23   18   19 1   
    24   19   32 1   
    25   20   21 1   
    26   20   33 1   
    27   21   22 1   
    28   22   23 1   
    29   22   24 1   
@<TRIPOS>SUBSTRUCTURE
     1 609         1 TEMP              0 ****  ****    0 ROOT
