@<TRIPOS>MOLECULE
60K
   38    40     1     0     0
SMALL
bcc


@<TRIPOS>ATOM
      1 S           0.7160    0.8270    1.8120 sy        1 60K      1.517200
      2 C1          2.1290    0.1410    1.0600 ca        1 60K     -0.291500
      3 N1          0.5120    2.1770    1.0010 n3        1 60K     -1.031700
      4 O1         -0.3290   -0.0700    1.5450 o         1 60K     -0.631800
      5 C2          3.3990    0.4040    1.5770 ca        1 60K     -0.011000
      6 N2          5.5700   -1.7630   -0.6010 n4        1 60K     -0.346500
      7 O2          1.0860    1.1010    3.1360 o         1 60K     -0.631800
      8 C3          4.5360   -0.1890    1.0300 ca        1 60K     -0.120000
      9 N3          5.9510   -1.3460   -1.8870 n2        1 60K     -0.483400
     10 O3          7.6470    0.0780    0.2180 o         1 60K     -0.591500
     11 C4          4.3760   -1.0730   -0.0490 ca        1 60K     -0.002400
     12 N4          8.6370    1.1010   -1.6710 n         1 60K     -0.440100
     13 O4          6.3260   -0.7190   -7.2760 oh        1 60K     -0.608100
     14 C5          6.8890   -0.4620   -2.0660 cc        1 60K      0.498900
     15 O5          7.8270    0.6960   -8.0980 o         1 60K     -0.514000
     16 C6          7.7560    0.2630   -0.9990 c         1 60K      0.590200
     17 C7          8.4380    0.9910   -3.0630 ca        1 60K      0.111600
     18 C8          9.0980    1.6440   -4.0980 ca        1 60K     -0.165000
     19 C9          8.7060    1.3540   -5.4120 ca        1 60K      0.018000
     20 C10         7.6830    0.4380   -5.6860 ca        1 60K     -0.163600
     21 C11         7.3280    0.1870   -7.0920 c         1 60K      0.646700
     22 C12         7.0070   -0.2290   -4.6500 ca        1 60K      0.050000
     23 C13         7.3820    0.0450   -3.3460 ca        1 60K     -0.262900
     24 C14         3.1130   -1.3420   -0.5950 ca        1 60K     -0.120000
     25 C15         1.9970   -0.7290   -0.0240 ca        1 60K     -0.011000
     26 HN4         9.3180    1.6790   -1.2390 hn        1 60K      0.380500
     27 HN1         6.1600   -0.8260   -8.2290 ho        1 60K      0.467000
     28 HN1A       -0.0710    2.2590    0.2030 hn        1 60K      0.462300
     29 H2          3.5070    1.0730    2.4530 ha        1 60K      0.185500
     30 H3          5.5320    0.0380    1.4520 ha        1 60K      0.173500
     31 HN2         5.3210   -2.7630   -0.7250 hn        1 60K      0.474800
     32 H8          9.9050    2.3670   -3.9060 ha        1 60K      0.176000
     33 H9          9.2150    1.8580   -6.2570 ha        1 60K      0.190000
     34 H12         6.2040   -0.9490   -4.8840 ha        1 60K      0.187000
     35 H14         2.9860   -2.0230   -1.4520 ha        1 60K      0.173500
     36 H15         0.9900   -0.9610   -0.4220 ha        1 60K      0.185500
     37 H13         0.8840    3.0510    1.2820 hn        1 60K      0.462300
     38 H22         6.3320   -1.6850    0.1040 hn        1 60K      0.474800
@<TRIPOS>BOND
     1    1    2 1   
     2    1    3 1   
     3    1    4 2   
     4    1    7 2   
     5    2    5 ar  
     6    2   25 ar  
     7    3   28 1   
     8    3   37 1   
     9    5    8 ar  
    10    5   29 1   
    11    6    9 1   
    12    6   11 1   
    13    6   31 1   
    14    6   38 1   
    15    8   11 ar  
    16    8   30 1   
    17    9   14 2   
    18   10   16 2   
    19   11   24 ar  
    20   12   16 1   
    21   12   17 1   
    22   12   26 1   
    23   13   21 1   
    24   13   27 1   
    25   14   16 1   
    26   14   23 1   
    27   15   21 2   
    28   17   18 ar  
    29   17   23 ar  
    30   18   19 ar  
    31   18   32 1   
    32   19   20 ar  
    33   19   33 1   
    34   20   21 1   
    35   20   22 ar  
    36   22   23 ar  
    37   22   34 1   
    38   24   25 ar  
    39   24   35 1   
    40   25   36 1   
@<TRIPOS>SUBSTRUCTURE
     1 60K         1 TEMP              0 ****  ****    0 ROOT
