@<TRIPOS>MOLECULE
60K
   36    38     1     0     0
SMALL
bcc


@<TRIPOS>ATOM
      1 S          -5.8830    0.7700   -0.0090 sy        1 60K      1.538200
      2 C1         -4.3320    0.1640   -0.0600 ca        1 60K     -0.464500
      3 N1         -6.0620    1.2190    1.5250 n3        1 60K     -1.024700
      4 O1         -5.9750    1.9230   -0.8230 o         1 60K     -0.670800
      5 C2         -4.0930   -1.2180   -0.0270 ca        1 60K      0.018000
      6 N2         -0.4140   -1.4300   -0.1530 nh        1 60K     -0.454700
      7 O2         -6.7980   -0.2770   -0.2850 o         1 60K     -0.670800
      8 C3         -2.8120   -1.7370   -0.0610 ca        1 60K     -0.213000
      9 N3          0.6870   -0.6860   -0.1010 n2        1 60K     -0.350400
     10 O3          1.4490   -3.6840   -0.0900 o         1 60K     -0.667500
     11 C4         -1.6910   -0.8640   -0.1280 ca        1 60K      0.266600
     12 N4          3.6260   -2.8190   -0.0120 n         1 60K     -0.463100
     13 O4          4.2680    3.5100    0.1260 o         1 60K     -0.822300
     14 C5          1.8700   -1.2370   -0.0620 cc        1 60K      0.358900
     15 O5          6.4360    2.9580    0.1740 o         1 60K     -0.822300
     16 C6          2.2380   -2.7220   -0.0600 c         1 60K      0.592200
     17 C7          4.1970   -1.5220    0.0210 ca        1 60K      0.019600
     18 C8          5.5340   -1.1530    0.0780 ca        1 60K     -0.179000
     19 C9          5.8320    0.2180    0.1100 ca        1 60K     -0.071000
     20 C10         4.8350    1.1900    0.0870 ca        1 60K     -0.152600
     21 C11         5.2090    2.6690    0.1320 c         1 60K      0.912200
     22 C12         3.4790    0.8180    0.0260 ca        1 60K     -0.020000
     23 C13         3.1580   -0.5250   -0.0070 ca        1 60K     -0.204900
     24 C14        -1.9240    0.5340   -0.1830 ca        1 60K     -0.213000
     25 C15        -3.2210    1.0160   -0.1530 ca        1 60K      0.018000
     26 HN4         4.1430   -3.6560   -0.0050 hn        1 60K      0.333500
     27 HN1        -5.8810    2.1350    1.8470 hn        1 60K      0.441300
     28 HN1A       -6.3490    0.6070    2.2450 hn        1 60K      0.441300
     29 H2         -4.9560   -1.9070    0.0170 ha        1 60K      0.147000
     30 H3         -2.6670   -2.8280   -0.0360 ha        1 60K      0.157500
     31 HN2        -0.3590   -2.4380   -0.1250 hn        1 60K      0.458800
     32 H8          6.3360   -1.9010    0.0980 ha        1 60K      0.121000
     33 H9          6.8820    0.5560    0.1550 ha        1 60K      0.162000
     34 H12         2.7120    1.6110    0.0070 ha        1 60K      0.174000
     35 H14        -1.0820    1.2410   -0.2520 ha        1 60K      0.157500
     36 H15        -3.3890    2.1070   -0.2180 ha        1 60K      0.147000
@<TRIPOS>BOND
     1    1    2 1   
     2    1    3 1   
     3    1    4 2   
     4    1    7 2   
     5    2    5 ar  
     6    2   25 ar  
     7    3   27 1   
     8    3   28 1   
     9    5    8 ar  
    10    5   29 1   
    11    6    9 1   
    12    6   11 1   
    13    6   31 1   
    14    8   11 ar  
    15    8   30 1   
    16    9   14 2   
    17   10   16 2   
    18   11   24 ar  
    19   12   16 1   
    20   12   17 1   
    21   12   26 1   
    22   13   21 1   
    23   14   16 1   
    24   14   23 1   
    25   15   21 1   
    26   17   18 ar  
    27   17   23 ar  
    28   18   19 ar  
    29   18   32 1   
    30   19   20 ar  
    31   19   33 1   
    32   20   21 1   
    33   20   22 ar  
    34   22   23 ar  
    35   22   34 1   
    36   24   25 ar  
    37   24   35 1   
    38   25   36 1   
@<TRIPOS>SUBSTRUCTURE
     1 60K         1 TEMP              0 ****  ****    0 ROOT
