@<TRIPOS>MOLECULE
60K
   37    38     1     0     0
SMALL
bcc


@<TRIPOS>ATOM
      1 S          -0.0110   -0.2680    0.6320 s4        1 60K      1.685300
      2 C1          1.4820   -0.2320    0.3280 ca        1 60K     -0.732500
      3 N1         -0.3610    1.9440    0.3520 n9        1 60K     -1.099400
      4 O1         -0.8820   -0.6270   -0.3610 o         1 60K     -0.473900
      5 C2          2.4720   -0.1170    1.3550 ca        1 60K      0.045000
      6 N2          5.6270   -0.0630   -0.4990 nu        1 60K     -0.359700
      7 O2         -0.4070   -0.2770    1.9430 o         1 60K     -0.473900
      8 C3          3.8070   -0.0810    1.0940 ca        1 60K     -0.215500
      9 N3          6.1200   -0.0690   -1.7560 n2        1 60K     -0.437400
     10 O3          8.4160    0.0880    0.2910 o         1 60K     -0.652500
     11 C4          4.2920   -0.1470   -0.2650 ca        1 60K      0.326600
     12 N4          9.7500    0.1250   -1.6510 ns        1 60K     -0.447100
     13 O4          6.6360   -0.0190   -7.1740 o         1 60K     -0.806800
     14 C5          7.4070   -0.0020   -1.9680 cc        1 60K      0.464900
     15 O5          8.7190    0.0550   -8.0090 o         1 60K     -0.806800
     16 C6          8.5600    0.0740   -0.9440 c         1 60K      0.584200
     17 C7          9.4840    0.0990   -3.0470 ca        1 60K      0.030600
     18 C8         10.3660    0.1410   -4.1130 ca        1 60K     -0.166000
     19 C9          9.8250    0.1110   -5.4130 ca        1 60K     -0.040000
     20 C10         8.4540    0.0420   -5.6390 ca        1 60K     -0.161600
     21 C11         7.8910    0.0240   -7.0640 c         1 60K      0.916200
     22 C12         7.5540   -0.0070   -4.5600 ca        1 60K      0.010000
     23 C13         8.0610    0.0220   -3.2730 ca        1 60K     -0.251900
     24 C14         3.3100   -0.2950   -1.3120 ca        1 60K     -0.215500
     25 C15         1.9840   -0.3390   -1.0120 ca        1 60K      0.045000
     26 HN4        10.6520    0.1750   -1.2540 hn        1 60K      0.350500
     27 HN1        -0.7120    2.3370    1.2080 hn        1 60K      0.408467
     28 HN1A       -1.0440    2.0740   -0.3750 hn        1 60K      0.408467
     29 H2          2.1210   -0.0630    2.4040 ha        1 60K      0.159000
     30 H3          4.5290   -0.0010    1.9240 ha        1 60K      0.183500
     31 HN2         6.2530    0.0080    0.2990 hn        1 60K      0.477800
     32 H8         11.4520    0.1970   -3.9630 ha        1 60K      0.137000
     33 H9         10.4930    0.1440   -6.2930 ha        1 60K      0.177000
     34 H12         6.4730   -0.0640   -4.7760 ha        1 60K      0.179000
     35 H14         3.6410   -0.3800   -2.3640 ha        1 60K      0.183500
     36 H15         1.2480   -0.4710   -1.8290 ha        1 60K      0.159000
     37 H13         0.4890    2.4130    0.0950 hn        1 60K      0.408467
@<TRIPOS>BOND
     1    1    2 1   
     2    1    4 1   
     3    1    7 1   
     4    2    5 ar  
     5    2   25 ar  
     6    3   27 1   
     7    3   28 1   
     8    3   37 1   
     9    5    8 ar  
    10    5   29 1   
    11    6    9 1   
    12    6   11 1   
    13    6   31 1   
    14    8   11 ar  
    15    8   30 1   
    16    9   14 2   
    17   10   16 2   
    18   11   24 ar  
    19   12   16 1   
    20   12   17 1   
    21   12   26 1   
    22   13   21 1   
    23   14   16 1   
    24   14   23 1   
    25   15   21 1   
    26   17   18 ar  
    27   17   23 ar  
    28   18   19 ar  
    29   18   32 1   
    30   19   20 ar  
    31   19   33 1   
    32   20   21 1   
    33   20   22 ar  
    34   22   23 ar  
    35   22   34 1   
    36   24   25 ar  
    37   24   35 1   
    38   25   36 1   
@<TRIPOS>SUBSTRUCTURE
     1 60K         1 TEMP              0 ****  ****    0 ROOT
