@<TRIPOS>MOLECULE
60K
   36    32     1     0     0
SMALL
bcc


@<TRIPOS>ATOM
      1 S          -5.7350    0.7760    0.3050 ss        1 60K      2.877000
      2 C1         -3.9800    0.7860    0.0350 c1        1 60K     -0.909000
      3 N1         -6.1630    2.0040    1.3090 n2        1 60K     -0.951000
      4 O1         -6.4540    0.8430   -0.9370 o         1 60K     -0.950000
      5 C2         -3.2850   -0.0070    0.9350 c1        1 60K      0.019000
      6 N2          0.1280    0.2100   -0.0660 n3        1 60K     -0.255000
      7 O2         -6.1770   -0.4930    0.8150 o         1 60K     -0.950000
      8 C3         -1.9260   -0.2240    0.7620 c2        1 60K     -0.234000
      9 N3          0.9430   -0.3620   -1.0250 n2        1 60K      0.024000
     10 O3          1.0410   -3.5640    0.5410 o         1 60K     -0.392000
     11 C4         -1.2630    0.3520   -0.3110 c2        1 60K      0.186000
     12 N4          1.9910   -2.0160    1.4340 n         1 60K     -0.317000
     13 O4          6.5600    0.2620   -2.5860 o         1 60K     -0.557000
     14 C5          1.4020   -1.5710   -0.8540 c1        1 60K     -0.082000
     15 O5          5.5800    2.0420   -1.7920 o         1 60K     -0.557000
     16 C6          0.9610   -2.3530    0.5390 c2        1 60K      0.319000
     17 C7          2.9650   -1.3060    0.7590 c2        1 60K      0.027000
     18 C8          4.1150   -0.6820    1.2270 c2        1 60K     -0.179000
     19 C9          5.0000   -0.0690    0.3250 c1        1 60K     -0.071000
     20 C10         4.7250   -0.0870   -1.0710 c1        1 60K     -0.132000
     21 C11         5.6760    0.7880   -1.8600 c2        1 60K      0.361000
     22 C12         3.5660   -0.7180   -1.5550 c1        1 60K     -0.020000
     23 C13         2.6810   -1.3290   -0.6690 c1        1 60K     -0.121000
     24 C14        -1.9580    1.1450   -1.2100 c2        1 60K     -0.192000
     25 C15        -3.3170    1.3620   -1.0380 c2        1 60K      0.017000
     26 HN4         2.0120   -2.2320    2.3200 hn        1 60K      0.247000
     27 HN1        -6.5010    2.7800    0.9630 hn        1 60K      0.236500
     28 HN1A       -6.1000    1.8960    2.2150 hn        1 60K      0.236500
     29 H2         -3.7510   -0.4130    1.6900 DU        1 60K      0.161500
     30 H3         -1.4370   -0.7830    1.3960 ha        1 60K      0.141000
     31 HN2         0.4900    0.5280    0.7080 hn        1 60K      0.254000
     32 H8          4.3070   -0.6680    2.1840 ha        1 60K      0.121000
     33 H9          5.8180    0.3500    0.6540 ha        1 60K      0.162000
     34 H12         3.3810   -0.7290   -2.5120 DU        1 60K      0.161500
     35 H14        -1.4910    1.5500   -1.9650 ha        1 60K      0.174000
     36 H15        -3.8040    1.9310   -1.6640 ha        1 60K      0.145000
@<TRIPOS>BOND
     1    1    4 1   
     2    1    7 1   
     3    2    5 1   
     4    2   25 1   
     5    3   27 1   
     6    3   28 1   
     7    5    8 1   
     8    6    9 1   
     9    6   11 1   
    10    6   31 1   
    11    8   11 1   
    12    8   30 1   
    13    9   14 1   
    14   10   16 1   
    15   11   24 1   
    16   12   16 1   
    17   12   17 1   
    18   12   26 1   
    19   13   21 1   
    20   14   16 1   
    21   15   21 1   
    22   17   18 1   
    23   17   23 1   
    24   18   19 1   
    25   18   32 1   
    26   19   33 1   
    27   20   21 1   
    28   20   22 1   
    29   22   23 1   
    30   24   25 1   
    31   24   35 1   
    32   25   36 1   
@<TRIPOS>SUBSTRUCTURE
     1 60K         1 TEMP              0 ****  ****    0 ROOT
