@<TRIPOS>MOLECULE
610
   51    47     1     0     0
SMALL
bcc


@<TRIPOS>ATOM
      1 C1          2.6000   -2.4690   -1.9800 c3        1 610     -0.032000
      2 C2          3.7080   -1.8970   -1.7570 c3        1 610     -0.034000
      3 C3          3.5300   -1.0280   -0.4540 c3        1 610      0.121000
      4 O4          2.3550   -0.5080   -0.4930 os        1 610     -0.256000
      5 C5          1.4550   -1.5000   -1.3430 c3        1 610      0.028000
      6 C6          0.4800   -2.1580   -0.6210 c2        1 610     -0.168000
      7 N7          3.6560   -1.8800    0.7330 n3        1 610     -0.200000
      8 O8          2.3900   -2.6220   -3.4340 oh        1 610     -0.310000
      9 O9          4.0690   -1.0000   -2.9310 oh        1 610     -0.306000
     10 C10        -0.8610   -1.7610   -0.7260 c1        1 610     -0.180000
     11 C11         4.6570   -2.7780    0.7310 c1        1 610     -0.036000
     12 N12         5.1900   -2.8170    1.9810 n2        1 610     -0.107000
     13 C13        -1.2490   -0.5850   -1.6510 c2        1 610     -0.005000
     14 N14        -2.4720    0.0490   -1.1550 n         1 610     -0.360000
     15 C15        -2.7410    1.4460   -1.4610 c2        1 610      0.359000
     16 C16        -3.7200    2.2370   -0.6040 c2        1 610     -0.140000
     17 C17        -4.0350    3.5510   -0.9380 c2        1 610      0.139000
     18 C18        -4.9630    4.2620   -0.1720 c1        1 610     -0.021000
     19 C19        -5.5700    3.6560    0.9240 c1        1 610     -0.098000
     20 C20        -5.2520    2.3400    1.2570 c1        1 610     -0.146000
     21 C21        -4.3260    1.6320    0.4910 c1        1 610     -0.011000
     22 N22        -5.7630    1.7720    2.4480 no        1 610      0.575000
     23 O23        -3.4830    4.1340   -2.1030 oh        1 610     -0.245000
     24 O24        -5.3810    5.5670   -0.5880 oh        1 610     -0.267000
     25 O25        -2.2210    1.9750   -2.4640 o         1 610     -0.367000
     26 O26        -6.6400    2.3510    3.0750 o         1 610     -0.352500
     27 O27        -5.2970    0.5580    2.8840 o         1 610     -0.352500
     28 C28         3.5610   -1.3540    1.9970 c1        1 610      0.043000
     29 C29         4.5070   -1.9340    2.7580 c1        1 610     -0.172000
     30 C30         4.7420   -1.4710    4.0470 c1        1 610      0.029000
     31 N31         4.0280   -0.4460    4.5320 n1        1 610     -0.183000
     32 C32         3.0690    0.1430    3.7600 c1        1 610     -0.019000
     33 N33         2.8370   -0.3130    2.4900 n1        1 610     -0.156000
     34 H1          2.5780   -3.3720   -1.5310 h1        1 610      0.098000
     35 H2          4.4060   -2.5640   -1.6210 h1        1 610      0.145000
     36 H3          4.2110   -0.3180   -0.4290 h2        1 610      0.175000
     37 H5          0.9380   -1.0460   -2.0130 h1        1 610      0.181000
     38 H6          0.7300   -2.9190   -0.0230 ha        1 610      0.141000
     39 HO8         2.5380   -3.4480   -3.6620 ho        1 610      0.218000
     40 HO9         4.9150   -1.1740   -3.1950 ho        1 610      0.225000
     41 H10        -1.5430   -2.2240   -0.2200 ha        1 610      0.127000
     42 H11         4.8900   -3.3600    0.0030 DU        1 610      0.201000
     43 H13        -0.5170    0.0770   -1.6630 h4        1 610      0.112000
     44 H13A       -1.3980   -0.9160   -2.5470 h4        1 610      0.112000
     45 HN14       -3.0680   -0.4360   -0.6120 hn        1 610      0.239000
     46 H19        -6.2350    4.1650    1.4750 ha        1 610      0.178000
     47 H21        -4.1060    0.7160    0.7220 ha        1 610      0.202000
     48 HO23       -4.1320    4.4810   -2.5930 ho        1 610      0.257000
     49 HO24       -5.0370    6.1880   -0.0270 ho        1 610      0.242000
     50 H30         5.4200   -1.8860    4.5920 ha        1 610      0.179000
     51 H32         2.5520    0.8840    4.1110 ha        1 610      0.195000
@<TRIPOS>BOND
     1    1    2 1   
     2    1    5 1   
     3    1    8 1   
     4    1   34 1   
     5    2    3 1   
     6    2    9 1   
     7    2   35 1   
     8    3    4 1   
     9    3    7 1   
    10    3   36 1   
    11    4    5 1   
    12    5    6 1   
    13    5   37 1   
    14    6   10 1   
    15    6   38 1   
    16    7   11 1   
    17    7   28 1   
    18    8   39 1   
    19    9   40 1   
    20   10   41 1   
    21   11   12 1   
    22   12   29 1   
    23   13   14 1   
    24   13   43 1   
    25   13   44 1   
    26   14   15 1   
    27   14   45 1   
    28   15   16 1   
    29   15   25 1   
    30   16   17 1   
    31   16   21 1   
    32   17   18 1   
    33   17   23 1   
    34   18   24 1   
    35   19   20 1   
    36   19   46 1   
    37   20   22 1   
    38   21   47 1   
    39   22   26 1   
    40   22   27 1   
    41   23   48 1   
    42   24   49 1   
    43   28   33 1   
    44   29   30 1   
    45   30   50 1   
    46   31   32 1   
    47   32   51 1   
@<TRIPOS>SUBSTRUCTURE
     1 610         1 TEMP              0 ****  ****    0 ROOT
