@<TRIPOS>MOLECULE
610
   52    55     1     0     0
SMALL
bcc


@<TRIPOS>ATOM
      1 C1         -0.0910   -2.3780    0.5880 c3        1 610      0.111100
      2 C2          1.1010   -1.9700   -0.3010 c3        1 610      0.091100
      3 C3          1.8910   -0.9350    0.5620 c3        1 610      0.222800
      4 O4          0.9730   -0.4440    1.5660 os        1 610     -0.391600
      5 C5         -0.2030   -1.2480    1.6430 c3        1 610      0.110300
      6 C6         -0.3510   -1.7900    3.0250 c2        1 610     -0.083200
      7 N7          3.0810   -1.4680    1.1570 na        1 610     -0.302000
      8 O8         -1.3170   -2.5460   -0.0860 oh        1 610     -0.642800
      9 O9          0.5760   -1.3270   -1.4430 oh        1 610     -0.602800
     10 C10        -1.5120   -2.0580    3.6320 c2        1 610     -0.260200
     11 C11         3.2300   -2.6820    1.8920 cc        1 610      0.406700
     12 N12         4.3790   -2.7740    2.5660 nd        1 610     -0.507100
     13 C13        -2.8610   -1.7740    3.0740 c3        1 610      0.155000
     14 N14        -3.3400   -2.8220    2.1110 n4        1 610     -0.684800
     15 C15        -3.8010   -4.0840    2.8170 c         1 610      0.585700
     16 C16        -3.0630   -5.3030    2.4770 ca        1 610     -0.224600
     17 C17        -3.7710   -6.5100    2.3010 ca        1 610      0.240100
     18 C18        -3.0450   -7.7050    2.0200 ca        1 610      0.053100
     19 C19        -1.6630   -7.6940    1.9010 ca        1 610     -0.071000
     20 C20        -0.9810   -6.4690    2.0670 ca        1 610     -0.176200
     21 C21        -1.6640   -5.2930    2.3710 ca        1 610     -0.038000
     22 N22         0.4980   -6.4200    1.8990 no        1 610      0.327200
     23 O23        -5.1230   -6.4730    2.3770 oh        1 610     -0.460100
     24 O24        -3.8290   -8.8220    1.8700 oh        1 610     -0.494100
     25 O25        -4.7490   -3.9520    3.5750 o         1 610     -0.393100
     26 O26         1.1060   -7.4420    1.7860 o         1 610     -0.191500
     27 O27         1.0220   -5.3350    1.8670 o         1 610     -0.191500
     28 C28         4.2350   -0.7090    1.4570 ca        1 610      0.432800
     29 C29         5.0510   -1.5610    2.3270 ca        1 610     -0.163200
     30 C30         6.2960   -1.0320    2.7340 ca        1 610      0.505200
     31 N31         6.6790    0.1890    2.3360 nb        1 610     -0.695000
     32 C32         5.8330    0.8960    1.5240 ca        1 610      0.656900
     33 N33         4.6180    0.5300    1.0440 nb        1 610     -0.690000
     34 H1          0.1240   -3.3740    1.0710 h1        1 610      0.100700
     35 H2          1.7200   -2.8610   -0.5880 h1        1 610      0.095700
     36 H3          2.1640   -0.0150   -0.0420 h2        1 610      0.142700
     37 H5         -1.0580   -0.5590    1.3830 h1        1 610      0.076700
     38 H6          0.6070   -1.9470    3.5610 ha        1 610      0.179000
     39 HO8        -1.3470   -1.9460   -0.8470 ho        1 610      0.461000
     40 HO9         1.2800   -1.2850   -2.1050 ho        1 610      0.446000
     41 H10        -1.5160   -2.4530    4.6640 ha        1 610      0.167000
     42 H11         2.4670   -3.4730    1.8430 h5        1 610      0.079800
     43 H13        -3.6230   -1.7100    3.9070 hx        1 610      0.114700
     44 H13A       -2.8610   -0.7900    2.5160 hx        1 610      0.114700
     45 HN14       -4.1390   -2.4420    1.5910 hn        1 610      0.471300
     46 H19        -1.1000   -8.6200    1.6800 ha        1 610      0.200000
     47 H21        -1.0970   -4.3600    2.5540 ha        1 610      0.174000
     48 HO23       -5.4820   -7.3780    2.2950 ho        1 610      0.485000
     49 HO24       -3.2550   -9.6000    1.7650 ho        1 610      0.464000
     50 H30         6.9870   -1.6010    3.3840 h4        1 610      0.053100
     51 H32         6.1880    1.9030    1.2160 h5        1 610      0.068100
     52 H142       -2.5890   -3.0440    1.4380 hn        1 610      0.471300
@<TRIPOS>BOND
     1    1    2 1   
     2    1    5 1   
     3    1    8 1   
     4    1   34 1   
     5    2    3 1   
     6    2    9 1   
     7    2   35 1   
     8    3    4 1   
     9    3    7 1   
    10    3   36 1   
    11    4    5 1   
    12    5    6 1   
    13    5   37 1   
    14    6   10 2   
    15    6   38 1   
    16    7   11 1   
    17    7   28 1   
    18    8   39 1   
    19    9   40 1   
    20   10   13 1   
    21   10   41 1   
    22   11   12 2   
    23   11   42 1   
    24   12   29 1   
    25   13   14 1   
    26   13   43 1   
    27   13   44 1   
    28   14   15 1   
    29   14   45 1   
    30   14   52 1   
    31   15   16 1   
    32   15   25 2   
    33   16   17 ar  
    34   16   21 ar  
    35   17   18 ar  
    36   17   23 1   
    37   18   19 ar  
    38   18   24 1   
    39   19   20 ar  
    40   19   46 1   
    41   20   21 ar  
    42   20   22 1   
    43   21   47 1   
    44   22   26 1   
    45   22   27 1   
    46   23   48 1   
    47   24   49 1   
    48   28   29 ar  
    49   28   33 ar  
    50   29   30 ar  
    51   30   31 ar  
    52   30   50 1   
    53   31   32 ar  
    54   32   33 ar  
    55   32   51 1   
@<TRIPOS>SUBSTRUCTURE
     1 610         1 TEMP              0 ****  ****    0 ROOT
