@<TRIPOS>MOLECULE
610
   51    54     1     0     0
SMALL
bcc


@<TRIPOS>ATOM
      1 C1         -0.2760    0.5790   -0.2490 c3        1 610      0.081100
      2 C2          1.2460    0.3180   -0.2480 c3        1 610      0.078100
      3 C3          1.6180    0.0910    1.2540 c3        1 610      0.219800
      4 O4          0.4810    0.4790    2.0350 os        1 610     -0.409600
      5 C5         -0.7060    0.5880    1.2330 c3        1 610      0.161300
      6 C6         -1.7010   -0.4790    1.5330 c2        1 610     -0.192200
      7 N7          2.0190   -1.2610    1.5570 na        1 610     -0.283000
      8 O8         -0.5600    1.8640   -0.7710 oh        1 610     -0.591800
      9 O9          1.9550    1.4120   -0.7760 oh        1 610     -0.575800
     10 C10        -1.6610   -1.2630    2.6120 c2        1 610     -0.173200
     11 C11         1.2240   -2.4340    1.5500 cc        1 610      0.429700
     12 N12         1.8660   -3.5350    1.9640 nd        1 610     -0.547100
     13 C13        -2.7340   -2.2650    2.9200 c3        1 610      0.119200
     14 N14        -2.2520   -3.6170    3.0090 n         1 610     -0.556900
     15 C15        -2.5650   -4.5730    2.0710 c         1 610      0.686700
     16 C16        -1.9710   -5.9390    2.2160 ca        1 610     -0.158600
     17 C17        -1.6970   -6.5640    3.4420 ca        1 610      0.189100
     18 C18        -1.1470   -7.8740    3.4510 ca        1 610      0.027100
     19 C19        -0.8680   -8.5490    2.2700 ca        1 610     -0.097000
     20 C20        -1.1530   -7.9070    1.0500 ca        1 610     -0.189200
     21 C21        -1.7040   -6.6220    1.0200 ca        1 610     -0.009000
     22 N22        -0.8610   -8.6160   -0.2220 no        1 610      0.320200
     23 O23        -1.9700   -5.9050    4.6090 oh        1 610     -0.490100
     24 O24        -0.9180   -8.4060    4.7030 oh        1 610     -0.513100
     25 O25        -3.3010   -4.3130    1.0950 o         1 610     -0.611100
     26 O26        -0.4140   -9.7310   -0.1720 o         1 610     -0.204000
     27 O27        -1.0780   -8.0590   -1.2630 o         1 610     -0.204000
     28 C28         3.2750   -1.6570    2.0510 ca        1 610      0.428800
     29 C29         3.1630   -3.1030    2.2880 ca        1 610     -0.160200
     30 C30         4.3210   -3.7500    2.7710 ca        1 610      0.491200
     31 N31         5.4460   -3.0590    3.0000 nb        1 610     -0.708000
     32 C32         5.4320   -1.7130    2.7460 ca        1 610      0.641900
     33 N33         4.4170   -0.9480    2.2800 nb        1 610     -0.683000
     34 H1         -0.8210   -0.2060   -0.8370 h1        1 610      0.070700
     35 H2          1.5290   -0.5480   -0.9030 h1        1 610      0.110700
     36 H3          2.4540    0.7870    1.5720 h2        1 610      0.128700
     37 H5         -1.1440    1.5940    1.5070 h1        1 610      0.108700
     38 H6         -2.5250   -0.5390    0.8010 ha        1 610      0.142000
     39 HO8        -0.2340    1.8750   -1.6820 ho        1 610      0.423000
     40 HO9         1.6820    2.2060   -0.2910 ho        1 610      0.421000
     41 H10        -0.8360   -1.1930    3.3410 ha        1 610      0.143000
     42 H11         0.1690   -2.3900    1.2390 h5        1 610      0.084800
     43 H13        -3.5490   -2.2200    2.1380 h1        1 610      0.071700
     44 H13A       -3.1900   -1.9850    3.9160 h1        1 610      0.071700
     45 HN14       -1.6690   -3.8530    3.7770 hn        1 610      0.329500
     46 H19        -0.4350   -9.5630    2.2820 ha        1 610      0.178000
     47 H21        -1.9460   -6.1310    0.0570 ha        1 610      0.198000
     48 HO23       -1.7540   -6.4880    5.3570 ho        1 610      0.459000
     49 HO24       -0.5380   -9.2910    4.5900 ho        1 610      0.443000
     50 H30         4.3370   -4.8360    2.9740 h4        1 610      0.041100
     51 H32         6.3830   -1.1750    2.9490 h5        1 610      0.058100
@<TRIPOS>BOND
     1    1    2 1   
     2    1    5 1   
     3    1    8 1   
     4    1   34 1   
     5    2    3 1   
     6    2    9 1   
     7    2   35 1   
     8    3    4 1   
     9    3    7 1   
    10    3   36 1   
    11    4    5 1   
    12    5    6 1   
    13    5   37 1   
    14    6   10 2   
    15    6   38 1   
    16    7   11 1   
    17    7   28 1   
    18    8   39 1   
    19    9   40 1   
    20   10   13 1   
    21   10   41 1   
    22   11   12 2   
    23   11   42 1   
    24   12   29 1   
    25   13   14 1   
    26   13   43 1   
    27   13   44 1   
    28   14   15 1   
    29   14   45 1   
    30   15   16 1   
    31   15   25 2   
    32   16   17 ar  
    33   16   21 ar  
    34   17   18 ar  
    35   17   23 1   
    36   18   19 ar  
    37   18   24 1   
    38   19   20 ar  
    39   19   46 1   
    40   20   21 ar  
    41   20   22 1   
    42   21   47 1   
    43   22   26 1   
    44   22   27 1   
    45   23   48 1   
    46   24   49 1   
    47   28   29 ar  
    48   28   33 ar  
    49   29   30 ar  
    50   30   31 ar  
    51   30   50 1   
    52   31   32 ar  
    53   32   33 ar  
    54   32   51 1   
@<TRIPOS>SUBSTRUCTURE
     1 610         1 TEMP              0 ****  ****    0 ROOT
