@<TRIPOS>MOLECULE
610
   52    55     1     0     0
SMALL
bcc


@<TRIPOS>ATOM
      1 C1          1.2610   -2.2400    1.1310 c3        1 610      0.117100
      2 C2          2.2360   -1.2320    0.4900 c3        1 610      0.094100
      3 C3          1.9090    0.1270    1.1920 c3        1 610      0.235800
      4 O4          0.6030   -0.0040    1.7790 os        1 610     -0.389600
      5 C5          0.1920   -1.3730    1.8450 c3        1 610      0.108300
      6 C6          0.0210   -1.7790    3.2700 c2        1 610     -0.101200
      7 N7          2.8640    0.5020    2.2050 na        1 610     -0.314000
      8 O8          0.6480   -3.1320    0.2290 oh        1 610     -0.635800
      9 O9          1.9110   -1.1250   -0.8790 oh        1 610     -0.602800
     10 C10        -0.9110   -2.6190    3.7300 c2        1 610     -0.237200
     11 C11         2.5880    1.0420    3.4910 cc        1 610      0.430700
     12 N12         3.6720    1.4990    4.1280 nd        1 610     -0.516100
     13 C13        -2.0060   -3.2240    2.9250 c3        1 610      0.157000
     14 N14        -1.5170   -4.2820    1.9800 ny        1 610     -0.677800
     15 C15        -2.6430   -4.8130    1.1310 c         1 610      0.583700
     16 C16        -3.0620   -6.2040    1.3290 ca        1 610     -0.213600
     17 C17        -3.0340   -6.8770    2.5640 ca        1 610      0.190100
     18 C18        -3.5040   -8.2130    2.6460 ca        1 610      0.053100
     19 C19        -3.9920   -8.8720    1.5220 ca        1 610     -0.061000
     20 C20        -4.0170   -8.1820    0.2960 ca        1 610     -0.175200
     21 C21        -3.5700   -6.8640    0.1930 ca        1 610     -0.003000
     22 N22        -4.5390   -8.8800   -0.9210 no        1 610      0.322200
     23 O23        -2.5570   -6.2190    3.6640 oh        1 610     -0.529100
     24 O24        -3.4240   -8.7740    3.8980 oh        1 610     -0.502100
     25 O25        -3.0900   -4.0290    0.3020 o         1 610     -0.421100
     26 O26        -4.9460   -9.9990   -0.7990 o         1 610     -0.169500
     27 O27        -4.5220   -8.2870   -1.9620 o         1 610     -0.169500
     28 C28         4.2430    0.6910    1.9990 ca        1 610      0.414800
     29 C29         4.7390    1.3050    3.2360 ca        1 610     -0.154200
     30 C30         6.1250    1.5810    3.2840 ca        1 610      0.507200
     31 N31         6.9140    1.2920    2.2400 nb        1 610     -0.694000
     32 C32         6.3380    0.7240    1.1350 ca        1 610      0.656900
     33 N33         5.0400    0.3930    0.9340 nb        1 610     -0.718000
     34 H1          1.8100   -2.8950    1.8640 h1        1 610      0.094700
     35 H2          3.2990   -1.5600    0.6330 h1        1 610      0.109700
     36 H3          1.8060    0.9590    0.4290 h2        1 610      0.121700
     37 H5         -0.7880   -1.4120    1.2860 h1        1 610      0.081700
     38 H6          0.7430   -1.3130    3.9690 ha        1 610      0.170000
     39 HO8         0.5410   -2.6940   -0.6310 ho        1 610      0.463000
     40 HO9         2.7100   -0.8420   -1.3460 ho        1 610      0.451000
     41 H10        -0.9470   -2.8680    4.8060 ha        1 610      0.167000
     42 H11         1.5600    1.0620    3.8770 h5        1 610      0.083800
     43 H13        -2.7620   -3.7160    3.6070 hx        1 610      0.114200
     44 H13A       -2.5320   -2.4380    2.3060 hx        1 610      0.114200
     45 HN14       -0.8010   -3.8700    1.3550 hn        1 610      0.476300
     46 H19        -4.3570   -9.9150    1.5860 ha        1 610      0.203000
     47 H21        -3.6170   -6.3300   -0.7780 ha        1 610      0.206000
     48 HO23       -2.6590   -6.7880    4.4510 ho        1 610      0.491000
     49 HO24       -3.8300   -9.6560    3.8740 ho        1 610      0.466000
     50 H30         6.5960    2.0420    4.1720 h4        1 610      0.056100
     51 H32         7.0280    0.5080    0.2900 h5        1 610      0.066100
     52 H142       -1.0890   -5.0440    2.5190 hn        1 610      0.476300
@<TRIPOS>BOND
     1    1    2 1   
     2    1    5 1   
     3    1    8 1   
     4    1   34 1   
     5    2    3 1   
     6    2    9 1   
     7    2   35 1   
     8    3    4 1   
     9    3    7 1   
    10    3   36 1   
    11    4    5 1   
    12    5    6 1   
    13    5   37 1   
    14    6   10 2   
    15    6   38 1   
    16    7   11 1   
    17    7   28 1   
    18    8   39 1   
    19    9   40 1   
    20   10   13 1   
    21   10   41 1   
    22   11   12 2   
    23   11   42 1   
    24   12   29 1   
    25   13   14 1   
    26   13   43 1   
    27   13   44 1   
    28   14   15 1   
    29   14   45 1   
    30   14   52 1   
    31   15   16 1   
    32   15   25 2   
    33   16   17 ar  
    34   16   21 ar  
    35   17   18 ar  
    36   17   23 1   
    37   18   19 ar  
    38   18   24 1   
    39   19   20 ar  
    40   19   46 1   
    41   20   21 ar  
    42   20   22 1   
    43   21   47 1   
    44   22   26 1   
    45   22   27 1   
    46   23   48 1   
    47   24   49 1   
    48   28   29 ar  
    49   28   33 ar  
    50   29   30 ar  
    51   30   31 ar  
    52   30   50 1   
    53   31   32 ar  
    54   32   33 ar  
    55   32   51 1   
@<TRIPOS>SUBSTRUCTURE
     1 610         1 TEMP              0 ****  ****    0 ROOT
