@<TRIPOS>MOLECULE
610
   51    54     1     0     0
SMALL
bcc


@<TRIPOS>ATOM
      1 C1         -2.6090    3.4910    1.4340 c3        1 610      0.079100
      2 C2         -3.5350    2.3430    1.8930 c3        1 610      0.129100
      3 C3         -3.6620    1.4220    0.6360 c3        1 610      0.242800
      4 O4         -3.2730    2.2130   -0.4980 os        1 610     -0.401600
      5 C5         -2.5080    3.3580   -0.1040 c3        1 610      0.131300
      6 C6         -1.0930    3.2770   -0.5640 c2        1 610     -0.193200
      7 N7         -2.8730    0.2190    0.7300 na        1 610     -0.283000
      8 O8         -3.2030    4.7110    1.8300 oh        1 610     -0.594800
      9 O9         -4.8520    2.7400    2.2010 oh        1 610     -0.580800
     10 C10        -0.6270    2.3580   -1.4110 c2        1 610     -0.167200
     11 C11        -1.5180    0.1070    1.1370 cc        1 610      0.418700
     12 N12        -0.9590   -1.0810    0.8720 nd        1 610     -0.548100
     13 C13         0.7870    2.3610   -1.9070 c3        1 610      0.112200
     14 N14         1.5250    1.1590   -1.6160 n         1 610     -0.540900
     15 C15         2.4670    1.1060   -0.6140 c         1 610      0.682700
     16 C16         3.1310   -0.1990   -0.3340 ca        1 610     -0.203600
     17 C17         4.4840   -0.2230    0.0480 ca        1 610      0.157100
     18 C18         5.1260   -1.4650    0.3070 ca        1 610      0.086100
     19 C19         4.4210   -2.6630    0.2100 ca        1 610     -0.059000
     20 C20         3.0630   -2.6140   -0.1520 ca        1 610     -0.187200
     21 C21         2.4180   -1.4000   -0.4170 ca        1 610     -0.035000
     22 N22         2.2990   -3.8850   -0.2500 no        1 610      0.322200
     23 O23         5.2930    0.8690    0.1850 oh        1 610     -0.514100
     24 O24         6.4520   -1.5480    0.6550 oh        1 610     -0.483100
     25 O25         2.8130    2.1430    0.0010 o         1 610     -0.642100
     26 O26         2.8260   -4.9090    0.0900 o         1 610     -0.208500
     27 O27         1.1740   -3.8560   -0.6760 o         1 610     -0.208500
     28 C28        -3.1780   -1.0090    0.1080 ca        1 610      0.431800
     29 C29        -1.9610   -1.8230    0.2240 ca        1 610     -0.169200
     30 C30        -2.0230   -3.1300   -0.3090 ca        1 610      0.498200
     31 N31        -3.1480   -3.5770   -0.8820 nb        1 610     -0.706000
     32 C32        -4.2240   -2.7300   -0.9300 ca        1 610      0.642900
     33 N33        -4.3260   -1.4600   -0.4720 nb        1 610     -0.682000
     34 H1         -1.5960    3.3910    1.9110 h1        1 610      0.059700
     35 H2         -3.0960    1.8140    2.7810 h1        1 610      0.069700
     36 H3         -4.7410    1.1350    0.4420 h2        1 610      0.148700
     37 H5         -3.0160    4.2310   -0.6090 h1        1 610      0.092700
     38 H6         -0.4470    4.0790   -0.1660 ha        1 610      0.131000
     39 HO8        -2.6460    5.4220    1.4910 ho        1 610      0.422000
     40 HO9        -4.8090    3.5860    2.6690 ho        1 610      0.437000
     41 H10        -1.2820    1.5610   -1.8040 ha        1 610      0.147000
     42 H11        -1.0150    0.9410    1.6450 h5        1 610      0.071800
     43 H13         0.7570    2.4750   -3.0330 h1        1 610      0.074200
     44 H13A        1.3510    3.2410   -1.4800 h1        1 610      0.074200
     45 HN14        1.1790    0.3100   -2.0010 hn        1 610      0.320500
     46 H19         4.9280   -3.6200    0.4220 ha        1 610      0.193000
     47 H21         1.3410   -1.4050   -0.6640 ha        1 610      0.183000
     48 HO23        4.7610    1.6860    0.1770 ho        1 610      0.479000
     49 HO24        6.7970   -0.6460    0.7590 ho        1 610      0.446000
     50 H30        -1.1500   -3.8130   -0.2780 h4        1 610      0.065100
     51 H32        -5.1380   -3.1390   -1.4110 h5        1 610      0.058100
@<TRIPOS>BOND
     1    1    2 1   
     2    1    5 1   
     3    1    8 1   
     4    1   34 1   
     5    2    3 1   
     6    2    9 1   
     7    2   35 1   
     8    3    4 1   
     9    3    7 1   
    10    3   36 1   
    11    4    5 1   
    12    5    6 1   
    13    5   37 1   
    14    6   10 2   
    15    6   38 1   
    16    7   11 1   
    17    7   28 1   
    18    8   39 1   
    19    9   40 1   
    20   10   13 1   
    21   10   41 1   
    22   11   12 2   
    23   11   42 1   
    24   12   29 1   
    25   13   14 1   
    26   13   43 1   
    27   13   44 1   
    28   14   15 1   
    29   14   45 1   
    30   15   16 1   
    31   15   25 2   
    32   16   17 ar  
    33   16   21 ar  
    34   17   18 ar  
    35   17   23 1   
    36   18   19 ar  
    37   18   24 1   
    38   19   20 ar  
    39   19   46 1   
    40   20   21 ar  
    41   20   22 1   
    42   21   47 1   
    43   22   26 1   
    44   22   27 1   
    45   23   48 1   
    46   24   49 1   
    47   28   29 ar  
    48   28   33 ar  
    49   29   30 ar  
    50   30   31 ar  
    51   30   50 1   
    52   31   32 ar  
    53   32   33 ar  
    54   32   51 1   
@<TRIPOS>SUBSTRUCTURE
     1 610         1 TEMP              0 ****  ****    0 ROOT
