@<TRIPOS>MOLECULE
611
   50    52     1     0     0
SMALL
bcc


@<TRIPOS>ATOM
      1 C1         -2.8940    3.2880    1.3050 c3        1 611      0.138100
      2 C2         -3.1420    1.9100    1.9660 c3        1 611      0.096100
      3 C3         -3.4830    0.9610    0.8040 c3        1 611      0.175200
      4 O4         -3.3980    1.6790   -0.4180 os        1 611     -0.394600
      5 C5         -2.8560    2.9970   -0.2140 c3        1 611      0.162300
      6 C6         -1.4740    3.1190   -0.7620 c2        1 611     -0.174200
      7 S7         -2.3200   -0.4010    0.9310 ss        1 611     -0.230000
      8 O8         -3.9300    4.2220    1.5180 oh        1 611     -0.586800
      9 O9         -4.2140    2.0460    2.8740 oh        1 611     -0.589800
     10 C10        -0.8970    2.1970   -1.5340 c2        1 611     -0.183200
     11 C11        -2.7850   -1.5510   -0.2240 ca        1 611      0.033900
     12 C12         0.4800    2.3530   -2.1010 c3        1 611      0.111200
     13 N13         1.3730    1.2810   -1.7290 n         1 611     -0.533900
     14 C14         2.4240    1.4760   -0.8610 c         1 611      0.675700
     15 C15         3.1340    0.2700   -0.3420 ca        1 611     -0.203600
     16 C16         4.5290    0.2970   -0.1750 ca        1 611      0.158100
     17 C17         5.2050   -0.8540    0.3150 ca        1 611      0.090100
     18 C18         4.4940   -2.0010    0.6630 ca        1 611     -0.061000
     19 C19         3.0950   -1.9940    0.5170 ca        1 611     -0.188200
     20 C20         2.4170   -0.8750    0.0210 ca        1 611     -0.046000
     21 N21         2.3220   -3.2020    0.9050 no        1 611      0.321200
     22 O22         5.3410    1.3550   -0.4650 oh        1 611     -0.511100
     23 O23         6.5690   -0.8950    0.4680 oh        1 611     -0.482100
     24 O24         2.8280    2.6250   -0.5670 o         1 611     -0.631100
     25 O25         2.9090   -4.1610    1.3260 o         1 611     -0.209500
     26 O26         1.1250   -3.1870    0.7850 o         1 611     -0.209500
     27 C27        -2.0850   -2.7680   -0.2050 ca        1 611     -0.245800
     28 C28        -2.4330   -3.7570   -1.1380 ca        1 611      0.403700
     29 N29        -3.4070   -3.6080   -2.0590 nb        1 611     -0.669000
     30 C30        -4.0640   -2.4330   -2.0690 ca        1 611      0.403700
     31 C31        -3.7900   -1.3780   -1.1810 ca        1 611     -0.245800
     32 H1         -1.9250    3.7210    1.6730 h1        1 611      0.063700
     33 H2         -2.2180    1.5610    2.5070 h1        1 611      0.071700
     34 H3         -4.5340    0.5750    0.8630 h2        1 611      0.101700
     35 H5         -3.5560    3.6880   -0.7670 h1        1 611      0.109700
     36 H6         -0.9680    4.0620   -0.4960 ha        1 611      0.138000
     37 HO8        -4.2130    4.1510    2.4400 ho        1 611      0.431000
     38 HO9        -4.3140    1.1980    3.3250 ho        1 611      0.424000
     39 H10        -1.4260    1.2640   -1.7960 ha        1 611      0.144000
     40 H12         0.4010    2.3510   -3.2290 h1        1 611      0.075700
     41 H12A        0.9370    3.3350   -1.7840 h1        1 611      0.075700
     42 HN13        1.0340    0.3560   -1.8640 hn        1 611      0.315500
     43 H18         5.0290   -2.8860    1.0480 ha        1 611      0.194000
     44 H20         1.3150   -0.9000   -0.0610 ha        1 611      0.176000
     45 HO22        4.8050    2.1550   -0.6190 ho        1 611      0.480000
     46 HO23        6.9270   -0.0190    0.2530 ho        1 611      0.447000
     47 H27        -1.2730   -2.9470    0.5180 ha        1 611      0.163500
     48 H28        -1.9030   -4.7270   -1.1490 h4        1 611      0.026100
     49 H30        -4.8550   -2.3290   -2.8340 h4        1 611      0.026100
     50 H31        -4.3490   -0.4340   -1.2550 ha        1 611      0.163500
@<TRIPOS>BOND
     1    1    2 1   
     2    1    5 1   
     3    1    8 1   
     4    1   32 1   
     5    2    3 1   
     6    2    9 1   
     7    2   33 1   
     8    3    4 1   
     9    3    7 1   
    10    3   34 1   
    11    4    5 1   
    12    5    6 1   
    13    5   35 1   
    14    6   10 2   
    15    6   36 1   
    16    7   11 1   
    17    8   37 1   
    18    9   38 1   
    19   10   12 1   
    20   10   39 1   
    21   11   27 ar  
    22   11   31 ar  
    23   12   13 1   
    24   12   40 1   
    25   12   41 1   
    26   13   14 1   
    27   13   42 1   
    28   14   15 1   
    29   14   24 2   
    30   15   16 ar  
    31   15   20 ar  
    32   16   17 ar  
    33   16   22 1   
    34   17   18 ar  
    35   17   23 1   
    36   18   19 ar  
    37   18   43 1   
    38   19   20 ar  
    39   19   21 1   
    40   20   44 1   
    41   21   25 1   
    42   21   26 1   
    43   22   45 1   
    44   23   46 1   
    45   27   28 ar  
    46   27   47 1   
    47   28   29 ar  
    48   28   48 1   
    49   29   30 ar  
    50   30   31 ar  
    51   30   49 1   
    52   31   50 1   
@<TRIPOS>SUBSTRUCTURE
     1 611         1 TEMP              0 ****  ****    0 ROOT
