@<TRIPOS>MOLECULE
611
   50    52     1     0     0
SMALL
bcc


@<TRIPOS>ATOM
      1 C1         -0.2520   -0.6140    1.3130 c3        1 611      0.134100
      2 C2          0.6730    0.6090    1.1140 c3        1 611      0.097100
      3 C3          1.5090    0.6970    2.4020 c3        1 611      0.176200
      4 O4          1.1790   -0.3950    3.2460 os        1 611     -0.394600
      5 C5          0.2520   -1.2940    2.6070 c3        1 611      0.163300
      6 C6          0.9220   -2.6010    2.3560 c2        1 611     -0.186200
      7 S7          3.2230    0.7120    1.8750 ss        1 611     -0.222000
      8 O8         -1.6080   -0.2830    1.5260 oh        1 611     -0.590800
      9 O9         -0.1390    1.7490    0.9290 oh        1 611     -0.589800
     10 C10         0.3190   -3.6940    1.8840 c2        1 611     -0.177200
     11 C11         4.1500    1.0300    3.2570 ca        1 611      0.040900
     12 C12        -1.1150   -3.7510    1.4510 c3        1 611      0.108200
     13 N13        -1.7980   -4.9460    1.8690 n         1 611     -0.551900
     14 C14        -2.3650   -5.8200    0.9730 c         1 611      0.683700
     15 C15        -3.0710   -7.0270    1.5080 ca        1 611     -0.159600
     16 C16        -3.8460   -7.0360    2.6780 ca        1 611      0.184100
     17 C17        -4.5000   -8.2330    3.0730 ca        1 611      0.025100
     18 C18        -4.3830   -9.4000    2.3290 ca        1 611     -0.099000
     19 C19        -3.6030   -9.3700    1.1580 ca        1 611     -0.191200
     20 C20        -2.9600   -8.1990    0.7450 ca        1 611     -0.012000
     21 N21        -3.4690  -10.6110    0.3510 no        1 611      0.320200
     22 O22        -3.9560   -5.8920    3.4180 oh        1 611     -0.490100
     23 O23        -5.2350   -8.1450    4.2380 oh        1 611     -0.513100
     24 O24        -2.2640   -5.6550   -0.2620 o         1 611     -0.605100
     25 O25        -4.0620  -11.5960    0.7050 o         1 611     -0.203500
     26 O26        -2.7730  -10.5980   -0.6270 o         1 611     -0.203500
     27 C27         5.4970    1.3620    3.0410 ca        1 611     -0.244800
     28 C28         6.3130    1.6210    4.1530 ca        1 611      0.404700
     29 N29         5.8750    1.5750    5.4280 nb        1 611     -0.668000
     30 C30         4.5820    1.2550    5.6200 ca        1 611      0.404700
     31 C31         3.6840    0.9720    4.5740 ca        1 611     -0.244800
     32 H1         -0.1770   -1.3050    0.4300 h1        1 611      0.067700
     33 H2          1.3380    0.4570    0.2180 h1        1 611      0.071700
     34 H3          1.2850    1.6250    2.9910 h2        1 611      0.098700
     35 H5         -0.5950   -1.4110    3.3440 h1        1 611      0.102700
     36 H6          1.9940   -2.6200    2.6200 ha        1 611      0.150000
     37 HO8        -1.8410    0.4330    0.9190 ho        1 611      0.432000
     38 HO9         0.4500    2.4870    0.7260 ho        1 611      0.423000
     39 H10         0.8920   -4.6290    1.7580 ha        1 611      0.138000
     40 H12        -1.6750   -2.8530    1.8520 h1        1 611      0.076700
     41 H12A       -1.1390   -3.6920    0.3200 h1        1 611      0.076700
     42 HN13       -1.9540   -5.0690    2.8410 hn        1 611      0.327500
     43 H18        -4.8910  -10.3280    2.6420 ha        1 611      0.178000
     44 H20        -2.3690   -8.1740   -0.1920 ha        1 611      0.200000
     45 HO22       -4.5870   -6.0450    4.1430 ho        1 611      0.459000
     46 HO23       -5.7080   -8.9810    4.3610 ho        1 611      0.443000
     47 H27         5.9070    1.4180    2.0230 ha        1 611      0.155500
     48 H28         7.3780    1.8810    4.0200 h4        1 611      0.024100
     49 H30         4.2450    1.2200    6.6720 h4        1 611      0.024100
     50 H31         2.6440    0.6930    4.7980 ha        1 611      0.155500
@<TRIPOS>BOND
     1    1    2 1   
     2    1    5 1   
     3    1    8 1   
     4    1   32 1   
     5    2    3 1   
     6    2    9 1   
     7    2   33 1   
     8    3    4 1   
     9    3    7 1   
    10    3   34 1   
    11    4    5 1   
    12    5    6 1   
    13    5   35 1   
    14    6   10 2   
    15    6   36 1   
    16    7   11 1   
    17    8   37 1   
    18    9   38 1   
    19   10   12 1   
    20   10   39 1   
    21   11   27 ar  
    22   11   31 ar  
    23   12   13 1   
    24   12   40 1   
    25   12   41 1   
    26   13   14 1   
    27   13   42 1   
    28   14   15 1   
    29   14   24 2   
    30   15   16 ar  
    31   15   20 ar  
    32   16   17 ar  
    33   16   22 1   
    34   17   18 ar  
    35   17   23 1   
    36   18   19 ar  
    37   18   43 1   
    38   19   20 ar  
    39   19   21 1   
    40   20   44 1   
    41   21   25 1   
    42   21   26 1   
    43   22   45 1   
    44   23   46 1   
    45   27   28 ar  
    46   27   47 1   
    47   28   29 ar  
    48   28   48 1   
    49   29   30 ar  
    50   30   31 ar  
    51   30   49 1   
    52   31   50 1   
@<TRIPOS>SUBSTRUCTURE
     1 611         1 TEMP              0 ****  ****    0 ROOT
