@<TRIPOS>MOLECULE
611
   51    53     1     0     0
SMALL
bcc


@<TRIPOS>ATOM
      1 C1          0.1100   -2.6670    1.4140 c3        1 611      0.115100
      2 C2          1.4890   -2.1870    0.9070 c3        1 611      0.112100
      3 C3          1.9230   -1.1040    1.9110 c3        1 611      0.150200
      4 O4          0.8200   -0.8060    2.7740 os        1 611     -0.383600
      5 C5         -0.3300   -1.5860    2.4340 c3        1 611      0.113300
      6 C6         -0.8810   -2.1940    3.6790 c2        1 611     -0.075200
      7 S7          3.3240   -1.7420    2.8010 ss        1 611     -0.172000
      8 O8         -0.8760   -2.8310    0.4200 oh        1 611     -0.646800
      9 O9          1.3010   -1.6290   -0.3780 oh        1 611     -0.606800
     10 C10        -2.1740   -2.4490    3.9080 c2        1 611     -0.262200
     11 C11         3.9880   -0.4230    3.6370 ca        1 611      0.022900
     12 C12        -3.2970   -2.0730    3.0080 c3        1 611      0.155000
     13 N13        -3.4910   -3.0340    1.8710 n4        1 611     -0.685800
     14 C14        -4.1820   -4.3130    2.3080 c         1 611      0.585700
     15 C15        -3.4610   -5.5530    2.0120 ca        1 611     -0.225600
     16 C16        -4.1830   -6.6700    1.5420 ca        1 611      0.237100
     17 C17        -3.4940   -7.8950    1.3100 ca        1 611      0.051100
     18 C18        -2.1270   -8.0000    1.5250 ca        1 611     -0.071000
     19 C19        -1.4260   -6.8640    1.9830 ca        1 611     -0.176200
     20 C20        -2.0800   -5.6600    2.2370 ca        1 611     -0.034000
     21 N21         0.0480   -6.9440    2.1890 no        1 611      0.324200
     22 O22        -5.5090   -6.5150    1.3020 oh        1 611     -0.462100
     23 O23        -4.2900   -8.9180    0.8550 oh        1 611     -0.495100
     24 O24        -5.2740   -4.1750    2.8380 o         1 611     -0.396100
     25 O25         0.5910   -8.0030    2.0750 o         1 611     -0.186000
     26 O26         0.6350   -5.9270    2.4520 o         1 611     -0.186000
     27 C27         5.2870   -0.6020    4.1360 ca        1 611     -0.241300
     28 C28         5.8760    0.4470    4.8620 ca        1 611      0.412700
     29 N29         5.2650    1.6240    5.1010 nb        1 611     -0.651000
     30 C30         4.0210    1.7810    4.6140 ca        1 611      0.412700
     31 C31         3.3390    0.7900    3.8830 ca        1 611     -0.241300
     32 H1          0.2180   -3.6790    1.9010 h1        1 611      0.110700
     33 H2          2.2220   -3.0390    0.8760 h1        1 611      0.100700
     34 H3          2.1760   -0.1390    1.3960 h2        1 611      0.111700
     35 H5         -1.0680   -0.8810    1.9560 h1        1 611      0.064700
     36 H6         -0.1200   -2.4250    4.4510 ha        1 611      0.183000
     37 HO8        -0.6920   -2.2300   -0.3180 ho        1 611      0.459000
     38 HO9         2.1540   -1.6450   -0.8320 ho        1 611      0.444000
     39 H10        -2.4850   -2.9090    4.8630 ha        1 611      0.166000
     40 H12        -4.2660   -2.0350    3.5880 hx        1 611      0.113700
     41 H12A       -3.1160   -1.0550    2.5510 hx        1 611      0.113700
     42 HN13       -4.0840   -2.5850    1.1640 hn        1 611      0.470800
     43 H18        -1.5910   -8.9510    1.3440 ha        1 611      0.200000
     44 H20        -1.5080   -4.8000    2.6360 ha        1 611      0.175000
     45 HO22       -5.8970   -7.3730    1.0400 ho        1 611      0.484000
     46 HO23       -3.7600   -9.7300    0.8000 ho        1 611      0.463000
     47 H27         5.8360   -1.5380    3.9640 ha        1 611      0.153500
     48 H28         6.8970    0.3420    5.2740 h4        1 611      0.033100
     49 H30         3.5400    2.7550    4.8230 h4        1 611      0.033100
     50 H31         2.3140    0.9710    3.5300 ha        1 611      0.153500
     51 H132       -2.5780   -3.2510    1.4410 hn        1 611      0.470800
@<TRIPOS>BOND
     1    1    2 1   
     2    1    5 1   
     3    1    8 1   
     4    1   32 1   
     5    2    3 1   
     6    2    9 1   
     7    2   33 1   
     8    3    4 1   
     9    3    7 1   
    10    3   34 1   
    11    4    5 1   
    12    5    6 1   
    13    5   35 1   
    14    6   10 2   
    15    6   36 1   
    16    7   11 1   
    17    8   37 1   
    18    9   38 1   
    19   10   12 1   
    20   10   39 1   
    21   11   27 ar  
    22   11   31 ar  
    23   12   13 1   
    24   12   40 1   
    25   12   41 1   
    26   13   14 1   
    27   13   42 1   
    28   13   51 1   
    29   14   15 1   
    30   14   24 2   
    31   15   16 ar  
    32   15   20 ar  
    33   16   17 ar  
    34   16   22 1   
    35   17   18 ar  
    36   17   23 1   
    37   18   19 ar  
    38   18   43 1   
    39   19   20 ar  
    40   19   21 1   
    41   20   44 1   
    42   21   25 1   
    43   21   26 1   
    44   22   45 1   
    45   23   46 1   
    46   27   28 ar  
    47   27   47 1   
    48   28   29 ar  
    49   28   48 1   
    50   29   30 ar  
    51   30   31 ar  
    52   30   49 1   
    53   31   50 1   
@<TRIPOS>SUBSTRUCTURE
     1 611         1 TEMP              0 ****  ****    0 ROOT
