@<TRIPOS>MOLECULE
611
   51    53     1     0     0
SMALL
bcc


@<TRIPOS>ATOM
      1 C1          0.2060   -1.4670   -0.5650 c3        1 611      0.095100
      2 C2          1.4500   -1.7720    0.3050 c3        1 611      0.102100
      3 C3          1.0580   -1.3780    1.7350 c3        1 611      0.196200
      4 O4         -0.3240   -1.0190    1.7520 os        1 611     -0.456600
      5 C5         -0.8660   -0.9410    0.4200 c3        1 611      0.108300
      6 C6         -2.1430   -1.6980    0.3140 c2        1 611     -0.094200
      7 S7          1.2570   -2.7720    2.8450 ss        1 611     -0.239000
      8 O8          0.4810   -0.5370   -1.5780 oh        1 611     -0.565800
      9 O9          2.5260   -0.9360   -0.0700 oh        1 611     -0.584800
     10 C10        -2.9650   -2.0800    1.2950 c2        1 611     -0.241200
     11 C11         1.6500   -2.0800    4.3550 ca        1 611     -0.000100
     12 C12        -2.7900   -1.7820    2.7420 c3        1 611      0.161000
     13 N13        -1.9370   -2.7860    3.4570 ny        1 611     -0.687800
     14 C14        -2.5830   -4.1500    3.5000 c         1 611      0.580700
     15 C15        -1.8480   -5.2360    2.8420 ca        1 611     -0.218600
     16 C16        -1.8150   -6.5060    3.4550 ca        1 611      0.236100
     17 C17        -1.1520   -7.5800    2.7940 ca        1 611      0.049100
     18 C18        -0.5290   -7.3920    1.5680 ca        1 611     -0.073000
     19 C19        -0.5650   -6.1070    0.9840 ca        1 611     -0.180200
     20 C20        -1.2260   -5.0460    1.6000 ca        1 611     -0.034000
     21 N21         0.1310   -5.8740   -0.3130 no        1 611      0.325200
     22 O22        -2.3950   -6.6410    4.6730 oh        1 611     -0.459100
     23 O23        -1.1790   -8.7720    3.4760 oh        1 611     -0.495100
     24 O24        -3.6480   -4.2210    4.0980 o         1 611     -0.404100
     25 O25         0.5750   -6.8090   -0.9100 o         1 611     -0.192000
     26 O26         0.2300   -4.7380   -0.7020 o         1 611     -0.192000
     27 C27         2.3830   -2.8770    5.2410 ca        1 611     -0.240300
     28 C28         2.6820   -2.3610    6.5170 ca        1 611      0.416200
     29 N29         2.3120   -1.1330    6.9260 nb        1 611     -0.632000
     30 C30         1.6220   -0.3710    6.0560 ca        1 611      0.416200
     31 C31         1.2620   -0.8010    4.7650 ca        1 611     -0.240300
     32 H1         -0.1410   -2.3910   -1.1090 h1        1 611      0.123700
     33 H2          1.7330   -2.8570    0.2310 h1        1 611      0.094700
     34 H3          1.6520   -0.4930    2.0900 h2        1 611      0.129700
     35 H5         -1.0750    0.1530    0.2230 h1        1 611      0.109700
     36 H6         -2.4230   -1.9100   -0.7390 ha        1 611      0.170000
     37 HO8         0.9590    0.2110   -1.1860 ho        1 611      0.425000
     38 HO9         2.8600   -1.2680   -0.9170 ho        1 611      0.440000
     39 H10        -3.9050   -2.6070    1.0470 ha        1 611      0.160000
     40 H12        -2.2940   -0.7740    2.8790 hx        1 611      0.114700
     41 H12A       -3.7970   -1.7700    3.2560 hx        1 611      0.114700
     42 HN13       -1.8200   -2.4640    4.4250 hn        1 611      0.470800
     43 H18        -0.0140   -8.2250    1.0540 ha        1 611      0.198000
     44 H20        -1.2780   -4.0620    1.0930 ha        1 611      0.176000
     45 HO22       -2.3570   -7.5770    4.9520 ho        1 611      0.482000
     46 HO23       -0.7930   -9.4650    2.9150 ho        1 611      0.462000
     47 H27         2.7360   -3.8770    4.9490 ha        1 611      0.156500
     48 H28         3.2580   -2.9610    7.2470 h4        1 611      0.044600
     49 H30         1.3460    0.6390    6.4130 h4        1 611      0.044600
     50 H31         0.7030   -0.1290    4.0980 ha        1 611      0.156500
     51 H132       -0.9830   -2.8300    3.0160 hn        1 611      0.470800
@<TRIPOS>BOND
     1    1    2 1   
     2    1    5 1   
     3    1    8 1   
     4    1   32 1   
     5    2    3 1   
     6    2    9 1   
     7    2   33 1   
     8    3    4 1   
     9    3    7 1   
    10    3   34 1   
    11    4    5 1   
    12    5    6 1   
    13    5   35 1   
    14    6   10 2   
    15    6   36 1   
    16    7   11 1   
    17    8   37 1   
    18    9   38 1   
    19   10   12 1   
    20   10   39 1   
    21   11   27 ar  
    22   11   31 ar  
    23   12   13 1   
    24   12   40 1   
    25   12   41 1   
    26   13   14 1   
    27   13   42 1   
    28   13   51 1   
    29   14   15 1   
    30   14   24 2   
    31   15   16 ar  
    32   15   20 ar  
    33   16   17 ar  
    34   16   22 1   
    35   17   18 ar  
    36   17   23 1   
    37   18   19 ar  
    38   18   43 1   
    39   19   20 ar  
    40   19   21 1   
    41   20   44 1   
    42   21   25 1   
    43   21   26 1   
    44   22   45 1   
    45   23   46 1   
    46   27   28 ar  
    47   27   47 1   
    48   28   29 ar  
    49   28   48 1   
    50   29   30 ar  
    51   30   31 ar  
    52   30   49 1   
    53   31   50 1   
@<TRIPOS>SUBSTRUCTURE
     1 611         1 TEMP              0 ****  ****    0 ROOT
