@<TRIPOS>MOLECULE
611
   50    47     1     0     0
SMALL
bcc


@<TRIPOS>ATOM
      1 C1          2.9230   -1.8780    1.8940 c3        1 611      0.025000
      2 C2          3.6200   -0.9100    2.7800 c3        1 611     -0.015000
      3 C3          2.8730    0.1560    2.8000 c3        1 611     -0.115000
      4 O4          1.3740   -0.3130    2.5480 os        1 611     -0.249000
      5 C5          1.4000   -1.2730    1.6220 c3        1 611      0.047000
      6 C6          0.2880   -2.2830    1.7320 c2        1 611     -0.185000
      7 S7          3.0030    0.9590    4.3990 ss        1 611      0.182000
      8 O8          3.5810   -1.9980    0.7360 oh        1 611     -0.318000
      9 O9          4.9830   -0.5800    2.2200 oh        1 611     -0.318000
     10 C10        -0.6300   -2.4030    0.7200 c1        1 611     -0.176000
     11 C11         2.7780    2.7010    4.2070 c2        1 611     -0.186000
     12 C12        -0.5200   -1.5000   -0.5310 c2        1 611     -0.024000
     13 N13        -1.6760   -1.7010   -1.3800 n         1 611     -0.346000
     14 C14        -2.4660   -0.6040   -1.7550 c2        1 611      0.347000
     15 C15        -3.1120   -0.5640   -3.1440 c2        1 611     -0.138000
     16 C16        -3.8710    0.5350   -3.5250 c2        1 611      0.135000
     17 C17        -4.4990    0.5520   -4.7770 c1        1 611     -0.018000
     18 C18        -4.3590   -0.5400   -5.6430 c1        1 611     -0.099000
     19 C19        -3.5980   -1.6380   -5.2580 c1        1 611     -0.144000
     20 C20        -2.9730   -1.6520   -4.0080 c1        1 611     -0.011000
     21 N21        -3.5040   -2.7790   -6.1120 no        1 611      0.575000
     22 O22        -3.9670    1.6740   -2.6580 oh        1 611     -0.249000
     23 O23        -5.2540    1.6620   -5.1660 oh        1 611     -0.267000
     24 O24        -2.6210    0.3320   -0.9810 o         1 611     -0.352000
     25 O25        -2.9940   -3.8000   -5.7030 o         1 611     -0.353000
     26 O26        -4.0760   -2.7540   -7.3420 o         1 611     -0.353000
     27 C27         1.6250    3.2060    4.7450 c2        1 611     -0.174000
     28 C28         1.4200    4.5720    4.7790 c1        1 611     -0.062000
     29 N29         2.3600    5.4130    4.2800 n1        1 611     -0.141000
     30 C30         3.5130    4.9110    3.7410 c1        1 611     -0.058000
     31 C31         3.7210    3.5450    3.7060 c1        1 611     -0.184000
     32 H1          2.8600   -2.7580    2.3400 h1        1 611      0.102000
     33 H2          3.7030   -1.2700    3.6570 h1        1 611      0.110000
     34 H3          3.1500    0.7710    2.0950 h2        1 611      0.137000
     35 H5          1.2840   -0.9380    0.7310 h1        1 611      0.142000
     36 H6          0.2200   -2.8630    2.5390 ha        1 611      0.148000
     37 HO8         4.2640   -2.6180    0.8310 ho        1 611      0.231000
     38 HO9         5.5670   -0.5980    2.8560 ho        1 611      0.223000
     39 H10        -1.3620   -3.0670    0.7910 ha        1 611      0.136000
     40 H12         0.2930   -1.7290   -1.0280 h4        1 611      0.125500
     41 H12A       -0.4790   -0.5540   -0.2500 h4        1 611      0.125500
     42 HN13       -1.8350   -2.5170   -1.7410 hn        1 611      0.231000
     43 H18        -4.8030   -0.5310   -6.5300 ha        1 611      0.178000
     44 H20        -2.4300   -2.4370   -3.7340 ha        1 611      0.200000
     45 HO22       -3.9530    2.4310   -3.1510 ho        1 611      0.257000
     46 HO23       -6.0920    1.4140   -5.3090 ho        1 611      0.242000
     47 H27         0.9520    2.6050    5.1020 ha        1 611      0.150000
     48 H28         0.5880    4.9350    5.1680 ha        1 611      0.161000
     49 H30         4.1650    5.4970    3.3950 ha        1 611      0.163000
     50 H31         4.5640    3.1770    3.3130 ha        1 611      0.162000
@<TRIPOS>BOND
     1    1    2 1   
     2    1    5 1   
     3    1    8 1   
     4    1   32 1   
     5    2    3 1   
     6    2    9 1   
     7    2   33 1   
     8    3    4 1   
     9    3    7 1   
    10    3   34 1   
    11    4    5 1   
    12    5    6 1   
    13    5   35 1   
    14    6   10 1   
    15    6   36 1   
    16    7   11 1   
    17    8   37 1   
    18    9   38 1   
    19   10   39 1   
    20   11   27 1   
    21   11   31 1   
    22   12   13 1   
    23   12   40 1   
    24   12   41 1   
    25   13   14 1   
    26   13   42 1   
    27   14   15 1   
    28   14   24 1   
    29   15   16 1   
    30   15   20 1   
    31   16   17 1   
    32   16   22 1   
    33   17   23 1   
    34   18   19 1   
    35   18   43 1   
    36   19   21 1   
    37   20   44 1   
    38   21   25 1   
    39   21   26 1   
    40   22   45 1   
    41   23   46 1   
    42   27   28 1   
    43   27   47 1   
    44   28   48 1   
    45   29   30 1   
    46   30   49 1   
    47   31   50 1   
@<TRIPOS>SUBSTRUCTURE
     1 611         1 TEMP              0 ****  ****    0 ROOT
