@<TRIPOS>MOLECULE
612
   48    49     1     0     0
SMALL
bcc


@<TRIPOS>ATOM
      1 C1          0.3260   -0.0140    0.1180 c3        1 612      0.002400
      2 C2          1.7960    0.3390    0.2020 c3        1 612     -0.071900
      3 C3          2.2460    0.4420    1.6460 c3        1 612     -0.076400
      4 C4          1.4010    1.4370    2.4140 c3        1 612     -0.079400
      5 C5         -0.0720    1.0950    2.3200 c3        1 612     -0.076400
      6 C6         -0.5260    0.9840    0.8780 c3        1 612     -0.071900
      7 S          -0.2480    0.0620   -1.5770 ss        1 612     -0.235700
      8 C7          0.0160   -1.5410   -2.1920 cc        1 612      0.168200
      9 C12         0.9670   -1.7450   -3.1550 cd        1 612     -0.177400
     10 CF          1.8570   -0.6550   -3.6630 c3        1 612     -0.018500
     11 CH          3.3190   -0.9820   -3.4210 c3        1 612     -0.093600
     12 CI          1.6050   -0.3890   -5.1350 c3        1 612     -0.093600
     13 C11         1.1650   -3.1000   -3.7220 c         1 612      0.713700
     14 O11         1.9280   -3.3920   -4.6580 o         1 612     -0.605500
     15 N8         -0.7570   -2.5910   -1.6770 n         1 612     -0.391000
     16 C9         -0.5360   -3.9160   -2.1430 c         1 612      0.799500
     17 O9         -1.1770   -4.8800   -1.6680 o         1 612     -0.651500
     18 N10         0.4330   -4.1380   -3.1280 ns        1 612     -0.583500
     19 CA         -2.0140   -2.3520   -0.9690 c3        1 612      0.282800
     20 OB         -3.1320   -2.1580   -1.8160 os        1 612     -0.421600
     21 CC         -3.6790   -3.3580   -2.3730 c3        1 612      0.121400
     22 CD         -5.0210   -2.9890   -2.9590 c3        1 612     -0.098100
     23 H1          0.1670   -1.0410    0.5350 h1        1 612      0.078700
     24 H2          1.9760    1.3170   -0.3190 hc        1 612      0.054700
     25 H2A         2.4040   -0.4420   -0.3290 hc        1 612      0.054700
     26 H3          3.3210    0.7570    1.6770 hc        1 612      0.044950
     27 H3A         2.1750   -0.5650    2.1340 hc        1 612      0.044950
     28 H4          1.5710    2.4670    2.0040 hc        1 612      0.044700
     29 H4A         1.7160    1.4460    3.4900 hc        1 612      0.044700
     30 H5         -0.6770    1.8840    2.8370 hc        1 612      0.044950
     31 H5A        -0.2640    0.1230    2.8470 hc        1 612      0.044950
     32 H6         -1.6010    0.6660    0.8460 hc        1 612      0.054700
     33 H6A        -0.4540    1.9900    0.3840 hc        1 612      0.054700
     34 HF          1.6160    0.2930   -3.0910 hc        1 612      0.074700
     35 HH          3.6190   -1.8990   -3.9860 hc        1 612      0.043533
     36 HHA         3.5060   -1.1520   -2.3340 hc        1 612      0.043533
     37 HHB         3.9540   -0.1300   -3.7640 hc        1 612      0.043533
     38 HI          2.2460    0.4590   -5.4770 hc        1 612      0.043533
     39 HIA         1.8520   -1.2920   -5.7450 hc        1 612      0.043533
     40 HIB         0.5350   -0.1210   -5.3060 hc        1 612      0.043533
     41 HN10        0.5600   -5.0770   -3.4420 hn        1 612      0.352500
     42 HA         -2.1780   -3.2280   -0.2760 h2        1 612      0.091700
     43 HAA        -1.9350   -1.3730   -0.4080 h2        1 612      0.091700
     44 HC         -3.7770   -4.1400   -1.5740 h1        1 612      0.039700
     45 HCA        -2.9810   -3.7410   -3.1650 h1        1 612      0.039700
     46 HD         -5.4710   -3.8910   -3.4380 hc        1 612      0.046700
     47 HDA        -4.9050   -2.1860   -3.7250 hc        1 612      0.046700
     48 HDB        -5.7070   -2.6170   -2.1610 hc        1 612      0.046700
@<TRIPOS>BOND
     1    1    2 1   
     2    1    6 1   
     3    1    7 1   
     4    1   23 1   
     5    2    3 1   
     6    2   24 1   
     7    2   25 1   
     8    3    4 1   
     9    3   26 1   
    10    3   27 1   
    11    4    5 1   
    12    4   28 1   
    13    4   29 1   
    14    5    6 1   
    15    5   30 1   
    16    5   31 1   
    17    6   32 1   
    18    6   33 1   
    19    7    8 1   
    20    8    9 2   
    21    8   15 1   
    22    9   10 1   
    23    9   13 1   
    24   10   11 1   
    25   10   12 1   
    26   10   34 1   
    27   11   35 1   
    28   11   36 1   
    29   11   37 1   
    30   12   38 1   
    31   12   39 1   
    32   12   40 1   
    33   13   14 2   
    34   13   18 1   
    35   15   16 1   
    36   15   19 1   
    37   16   17 2   
    38   16   18 1   
    39   18   41 1   
    40   19   20 1   
    41   19   42 1   
    42   19   43 1   
    43   20   21 1   
    44   21   22 1   
    45   21   44 1   
    46   21   45 1   
    47   22   46 1   
    48   22   47 1   
    49   22   48 1   
@<TRIPOS>SUBSTRUCTURE
     1 612         1 TEMP              0 ****  ****    0 ROOT
