@<TRIPOS>MOLECULE
612
   48    48     1     0     0
SMALL
bcc


@<TRIPOS>ATOM
      1 C1          1.1720    0.7880    1.2660 c3        1 612     -0.219000
      2 C2          2.6560    0.4680    1.3290 c3        1 612     -0.150500
      3 C3          3.1960    0.5080    2.7410 c3        1 612     -0.155000
      4 C4          2.8500    1.7990    3.4580 c3        1 612     -0.158000
      5 C5          1.3670    2.1190    3.3960 c3        1 612     -0.155000
      6 C6          0.8260    2.0800    1.9830 c3        1 612     -0.150500
      7 S           0.6840    0.9320   -0.4500 ss        1 612      0.187000
      8 C7         -0.7990   -0.0020   -0.7240 c2        1 612     -0.073000
      9 C12        -2.1030    0.6730   -0.7230 c1        1 612     -0.155000
     10 CF         -2.1720    2.1830   -0.7920 c3        1 612     -0.062000
     11 CH         -2.4120    2.6120   -2.2230 c3        1 612     -0.212000
     12 CI         -3.3050    2.6750    0.0800 c3        1 612     -0.212000
     13 C11        -3.3370   -0.1210   -0.7760 c1        1 612      0.352000
     14 O11        -4.4170    0.4350   -0.7760 o         1 612     -0.330000
     15 N8         -0.7340   -1.4140   -0.8520 n         1 612     -0.285000
     16 C9         -1.9650   -2.2020   -0.9040 c2        1 612      0.392000
     17 O9         -1.9070   -3.4150   -0.9560 o         1 612     -0.377000
     18 N10        -3.2660   -1.5330   -0.8970 n         1 612     -0.364000
     19 CA          0.5280   -2.0580   -0.9800 c3        1 612      0.097000
     20 OB          0.3820   -3.2260   -1.7540 os        1 612     -0.277000
     21 CC          1.5970   -3.7320   -2.2570 c3        1 612     -0.039000
     22 CD          1.3160   -4.9140   -3.1590 c3        1 612     -0.235000
     23 H1          0.6730    0.0560    1.6760 h1        1 612      0.117000
     24 H2          3.1430    1.1200    0.7860 hc        1 612      0.094250
     25 H2A         2.8030   -0.4250    0.9590 hc        1 612      0.094250
     26 H3          2.8220   -0.2430    3.2430 hc        1 612      0.084000
     27 H3A         4.1690    0.4140    2.7100 hc        1 612      0.084000
     28 H4          3.1170    1.7210    4.3960 hc        1 612      0.083500
     29 H4A         3.3490    2.5330    3.0470 hc        1 612      0.083500
     30 H5          0.8800    1.4670    3.9390 hc        1 612      0.084000
     31 H5A         1.2200    3.0120    3.7660 hc        1 612      0.084000
     32 H6          1.2000    2.8310    1.4810 hc        1 612      0.094250
     33 H6A        -0.1470    2.1730    2.0150 hc        1 612      0.094250
     34 HF         -1.3290    2.5620   -0.4750 hc        1 612      0.114000
     35 HH         -1.7530    2.1820   -2.8080 hc        1 612      0.082667
     36 HHA        -2.3230    3.5860   -2.2910 hc        1 612      0.082667
     37 HHB        -3.3150    2.3460   -2.4960 hc        1 612      0.082667
     38 HI         -3.1270    3.5990    0.3570 hc        1 612      0.082667
     39 HIA        -3.3800    2.1050    0.8730 hc        1 612      0.082667
     40 HIB        -4.1440    2.6430   -0.4260 hc        1 612      0.082667
     41 HN10       -4.0320   -2.0260   -0.9300 hn        1 612      0.266000
     42 HA          0.8650   -2.2960   -0.0900 h2        1 612      0.130500
     43 HAA         1.1620   -1.4520   -1.4190 h2        1 612      0.130500
     44 HC          2.0550   -3.0330   -2.7690 h1        1 612      0.098000
     45 HCA         2.1650   -4.0170   -1.5120 h1        1 612      0.098000
     46 HD          0.8070   -4.6150   -3.9410 hc        1 612      0.082667
     47 HDA         2.1630   -5.3100   -3.4520 hc        1 612      0.082667
     48 HDB         0.7950   -5.5830   -2.6670 hc        1 612      0.082667
@<TRIPOS>BOND
     1    1    2 1   
     2    1    6 1   
     3    1    7 1   
     4    1   23 1   
     5    2    3 1   
     6    2   24 1   
     7    2   25 1   
     8    3    4 1   
     9    3   26 1   
    10    3   27 1   
    11    4    5 1   
    12    4   28 1   
    13    4   29 1   
    14    5    6 1   
    15    5   30 1   
    16    5   31 1   
    17    6   32 1   
    18    6   33 1   
    19    7    8 1   
    20    8    9 1   
    21    8   15 1   
    22    9   10 1   
    23   10   11 1   
    24   10   12 1   
    25   10   34 1   
    26   11   35 1   
    27   11   36 1   
    28   11   37 1   
    29   12   38 1   
    30   12   39 1   
    31   12   40 1   
    32   13   14 1   
    33   13   18 1   
    34   15   16 1   
    35   15   19 1   
    36   16   17 1   
    37   16   18 1   
    38   18   41 1   
    39   19   20 1   
    40   19   42 1   
    41   19   43 1   
    42   20   21 1   
    43   21   22 1   
    44   21   44 1   
    45   21   45 1   
    46   22   46 1   
    47   22   47 1   
    48   22   48 1   
@<TRIPOS>SUBSTRUCTURE
     1 612         1 TEMP              0 ****  ****    0 ROOT
