@<TRIPOS>MOLECULE
612
   48    49     1     0     0
SMALL
bcc


@<TRIPOS>ATOM
      1 C1          0.3310   -0.0230    0.1230 c3        1 612      0.002400
      2 C2          1.8040    0.3220    0.2090 c3        1 612     -0.071900
      3 C3          2.2530    0.4160    1.6550 c3        1 612     -0.076400
      4 C4          1.4130    1.4130    2.4260 c3        1 612     -0.079400
      5 C5         -0.0610    1.0780    2.3300 c3        1 612     -0.076400
      6 C6         -0.5150    0.9770    0.8870 c3        1 612     -0.071900
      7 S          -0.2400    0.0640   -1.5720 ss        1 612     -0.235700
      8 C7          0.0150   -1.5370   -2.1940 cc        1 612      0.168200
      9 C12         0.9650   -1.7430   -3.1570 cd        1 612     -0.177400
     10 CF          1.8620   -0.6560   -3.6600 c3        1 612     -0.018500
     11 CH          3.3220   -0.9930   -3.4190 c3        1 612     -0.093600
     12 CI          1.6110   -0.3820   -5.1310 c3        1 612     -0.093600
     13 C11         1.1550   -3.0960   -3.7300 c         1 612      0.713700
     14 O11         1.9170   -3.3880   -4.6670 o         1 612     -0.605500
     15 N8         -0.7650   -2.5850   -1.6840 n         1 612     -0.391000
     16 C9         -0.5510   -3.9090   -2.1550 c         1 612      0.799500
     17 O9         -1.1980   -4.8730   -1.6850 o         1 612     -0.651500
     18 N10         0.4170   -4.1330   -3.1410 n         1 612     -0.583500
     19 CA         -2.0200   -2.3420   -0.9760 c3        1 612      0.282800
     20 OB         -3.1370   -2.1380   -1.8220 os        1 612     -0.421600
     21 CC         -3.6910   -3.3320   -2.3850 c3        1 612      0.121400
     22 CD         -5.0300   -2.9530   -2.9700 c3        1 612     -0.098100
     23 H1          0.1670   -1.0510    0.5360 h1        1 612      0.078700
     24 H2          2.4080   -0.4600   -0.3240 hc        1 612      0.054700
     25 H2A         1.9890    1.3010   -0.3060 hc        1 612      0.054700
     26 H3          2.1770   -0.5930    2.1380 hc        1 612      0.044950
     27 H3A         3.3300    0.7260    1.6880 hc        1 612      0.044950
     28 H4          1.7260    1.4150    3.5030 hc        1 612      0.044700
     29 H4A         1.5890    2.4440    2.0220 hc        1 612      0.044700
     30 H5         -0.2590    0.1050    2.8520 hc        1 612      0.044950
     31 H5A        -0.6630    1.8690    2.8500 hc        1 612      0.044950
     32 H6         -1.5920    0.6650    0.8530 hc        1 612      0.054700
     33 H6A        -0.4370    1.9850    0.3980 hc        1 612      0.054700
     34 HF          1.6250    0.2910   -3.0840 hc        1 612      0.074700
     35 HH          3.5070   -1.1680   -2.3320 hc        1 612      0.043533
     36 HHA         3.9620   -0.1420   -3.7580 hc        1 612      0.043533
     37 HHB         3.6160   -1.9080   -3.9880 hc        1 612      0.043533
     38 HI          0.5430   -0.1070   -5.3020 hc        1 612      0.043533
     39 HIA         1.8540   -1.2840   -5.7450 hc        1 612      0.043533
     40 HIB         2.2570    0.4640   -5.4690 hc        1 612      0.043533
     41 HN10        0.5390   -5.0710   -3.4590 hn        1 612      0.352500
     42 HA         -2.1900   -3.2200   -0.2870 h2        1 612      0.091700
     43 HAA        -1.9360   -1.3670   -0.4100 h2        1 612      0.091700
     44 HC         -2.9950   -3.7170   -3.1770 h1        1 612      0.039700
     45 HCA        -3.7950   -4.1170   -1.5880 h1        1 612      0.039700
     46 HD         -4.9090   -2.1470   -3.7320 hc        1 612      0.046700
     47 HDA        -5.4860   -3.8490   -3.4540 hc        1 612      0.046700
     48 HDB        -5.7150   -2.5800   -2.1710 hc        1 612      0.046700
@<TRIPOS>BOND
     1    1    2 1   
     2    1    6 1   
     3    1    7 1   
     4    1   23 1   
     5    2    3 1   
     6    2   24 1   
     7    2   25 1   
     8    3    4 1   
     9    3   26 1   
    10    3   27 1   
    11    4    5 1   
    12    4   28 1   
    13    4   29 1   
    14    5    6 1   
    15    5   30 1   
    16    5   31 1   
    17    6   32 1   
    18    6   33 1   
    19    7    8 1   
    20    8    9 2   
    21    8   15 1   
    22    9   10 1   
    23    9   13 1   
    24   10   11 1   
    25   10   12 1   
    26   10   34 1   
    27   11   35 1   
    28   11   36 1   
    29   11   37 1   
    30   12   38 1   
    31   12   39 1   
    32   12   40 1   
    33   13   14 2   
    34   13   18 1   
    35   15   16 1   
    36   15   19 1   
    37   16   17 2   
    38   16   18 1   
    39   18   41 1   
    40   19   20 1   
    41   19   42 1   
    42   19   43 1   
    43   20   21 1   
    44   21   22 1   
    45   21   44 1   
    46   21   45 1   
    47   22   46 1   
    48   22   47 1   
    49   22   48 1   
@<TRIPOS>SUBSTRUCTURE
     1 612         1 TEMP              0 ****  ****    0 ROOT
