@<TRIPOS>MOLECULE
612
   48    49     1     0     0
SMALL
bcc


@<TRIPOS>ATOM
      1 C1          0.3270   -0.0320    0.1310 c3        1 612      0.002400
      2 C2          1.7970    0.3230    0.2160 c3        1 612     -0.071900
      3 C3          2.2490    0.4110    1.6600 c3        1 612     -0.076400
      4 C4          1.4030    1.3950    2.4420 c3        1 612     -0.079400
      5 C5         -0.0690    1.0490    2.3470 c3        1 612     -0.076400
      6 C6         -0.5250    0.9550    0.9040 c3        1 612     -0.071900
      7 S          -0.2490    0.0630   -1.5620 ss        1 612     -0.235700
      8 C7          0.0160   -1.5320   -2.1960 cc        1 612      0.168200
      9 C12         0.9650   -1.7240   -3.1630 cd        1 612     -0.177400
     10 CF          1.8530   -0.6270   -3.6600 c3        1 612     -0.018500
     11 CH          3.3160   -0.9550   -3.4240 c3        1 612     -0.093600
     12 CI          1.5980   -0.3440   -5.1280 c3        1 612     -0.093600
     13 C11         1.1630   -3.0720   -3.7470 c         1 612      0.713700
     14 O11         1.9250   -3.3520   -4.6870 o         1 612     -0.605500
     15 N8         -0.7560   -2.5890   -1.6930 n         1 612     -0.391000
     16 C9         -0.5340   -3.9080   -2.1750 c         1 612      0.799500
     17 O9         -1.1730   -4.8790   -1.7100 o         1 612     -0.651500
     18 N10         0.4330   -4.1180   -3.1640 n         1 612     -0.583500
     19 CA         -2.0110   -2.3600   -0.9800 c3        1 612      0.282800
     20 OB         -3.1310   -2.1570   -1.8220 os        1 612     -0.421600
     21 CC         -3.6780   -3.3510   -2.3930 c3        1 612      0.121400
     22 CD         -5.0210   -2.9770   -2.9720 c3        1 612     -0.098100
     23 H1          0.1710   -1.0650    0.5360 h1        1 612      0.078700
     24 H2          1.9730    1.3080   -0.2930 hc        1 612      0.054700
     25 H2A         2.4060   -0.4490   -0.3250 hc        1 612      0.054700
     26 H3          2.1820   -0.6030    2.1360 hc        1 612      0.044950
     27 H3A         3.3240    0.7280    1.6930 hc        1 612      0.044950
     28 H4          1.5710    2.4300    2.0440 hc        1 612      0.044700
     29 H4A         1.7200    1.3910    3.5170 hc        1 612      0.044700
     30 H5         -0.6750    1.8310    2.8740 hc        1 612      0.044950
     31 H5A        -0.2570    0.0710    2.8620 hc        1 612      0.044950
     32 H6         -1.6000    0.6350    0.8700 hc        1 612      0.054700
     33 H6A        -0.4570    1.9670    0.4220 hc        1 612      0.054700
     34 HF          1.6120    0.3140   -3.0770 hc        1 612      0.074700
     35 HH          3.5050   -1.1370   -2.3390 hc        1 612      0.043533
     36 HHA         3.6160   -1.8650   -4.0000 hc        1 612      0.043533
     37 HHB         3.9500   -0.0980   -3.7580 hc        1 612      0.043533
     38 HI          0.5280   -0.0750   -5.2950 hc        1 612      0.043533
     39 HIA         2.2370    0.5090   -5.4610 hc        1 612      0.043533
     40 HIB         1.8460   -1.2400   -5.7490 hc        1 612      0.043533
     41 HN10        0.5610   -5.0530   -3.4890 hn        1 612      0.352500
     42 HA         -2.1730   -3.2440   -0.2970 h2        1 612      0.091700
     43 HAA        -1.9320   -1.3880   -0.4070 h2        1 612      0.091700
     44 HC         -2.9810   -3.7240   -3.1900 h1        1 612      0.039700
     45 HCA        -3.7750   -4.1430   -1.6030 h1        1 612      0.039700
     46 HD         -5.4710   -3.8730   -3.4620 hc        1 612      0.046700
     47 HDA        -5.7070   -2.6150   -2.1690 hc        1 612      0.046700
     48 HDB        -4.9070   -2.1640   -3.7280 hc        1 612      0.046700
@<TRIPOS>BOND
     1    1    2 1   
     2    1    6 1   
     3    1    7 1   
     4    1   23 1   
     5    2    3 1   
     6    2   24 1   
     7    2   25 1   
     8    3    4 1   
     9    3   26 1   
    10    3   27 1   
    11    4    5 1   
    12    4   28 1   
    13    4   29 1   
    14    5    6 1   
    15    5   30 1   
    16    5   31 1   
    17    6   32 1   
    18    6   33 1   
    19    7    8 1   
    20    8    9 2   
    21    8   15 1   
    22    9   10 1   
    23    9   13 1   
    24   10   11 1   
    25   10   12 1   
    26   10   34 1   
    27   11   35 1   
    28   11   36 1   
    29   11   37 1   
    30   12   38 1   
    31   12   39 1   
    32   12   40 1   
    33   13   14 2   
    34   13   18 1   
    35   15   16 1   
    36   15   19 1   
    37   16   17 2   
    38   16   18 1   
    39   18   41 1   
    40   19   20 1   
    41   19   42 1   
    42   19   43 1   
    43   20   21 1   
    44   21   22 1   
    45   21   44 1   
    46   21   45 1   
    47   22   46 1   
    48   22   47 1   
    49   22   48 1   
@<TRIPOS>SUBSTRUCTURE
     1 612         1 TEMP              0 ****  ****    0 ROOT
