@<TRIPOS>MOLECULE
612
   48    49     1     0     0
SMALL
bcc


@<TRIPOS>ATOM
      1 C1         -2.2590   -0.5740    0.0950 c3        1 612      0.002400
      2 C2         -3.0910    0.6510    0.4170 c3        1 612     -0.071900
      3 C3         -4.2370    0.2980    1.3440 c3        1 612     -0.076400
      4 C4         -5.0940   -0.8070    0.7600 c3        1 612     -0.079400
      5 C5         -4.2630   -2.0280    0.4250 c3        1 612     -0.076400
      6 C6         -3.1110   -1.6790   -0.4980 c3        1 612     -0.071900
      7 S          -1.0320   -0.1950   -1.1530 ss        1 612     -0.235700
      8 C7          0.3570    0.3210   -0.2470 cc        1 612      0.168200
      9 C12         0.7580    1.6280   -0.3140 cd        1 612     -0.177400
     10 CF          0.0080    2.6710   -1.0820 c3        1 612     -0.018500
     11 CH         -0.4540    3.7960   -0.1740 c3        1 612     -0.093600
     12 CI          0.8470    3.2150   -2.2230 c3        1 612     -0.093600
     13 C11         1.9710    2.0670    0.4150 c         1 612      0.713700
     14 O11         2.4830    3.1980    0.3590 o         1 612     -0.605500
     15 N8          1.0330   -0.6230    0.5380 n         1 612     -0.391000
     16 C9          2.1540   -0.2160    1.3120 c         1 612      0.799500
     17 O9          2.7480   -1.0260    2.0600 o         1 612     -0.651500
     18 N10         2.5740    1.1170    1.2520 n         1 612     -0.583500
     19 CA          0.8810   -2.0610    0.3210 c3        1 612      0.282800
     20 OB          1.6900   -2.5830   -0.7170 os        1 612     -0.421600
     21 CC          3.0620   -2.7860   -0.3650 c3        1 612      0.121400
     22 CD          3.6690   -3.6300   -1.4610 c3        1 612     -0.098100
     23 H1         -1.7620   -0.9390    1.0290 h1        1 612      0.078700
     24 H2         -2.4440    1.4330    0.8960 hc        1 612      0.054700
     25 H2A        -3.4970    1.0870   -0.5340 hc        1 612      0.054700
     26 H3         -3.8300   -0.0280    2.3370 hc        1 612      0.044950
     27 H3A        -4.8650    1.2090    1.5190 hc        1 612      0.044950
     28 H4         -5.8940   -1.0890    1.4940 hc        1 612      0.044700
     29 H4A        -5.6030   -0.4350   -0.1680 hc        1 612      0.044700
     30 H5         -3.8600   -2.4770    1.3700 hc        1 612      0.044950
     31 H5A        -4.9080   -2.8000   -0.0680 hc        1 612      0.044950
     32 H6         -3.5140   -1.3490   -1.4920 hc        1 612      0.054700
     33 H6A        -2.4800   -2.5900   -0.6720 hc        1 612      0.054700
     34 HF         -0.9140    2.1860   -1.5270 hc        1 612      0.074700
     35 HH         -1.0530    4.5300   -0.7640 hc        1 612      0.043533
     36 HHA        -1.0930    3.3950    0.6500 hc        1 612      0.043533
     37 HHB         0.4210    4.3280    0.2740 hc        1 612      0.043533
     38 HI          1.1610    2.3890   -2.9050 hc        1 612      0.043533
     39 HIA         0.2480    3.9530   -2.8080 hc        1 612      0.043533
     40 HIB         1.7600    3.7250   -1.8300 hc        1 612      0.043533
     41 HN10        3.3690    1.3720    1.8000 hn        1 612      0.352500
     42 HA          1.1030   -2.5720    1.3020 h2        1 612      0.091700
     43 HAA        -0.1720   -2.2650   -0.0370 h2        1 612      0.091700
     44 HC          3.5700   -1.7870   -0.2930 h1        1 612      0.039700
     45 HCA         3.1290   -3.2940    0.6330 h1        1 612      0.039700
     46 HD          3.5590   -3.1240   -2.4490 hc        1 612      0.046700
     47 HDA         4.7530   -3.7850   -1.2460 hc        1 612      0.046700
     48 HDB         3.1600   -4.6220   -1.5170 hc        1 612      0.046700
@<TRIPOS>BOND
     1    1    2 1   
     2    1    6 1   
     3    1    7 1   
     4    1   23 1   
     5    2    3 1   
     6    2   24 1   
     7    2   25 1   
     8    3    4 1   
     9    3   26 1   
    10    3   27 1   
    11    4    5 1   
    12    4   28 1   
    13    4   29 1   
    14    5    6 1   
    15    5   30 1   
    16    5   31 1   
    17    6   32 1   
    18    6   33 1   
    19    7    8 1   
    20    8    9 2   
    21    8   15 1   
    22    9   10 1   
    23    9   13 1   
    24   10   11 1   
    25   10   12 1   
    26   10   34 1   
    27   11   35 1   
    28   11   36 1   
    29   11   37 1   
    30   12   38 1   
    31   12   39 1   
    32   12   40 1   
    33   13   14 2   
    34   13   18 1   
    35   15   16 1   
    36   15   19 1   
    37   16   17 2   
    38   16   18 1   
    39   18   41 1   
    40   19   20 1   
    41   19   42 1   
    42   19   43 1   
    43   20   21 1   
    44   21   22 1   
    45   21   44 1   
    46   21   45 1   
    47   22   46 1   
    48   22   47 1   
    49   22   48 1   
@<TRIPOS>SUBSTRUCTURE
     1 612         1 TEMP              0 ****  ****    0 ROOT
