@<TRIPOS>MOLECULE
613
   31    28     1     0     0
SMALL
bcc


@<TRIPOS>ATOM
      1 C1          2.5300    0.7350   -1.0350 c1        1 613     -0.054500
      2 N1          0.4520    0.2310   -0.4260 n3        1 613     -0.597200
      3 CL1         6.2830    0.6010    0.1290 cl        1 613     -0.103900
      4 C2          3.9030    0.8660   -0.9580 c1        1 613     -0.054500
      5 N2         -2.3070   -0.2580    0.1220 nh        1 613     -0.670400
      6 C3          4.5780    0.3730    0.1250 c1        1 613      0.026900
      7 N3         -4.0390   -1.0700    1.4020 n1        1 613     -0.292000
      8 C4          3.8960   -0.2500    1.1330 c1        1 613     -0.061500
      9 N4         -4.6140   -0.0520   -0.6240 nh        1 613     -0.838600
     10 C5          2.5410   -0.3810    1.0600 c1        1 613     -0.088500
     11 C6          1.8530    0.1190   -0.0400 c1        1 613      0.059800
     12 C7         -0.2520    0.9950    0.5610 c3        1 613      0.169800
     13 C8         -1.7570    1.0380    0.3050 c3        1 613      0.172300
     14 C9         -1.6010   -1.0290   -0.8670 c3        1 613      0.172300
     15 C10        -0.0960   -1.0640   -0.6070 c3        1 613      0.169800
     16 C11        -3.6550   -0.4820    0.3390 c2        1 613      0.306000
     17 H1          2.0700    1.0710   -1.7740 ha        1 613      0.092500
     18 H2          4.3730    1.2930   -1.6460 ha        1 613      0.092500
     19 HN3        -3.4140   -1.3490    2.0300 DU        1 613      0.166000
     20 H4          4.4170   -0.6280    1.9620 ha        1 613      0.090500
     21 HN4        -5.5350   -0.1440   -0.4450 hn        1 613      0.397800
     22 HN4A       -4.3450    0.3180   -1.3870 hn        1 613      0.397800
     23 H5          2.0800   -0.8020    1.7420 ha        1 613      0.082500
     24 H7          0.1190    1.9590    0.5650 h1        1 613      0.045200
     25 H7A        -0.0930    0.5770    1.4670 h1        1 613      0.045200
     26 H8         -2.2070    1.4740    1.0870 h1        1 613      0.046200
     27 H8A        -1.9200    1.5500   -0.4650 h1        1 613      0.046200
     28 H9         -1.9330   -1.9300   -0.8550 h1        1 613      0.046200
     29 H9A        -1.7710   -0.6300   -1.7830 h1        1 613      0.046200
     30 H10         0.0910   -1.6390    0.2630 h1        1 613      0.045200
     31 H10A        0.3530   -1.4950   -1.3790 h1        1 613      0.045200
@<TRIPOS>BOND
     1    1    4 3   
     2    1   17 1   
     3    2   11 1   
     4    2   12 1   
     5    2   15 1   
     6    3    6 1   
     7    4   18 1   
     8    5   13 1   
     9    5   14 1   
    10    5   16 1   
    11    6    8 3   
    12    7   16 2   
    13    8   20 1   
    14    9   16 1   
    15    9   21 1   
    16    9   22 1   
    17   10   11 3   
    18   10   23 1   
    19   12   13 1   
    20   12   24 1   
    21   12   25 1   
    22   13   26 1   
    23   13   27 1   
    24   14   15 1   
    25   14   28 1   
    26   14   29 1   
    27   15   30 1   
    28   15   31 1   
@<TRIPOS>SUBSTRUCTURE
     1 613         1 TEMP              0 ****  ****    0 ROOT
