@<TRIPOS>MOLECULE
613
   32    33     1     0     0
SMALL
bcc


@<TRIPOS>ATOM
      1 C1          0.1550   -0.0660    0.1610 ca        1 613     -0.143500
      2 N1         -2.0670   -0.1470    1.1700 nh        1 613     -0.635000
      3 Cl1         3.8340    0.1880    1.6420 cl        1 613     -0.060400
      4 C2          1.5380    0.0260    0.2630 ca        1 613     -0.101000
      5 N2         -4.9300   -0.7030    1.2200 nh        1 613     -0.729600
      6 C3          2.1480    0.0740    1.5220 ca        1 613      0.012400
      7 N3         -5.0460   -2.4070    3.0740 n2        1 613     -0.732100
      8 C4          1.3660    0.0290    2.6780 ca        1 613     -0.101000
      9 N4         -6.8180   -2.2070    1.5210 nz        1 613     -0.815600
     10 C5         -0.0190   -0.0700    2.5810 ca        1 613     -0.143500
     11 C6         -0.6490   -0.1170    1.3210 ca        1 613      0.096600
     12 C7         -2.8460    0.2230    2.3340 c3        1 613      0.155300
     13 C8         -4.3420    0.3900    1.9890 c3        1 613      0.153800
     14 C9         -4.0750   -1.1440    0.1190 c3        1 613      0.153800
     15 C10        -2.5870   -1.3210    0.4900 c3        1 613      0.155300
     16 C11        -5.4450   -1.7790    2.0270 c2        1 613      0.666100
     17 H1         -0.3040   -0.0830   -0.8400 ha        1 613      0.137500
     18 H2          2.1520    0.0690   -0.6510 ha        1 613      0.159000
     19 HN3        -4.1480   -2.1830    3.4520 hn        1 613      0.482400
     20 H4          1.8410    0.0710    3.6720 ha        1 613      0.159000
     21 HN4        -6.7280   -2.5410    0.5570 hn        1 613      0.474133
     22 HN4A       -7.4430   -1.3930    1.5390 hn        1 613      0.474133
     23 H5         -0.6060   -0.1030    3.5120 ha        1 613      0.137500
     24 H7         -2.4670    1.2150    2.7120 h1        1 613      0.056700
     25 H7A        -2.7480   -0.5270    3.1740 h1        1 613      0.056700
     26 H8         -4.4710    1.3050    1.3390 h1        1 613      0.085450
     27 H8A        -4.9160    0.5480    2.9420 h1        1 613      0.085450
     28 H9         -4.4540   -2.1140   -0.3030 h1        1 613      0.085450
     29 H9A        -4.1700   -0.3440   -0.6720 h1        1 613      0.085450
     30 H10        -2.4730   -2.2560    1.1130 h1        1 613      0.056700
     31 H10A       -2.0080   -1.4700   -0.4650 h1        1 613      0.056700
     32 H43        -7.2060   -2.9540    2.1110 hn        1 613      0.474133
@<TRIPOS>BOND
     1    1    4 ar  
     2    1   11 ar  
     3    1   17 1   
     4    2   11 1   
     5    2   12 1   
     6    2   15 1   
     7    3    6 1   
     8    4    6 ar  
     9    4   18 1   
    10    5   13 1   
    11    5   14 1   
    12    5   16 1   
    13    6    8 ar  
    14    7   16 2   
    15    7   19 1   
    16    8   10 ar  
    17    8   20 1   
    18    9   16 1   
    19    9   21 1   
    20    9   22 1   
    21    9   32 1   
    22   10   11 ar  
    23   10   23 1   
    24   12   13 1   
    25   12   24 1   
    26   12   25 1   
    27   13   26 1   
    28   13   27 1   
    29   14   15 1   
    30   14   28 1   
    31   14   29 1   
    32   15   30 1   
    33   15   31 1   
@<TRIPOS>SUBSTRUCTURE
     1 613         1 TEMP              0 ****  ****    0 ROOT
