@<TRIPOS>MOLECULE
613
   32    33     1     0     0
SMALL
bcc


@<TRIPOS>ATOM
      1 C1          0.1380   -0.0470    0.1340 ca        1 613     -0.143500
      2 N1         -2.0710   -0.1440    1.1720 nh        1 613     -0.635000
      3 CL1         3.8350    0.1900    1.5710 cl        1 613     -0.060400
      4 C2          1.5220    0.0450    0.2200 ca        1 613     -0.101000
      5 N2         -4.9340   -0.7030    1.2510 nh        1 613     -0.729600
      6 C3          2.1480    0.0760    1.4710 ca        1 613      0.012400
      7 N3         -5.0210   -2.4340    3.0820 n2        1 613     -0.732100
      8 C4          1.3800    0.0160    2.6370 ca        1 613     -0.101000
      9 N4         -6.8170   -2.2110    1.5590 n4        1 613     -0.815600
     10 C5         -0.0060   -0.0840    2.5570 ca        1 613     -0.143500
     11 C6         -0.6510   -0.1150    1.3040 ca        1 613      0.096600
     12 C7         -2.8360    0.2100    2.3510 c3        1 613      0.155300
     13 C8         -4.3360    0.3810    2.0270 c3        1 613      0.153800
     14 C9         -4.0930   -1.1280    0.1340 c3        1 613      0.153800
     15 C10        -2.5990   -1.3090    0.4820 c3        1 613      0.155300
     16 C11        -5.4360   -1.7900    2.0500 c2        1 613      0.666100
     17 H1         -0.3350   -0.0510   -0.8600 ha        1 613      0.137500
     18 H2          2.1230    0.1000   -0.7020 ha        1 613      0.159000
     19 HN3        -4.1170   -2.2150    3.4490 hn        1 613      0.482400
     20 H4          1.8680    0.0460    3.6250 ha        1 613      0.159000
     21 HN4        -6.7420   -2.5300    0.5890 hn        1 613      0.474133
     22 HN4A       -7.1970   -2.9660    2.1440 hn        1 613      0.474133
     23 H5         -0.5800   -0.1290    3.4940 ha        1 613      0.137500
     24 H7         -2.7260   -0.5510    3.1790 h1        1 613      0.056950
     25 H7A        -2.4520    1.1980    2.7370 h1        1 613      0.056950
     26 H8         -4.4740    1.3040    1.3910 h1        1 613      0.085450
     27 H8A        -4.8970    0.5250    2.9900 h1        1 613      0.085450
     28 H9         -4.1980   -0.3180   -0.6450 h1        1 613      0.085450
     29 H9A        -4.4760   -2.0930   -0.2960 h1        1 613      0.085450
     30 H10        -2.4760   -2.2520    1.0920 h1        1 613      0.056950
     31 H10A       -2.0330   -1.4450   -0.4810 h1        1 613      0.056950
     32 H43        -7.4410   -1.3970    1.5980 hn        1 613      0.474133
@<TRIPOS>BOND
     1    1    4 ar  
     2    1   11 ar  
     3    1   17 1   
     4    2   11 1   
     5    2   12 1   
     6    2   15 1   
     7    3    6 1   
     8    4    6 ar  
     9    4   18 1   
    10    5   13 1   
    11    5   14 1   
    12    5   16 1   
    13    6    8 ar  
    14    7   16 2   
    15    7   19 1   
    16    8   10 ar  
    17    8   20 1   
    18    9   16 1   
    19    9   21 1   
    20    9   22 1   
    21    9   32 1   
    22   10   11 ar  
    23   10   23 1   
    24   12   13 1   
    25   12   24 1   
    26   12   25 1   
    27   13   26 1   
    28   13   27 1   
    29   14   15 1   
    30   14   28 1   
    31   14   29 1   
    32   15   30 1   
    33   15   31 1   
@<TRIPOS>SUBSTRUCTURE
     1 613         1 TEMP              0 ****  ****    0 ROOT
