@<TRIPOS>MOLECULE
613
   32    33     1     0     0
SMALL
bcc


@<TRIPOS>ATOM
      1 C1          0.1250   -0.0270    0.1180 ca        1 613     -0.143500
      2 N1         -2.0750   -0.1390    1.1740 nh        1 613     -0.635000
      3 CL1         3.8340    0.2010    1.5250 cl        1 613     -0.060400
      4 C2          1.5090    0.0670    0.1930 ca        1 613     -0.101000
      5 N2         -4.9350   -0.7040    1.2720 nh        1 613     -0.729600
      6 C3          2.1460    0.0850    1.4390 ca        1 613      0.012400
      7 N3         -5.0090   -2.4490    3.0900 n2        1 613     -0.732100
      8 C4          1.3890    0.0110    2.6110 ca        1 613     -0.101000
      9 N4         -6.8120   -2.2210    1.5760 n4        1 613     -0.815600
     10 C5          0.0030   -0.0900    2.5410 ca        1 613     -0.143500
     11 C6         -0.6540   -0.1080    1.2950 ca        1 613      0.096600
     12 C7         -2.8290    0.2020    2.3640 c3        1 613      0.155300
     13 C8         -4.3330    0.3730    2.0550 c3        1 613      0.153800
     14 C9         -4.1040   -1.1160    0.1440 c3        1 613      0.153800
     15 C10        -2.6070   -1.2970    0.4770 c3        1 613      0.155300
     16 C11        -5.4300   -1.8000    2.0650 c2        1 613      0.666100
     17 H1         -0.3570   -0.0210   -0.8720 ha        1 613      0.137500
     18 H2          2.1020    0.1320   -0.7340 ha        1 613      0.159000
     19 HN3        -4.1040   -2.2300    3.4550 hn        1 613      0.482400
     20 H4          1.8860    0.0310    3.5940 ha        1 613      0.159000
     21 HN4        -7.1860   -2.9830    2.1560 hn        1 613      0.474133
     22 HN4A       -7.4390   -1.4110    1.6240 hn        1 613      0.474133
     23 H5         -0.5630   -0.1460    3.4830 ha        1 613      0.137500
     24 H7         -2.7110   -0.5680    3.1830 h1        1 613      0.056700
     25 H7A        -2.4440    1.1850    2.7570 h1        1 613      0.056700
     26 H8         -4.8860    0.5070    3.0240 h1        1 613      0.085450
     27 H8A        -4.4780    1.3030    1.4300 h1        1 613      0.085450
     28 H9         -4.2170   -0.2980   -0.6260 h1        1 613      0.085450
     29 H9A        -4.4900   -2.0760   -0.2930 h1        1 613      0.085450
     30 H10        -2.4770   -2.2460    1.0760 h1        1 613      0.056700
     31 H10A       -2.0490   -1.4220   -0.4930 h1        1 613      0.056700
     32 H43        -6.7390   -2.5340    0.6030 hn        1 613      0.474133
@<TRIPOS>BOND
     1    1    4 ar  
     2    1   11 ar  
     3    1   17 1   
     4    2   11 1   
     5    2   12 1   
     6    2   15 1   
     7    3    6 1   
     8    4    6 ar  
     9    4   18 1   
    10    5   13 1   
    11    5   14 1   
    12    5   16 1   
    13    6    8 ar  
    14    7   16 2   
    15    7   19 1   
    16    8   10 ar  
    17    8   20 1   
    18    9   16 1   
    19    9   21 1   
    20    9   22 1   
    21    9   32 1   
    22   10   11 ar  
    23   10   23 1   
    24   12   13 1   
    25   12   24 1   
    26   12   25 1   
    27   13   26 1   
    28   13   27 1   
    29   14   15 1   
    30   14   28 1   
    31   14   29 1   
    32   15   30 1   
    33   15   31 1   
@<TRIPOS>SUBSTRUCTURE
     1 613         1 TEMP              0 ****  ****    0 ROOT
