@<TRIPOS>MOLECULE
613
   31    32     1     0     0
SMALL
bcc


@<TRIPOS>ATOM
      1 C1         -1.7430   -1.1680    0.3610 ca        1 613     -0.164000
      2 N1          0.4870   -0.1840    0.5850 nh        1 613     -0.634000
      3 CL1        -5.3230    0.3350   -0.5010 cl        1 613     -0.101400
      4 C2         -3.1060   -1.0480    0.1280 ca        1 613     -0.100000
      5 N2          3.4260   -0.2770    0.5980 nh        1 613     -0.693600
      6 C3         -3.6520    0.1920   -0.2180 ca        1 613     -0.013600
      7 N3          3.7260    1.0170   -1.4220 n2        1 613     -0.860100
      8 C4         -2.8260    1.3110   -0.3300 ca        1 613     -0.100000
      9 N4          5.2940   -0.7530   -0.8680 nh        1 613     -0.929800
     10 C5         -1.4580    1.1940   -0.1040 ca        1 613     -0.164000
     11 C6         -0.8830   -0.0470    0.2530 ca        1 613      0.142600
     12 C7          1.2550    1.0480    0.6790 c3        1 613      0.154300
     13 C8          2.6820    0.8080    1.2160 c3        1 613      0.173800
     14 C9          2.6110   -1.4750    0.4580 c3        1 613      0.173800
     15 C10         1.1970   -1.2440   -0.1170 c3        1 613      0.154300
     16 C11         4.1480    0.0690   -0.6280 c2        1 613      0.735100
     17 H1         -1.3430   -2.1510    0.6510 ha        1 613      0.139500
     18 H2         -3.7550   -1.9320    0.2200 ha        1 613      0.145000
     19 HN3         4.3100    1.2280   -2.2020 hn        1 613      0.393400
     20 H4         -3.2500    2.2890   -0.6030 ha        1 613      0.145000
     21 HN4         5.5850   -1.3120   -0.0960 hn        1 613      0.394800
     22 HN4A        6.0520   -0.2680   -1.2940 hn        1 613      0.394800
     23 H5         -0.8350    2.0950   -0.2130 ha        1 613      0.139500
     24 H7          1.3230    1.5730   -0.3180 h1        1 613      0.052200
     25 H7A         0.7280    1.7300    1.4040 h1        1 613      0.052200
     26 H8          2.6180    0.5390    2.3100 h1        1 613      0.065950
     27 H8A         3.2520    1.7720    1.1210 h1        1 613      0.065950
     28 H9          3.1280   -2.2270   -0.1970 h1        1 613      0.065950
     29 H9A         2.5190   -1.9100    1.4940 h1        1 613      0.065950
     30 H10         0.6220   -2.2050   -0.0070 h1        1 613      0.052200
     31 H10A        1.2850   -1.0140   -1.2180 h1        1 613      0.052200
@<TRIPOS>BOND
     1    1    4 ar  
     2    1   11 ar  
     3    1   17 1   
     4    2   11 1   
     5    2   12 1   
     6    2   15 1   
     7    3    6 1   
     8    4    6 ar  
     9    4   18 1   
    10    5   13 1   
    11    5   14 1   
    12    5   16 1   
    13    6    8 ar  
    14    7   16 2   
    15    7   19 1   
    16    8   10 ar  
    17    8   20 1   
    18    9   16 1   
    19    9   21 1   
    20    9   22 1   
    21   10   11 ar  
    22   10   23 1   
    23   12   13 1   
    24   12   24 1   
    25   12   25 1   
    26   13   26 1   
    27   13   27 1   
    28   14   15 1   
    29   14   28 1   
    30   14   29 1   
    31   15   30 1   
    32   15   31 1   
@<TRIPOS>SUBSTRUCTURE
     1 613         1 TEMP              0 ****  ****    0 ROOT
