@<TRIPOS>MOLECULE
614
   63    67     1     0     0
SMALL
bcc


@<TRIPOS>ATOM
      1 N1          0.0850    0.7550   -0.3030 nc        1 614     -0.481300
      2 N2          1.3840    0.8320   -0.0510 n         1 614     -0.197800
      3 C3         -0.7970    0.5230    0.6690 cd        1 614      0.505800
      4 C4          1.9450    0.7120    1.2540 c         1 614      0.692100
      5 C5          0.9880    0.4710    2.3520 ca        1 614     -0.147600
      6 C6         -0.3900    0.3650    2.0760 ca        1 614     -0.091900
      7 C7         -2.5790   -0.3770   -0.7130 cc        1 614      0.033300
      8 N8         -2.2030    0.4210    0.3890 nu        1 614     -0.606600
      9 N9         -2.1040   -0.2920   -2.0480 na        1 614     -0.022600
     10 C10        -3.5550   -1.3980   -0.7200 cd        1 614     -0.255300
     11 N11        -2.6700   -1.1960   -2.8370 nc        1 614     -0.507800
     12 C12        -3.5820   -1.8820   -2.0810 cd        1 614      0.298600
     13 N13         1.9870    0.9240    6.5610 n3        1 614     -0.727600
     14 N14         3.0320    2.9500    8.4290 n3        1 614     -0.719600
     15 C15        -1.2820    0.1170    3.1280 ca        1 614     -0.106000
     16 C16         2.2870    1.0520   -1.2020 c3        1 614      0.119700
     17 C17         1.4630    0.3380    3.6630 ca        1 614     -0.050000
     18 O18         3.1740    0.8090    1.4150 o         1 614     -0.613500
     19 C19         0.5670    0.0970    4.7040 ca        1 614     -0.088300
     20 C20         1.0580   -0.1050    6.1090 c3        1 614      0.214100
     21 O21         2.9960    1.5260   -3.9540 os        1 614     -0.412600
     22 C22         2.6800    0.5270    7.7790 c3        1 614      0.134300
     23 C23         1.3660    2.2360    6.6640 c3        1 614      0.134300
     24 C24         2.3310    3.3110    7.2070 c3        1 614      0.162300
     25 C25         3.6240    1.6280    8.3090 c3        1 614      0.162300
     26 C26        -0.8040   -0.0130    4.4270 ca        1 614     -0.105000
     27 C27         2.1790   -0.0430   -2.2730 c3        1 614     -0.122400
     28 C28         2.0760    2.4140   -1.8760 c3        1 614     -0.122400
     29 C29         2.2390    3.1240    9.6260 c3        1 614      0.148100
     30 C30         3.1850    0.2390   -3.3770 c3        1 614      0.125400
     31 C31         3.0870    2.5770   -3.0000 c3        1 614      0.125400
     32 C32        -4.4590   -2.9540   -2.5850 c3        1 614     -0.119400
     33 HN8        -2.6080    1.3420    0.3180 hn        1 614      0.399800
     34 H10        -4.1550   -1.7440    0.1130 ha        1 614      0.170000
     35 H15        -2.3610    0.0180    2.9320 ha        1 614      0.159000
     36 H16         3.3370    1.0260   -0.7750 h1        1 614      0.098700
     37 H17         2.5460    0.4280    3.8580 ha        1 614      0.177000
     38 H20         1.6040   -1.0940    6.1390 h1        1 614      0.042700
     39 H20A        0.1670   -0.1910    6.8010 h1        1 614      0.042700
     40 H22         3.3000   -0.3810    7.5410 h1        1 614      0.035700
     41 H22A        1.9540    0.2460    8.5980 h1        1 614      0.035700
     42 H23         0.4460    2.2110    7.3200 h1        1 614      0.035700
     43 H23A        1.0420    2.5390    5.6290 h1        1 614      0.035700
     44 H24         3.1190    3.5200    6.4300 h1        1 614      0.060200
     45 H24A        1.7420    4.2540    7.3750 h1        1 614      0.060200
     46 H25         4.4980    1.7260    7.6060 h1        1 614      0.060200
     47 H25A        4.0130    1.2970    9.3110 h1        1 614      0.060200
     48 H26        -1.5130   -0.2070    5.2470 ha        1 614      0.139000
     49 H27         2.3880   -1.0490   -1.8290 hc        1 614      0.062700
     50 H27A        1.1460   -0.0610   -2.7090 hc        1 614      0.062700
     51 H28         2.2100    3.2430   -1.1360 hc        1 614      0.062700
     52 H28A        1.0390    2.4830   -2.2950 hc        1 614      0.062700
     53 H29         2.8810    2.9090   10.5200 h1        1 614      0.031367
     54 H29A        1.8970    4.1910    9.6800 h1        1 614      0.031367
     55 H29B        1.3350    2.4580    9.6680 h1        1 614      0.031367
     56 H30         3.0410   -0.4680   -4.2370 h1        1 614      0.053200
     57 H30A        4.2340    0.1540   -2.9850 h1        1 614      0.053200
     58 H31         2.8750    3.5040   -3.5960 h1        1 614      0.053200
     59 H31A        4.1300    2.6200   -2.5870 h1        1 614      0.053200
     60 H32        -5.0330   -3.4010   -1.7360 hc        1 614      0.048700
     61 H32A       -3.8610   -3.7610   -3.0770 hc        1 614      0.048700
     62 H32B       -5.1840   -2.5480   -3.3340 hc        1 614      0.048700
     63 HN9        -1.3200    0.2270   -2.3770 hn        1 614      0.327700
@<TRIPOS>BOND
     1    1    2 1   
     2    1    3 2   
     3    2    4 1   
     4    2   16 1   
     5    3    6 1   
     6    3    8 1   
     7    4    5 1   
     8    4   18 2   
     9    5    6 ar  
    10    5   17 ar  
    11    6   15 ar  
    12    7    8 1   
    13    7    9 1   
    14    7   10 2   
    15    8   33 1   
    16    9   11 1   
    17    9   63 1   
    18   10   12 1   
    19   10   34 1   
    20   11   12 2   
    21   12   32 1   
    22   13   20 1   
    23   13   22 1   
    24   13   23 1   
    25   14   24 1   
    26   14   25 1   
    27   14   29 1   
    28   15   26 ar  
    29   15   35 1   
    30   16   27 1   
    31   16   28 1   
    32   16   36 1   
    33   17   19 ar  
    34   17   37 1   
    35   19   20 1   
    36   19   26 ar  
    37   20   38 1   
    38   20   39 1   
    39   21   30 1   
    40   21   31 1   
    41   22   25 1   
    42   22   40 1   
    43   22   41 1   
    44   23   24 1   
    45   23   42 1   
    46   23   43 1   
    47   24   44 1   
    48   24   45 1   
    49   25   46 1   
    50   25   47 1   
    51   26   48 1   
    52   27   30 1   
    53   27   49 1   
    54   27   50 1   
    55   28   31 1   
    56   28   51 1   
    57   28   52 1   
    58   29   53 1   
    59   29   54 1   
    60   29   55 1   
    61   30   56 1   
    62   30   57 1   
    63   31   58 1   
    64   31   59 1   
    65   32   60 1   
    66   32   61 1   
    67   32   62 1   
@<TRIPOS>SUBSTRUCTURE
     1 614         1 TEMP              0 ****  ****    0 ROOT
