@<TRIPOS>MOLECULE
614
   64    68     1     0     0
SMALL
bcc


@<TRIPOS>ATOM
      1 N1          0.0770    0.9570   -0.3860 nc        1 614     -0.389300
      2 N2          1.3390    0.9880   -0.0780 n         1 614     -0.164800
      3 C3         -0.8580    0.7740    0.5560 cd        1 614      0.341800
      4 C4          1.8320    0.8180    1.2760 c         1 614      0.693100
      5 C5          0.8060    0.6070    2.3140 ca        1 614     -0.141600
      6 C6         -0.5660    0.5740    1.9740 ca        1 614     -0.102900
      7 C7         -2.5790   -0.2930   -0.8350 cc        1 614     -0.128700
      8 N8         -2.2620    0.7730    0.0920 n4        1 614     -0.514400
      9 N9         -1.9550   -0.5110   -2.0820 na        1 614      0.036400
     10 C10        -3.5600   -1.3020   -0.6850 cd        1 614     -0.211300
     11 N11        -2.4710   -1.5570   -2.6970 nc        1 614     -0.434800
     12 C12        -3.4590   -2.0800   -1.8950 cd        1 614      0.339600
     13 N13         1.7540    0.8740    6.5050 n3        1 614     -0.738600
     14 N14         3.2470    2.5710    8.3930 n3        1 614     -0.718600
     15 C15        -1.5100    0.3630    2.9860 ca        1 614     -0.151000
     16 C16         2.3210    1.2100   -1.1810 c3        1 614      0.104700
     17 C17         1.2160    0.4350    3.6430 ca        1 614     -0.024000
     18 O18         3.0480    0.8560    1.4800 o         1 614     -0.533500
     19 C19         0.2640    0.2300    4.6440 ca        1 614     -0.057300
     20 C20         0.6800   -0.0060    6.0710 c3        1 614      0.207100
     21 O21         3.1380    1.6800   -3.8890 os        1 614     -0.399600
     22 C22         2.5720    0.2790    7.5550 c3        1 614      0.133300
     23 C23         1.2830    2.2110    6.8390 c3        1 614      0.133300
     24 C24         2.4170    3.1320    7.3420 c3        1 614      0.165800
     25 C25         3.6850    1.2300    8.0480 c3        1 614      0.165800
     26 C26        -1.0950    0.1960    4.3050 ca        1 614     -0.072000
     27 C27         2.2690    0.1090   -2.2480 c3        1 614     -0.123900
     28 C28         2.1560    2.5780   -1.8520 c3        1 614     -0.123900
     29 C29         2.6730    2.6790    9.7150 c3        1 614      0.147100
     30 C30         3.3250    0.3970   -3.3070 c3        1 614      0.122400
     31 C31         3.2180    2.7300   -2.9340 c3        1 614      0.122400
     32 C32        -4.2840   -3.2550   -2.2310 c3        1 614     -0.138400
     33 HN8        -2.8710    0.6520    0.9140 hn        1 614      0.473800
     34 H10        -4.2450   -1.4640    0.1410 ha        1 614      0.189000
     35 H15        -2.5900    0.3200    2.7840 ha        1 614      0.123000
     36 H16         3.3380    1.1750   -0.6790 h1        1 614      0.117700
     37 H17         2.2950    0.4700    3.8860 ha        1 614      0.198000
     38 H20         1.0380   -1.0770    6.1360 h1        1 614      0.056200
     39 H20A       -0.2320    0.0830    6.7350 h1        1 614      0.056200
     40 H22         1.9440   -0.0370    8.4390 h1        1 614      0.036450
     41 H22A        3.0620   -0.6420    7.1310 h1        1 614      0.036450
     42 H23         0.8480    2.6620    5.9050 h1        1 614      0.036450
     43 H23A        0.4670    2.1810    7.6200 h1        1 614      0.036450
     44 H24         3.1000    3.3720    6.4790 h1        1 614      0.064200
     45 H24A        1.9490    4.0900    7.7000 h1        1 614      0.064200
     46 H25         4.1760    0.7510    8.9390 h1        1 614      0.064200
     47 H25A        4.4570    1.3370    7.2340 h1        1 614      0.064200
     48 H26        -1.8510    0.0330    5.0910 ha        1 614      0.159000
     49 H27         1.2610    0.0820   -2.7350 hc        1 614      0.061950
     50 H27A        2.4680   -0.8940   -1.7910 hc        1 614      0.061950
     51 H28         1.1420    2.6670   -2.3200 hc        1 614      0.061950
     52 H28A        2.2730    3.4020   -1.1030 hc        1 614      0.061950
     53 H29         2.4580    3.7590    9.9280 h1        1 614      0.036033
     54 H29A        1.7220    2.0930    9.8410 h1        1 614      0.036033
     55 H29B        3.4220    2.3110   10.4650 h1        1 614      0.036033
     56 H30         4.3550    0.3210   -2.8670 h1        1 614      0.068200
     57 H30A        3.2260   -0.3150   -4.1700 h1        1 614      0.068200
     58 H31         4.2440    2.7570   -2.4790 h1        1 614      0.068200
     59 H31A        3.0420    3.6620   -3.5350 h1        1 614      0.068200
     60 H32        -3.6380   -4.1550   -2.3940 hc        1 614      0.072700
     61 H32A       -4.9970   -3.4680   -1.3970 hc        1 614      0.072700
     62 H32B       -4.8680   -3.0700   -3.1680 hc        1 614      0.072700
     63 HN9        -1.1940   -0.0040   -2.4860 hn        1 614      0.357700
     64 H82        -2.4730    1.6810   -0.3500 hn        1 614      0.473800
@<TRIPOS>BOND
     1    1    2 1   
     2    1    3 2   
     3    2    4 1   
     4    2   16 1   
     5    3    6 1   
     6    3    8 1   
     7    4    5 1   
     8    4   18 2   
     9    5    6 ar  
    10    5   17 ar  
    11    6   15 ar  
    12    7    8 1   
    13    7    9 1   
    14    7   10 2   
    15    8   33 1   
    16    8   64 1   
    17    9   11 1   
    18    9   63 1   
    19   10   12 1   
    20   10   34 1   
    21   11   12 2   
    22   12   32 1   
    23   13   20 1   
    24   13   22 1   
    25   13   23 1   
    26   14   24 1   
    27   14   25 1   
    28   14   29 1   
    29   15   26 ar  
    30   15   35 1   
    31   16   27 1   
    32   16   28 1   
    33   16   36 1   
    34   17   19 ar  
    35   17   37 1   
    36   19   20 1   
    37   19   26 ar  
    38   20   38 1   
    39   20   39 1   
    40   21   30 1   
    41   21   31 1   
    42   22   25 1   
    43   22   40 1   
    44   22   41 1   
    45   23   24 1   
    46   23   42 1   
    47   23   43 1   
    48   24   44 1   
    49   24   45 1   
    50   25   46 1   
    51   25   47 1   
    52   26   48 1   
    53   27   30 1   
    54   27   49 1   
    55   27   50 1   
    56   28   31 1   
    57   28   51 1   
    58   28   52 1   
    59   29   53 1   
    60   29   54 1   
    61   29   55 1   
    62   30   56 1   
    63   30   57 1   
    64   31   58 1   
    65   31   59 1   
    66   32   60 1   
    67   32   61 1   
    68   32   62 1   
@<TRIPOS>SUBSTRUCTURE
     1 614         1 TEMP              0 ****  ****    0 ROOT
