@<TRIPOS>MOLECULE
614
   63    59     1     0     0
SMALL
bcc


@<TRIPOS>ATOM
      1 N1         -0.7360    0.4610   -2.7630 n1        1 614     -0.069000
      2 N2          0.6840    0.5440   -2.7560 n2        1 614     -0.227000
      3 C3         -1.4690    0.4640   -1.5150 c1        1 614      0.006000
      4 C4          1.4020    0.6300   -1.4970 c2        1 614      0.324000
      5 C5          0.6340    0.6290   -0.1800 c2        1 614     -0.117000
      6 C6         -0.7140    0.5470   -0.1850 c2        1 614     -0.025000
      7 C7         -3.6370   -0.2550   -2.4760 c1        1 614     -0.038500
      8 N8         -2.8920    0.5270   -1.5280 n1        1 614     -0.181000
      9 N9         -3.2780   -1.4610   -2.9660 n2        1 614     -0.112500
     10 C10        -4.8910    0.0350   -2.9470 c1        1 614     -0.268000
     11 N11        -4.3120   -1.9300   -3.7490 n2        1 614     -0.112500
     12 C12        -5.2990   -1.0090   -3.7340 c1        1 614     -0.038500
     13 N13         1.4830   -0.0730    4.4050 n3        1 614     -0.253000
     14 N14         2.2380   -1.2480    6.8980 n3        1 614     -0.245000
     15 C15        -1.4200    0.5410    1.0300 c1        1 614     -0.123000
     16 C16         1.4480    0.4830   -4.0560 c3        1 614      0.047000
     17 C17         1.3350    0.7080    1.0460 c1        1 614     -0.048000
     18 O18         2.5990    0.8350   -1.4960 o         1 614     -0.343000
     19 C19         0.6390    0.7010    2.2410 c1        1 614     -0.079000
     20 C20         1.2040    1.1200    3.5990 c3        1 614     -0.030000
     21 O21         1.3690    0.2410   -6.9450 os        1 614     -0.268000
     22 C22         2.8350   -0.0450    4.8380 c3        1 614     -0.103000
     23 C23         0.5540   -0.1420    5.5000 c3        1 614     -0.103000
     24 C24         0.8810   -1.2770    6.4680 c3        1 614     -0.074000
     25 C25         3.1600   -1.1790    5.8090 c3        1 614     -0.074000
     26 C26        -0.7300    0.6190    2.2370 c1        1 614     -0.101000
     27 C27         1.1800   -0.8210   -4.7100 c3        1 614     -0.201500
     28 C28         1.0480    1.6210   -4.8990 c3        1 614     -0.201500
     29 C29         2.4430   -0.1250    7.7770 c3        1 614     -0.128000
     30 C30         1.7640   -0.8960   -6.1130 c3        1 614     -0.024500
     31 C31         1.6330    1.5360   -6.3050 c3        1 614     -0.024500
     32 C32        -6.5880   -1.3340   -4.5000 c2        1 614     -0.144000
     33 HN8        -3.3370    1.0370   -0.8980 hn        1 614      0.216000
     34 H10        -5.4060    0.8480   -2.7540 DU        1 614      0.222000
     35 H15        -2.3880    0.4830    1.0280 ha        1 614      0.145000
     36 H16         2.4010    0.5500   -3.8660 h1        1 614      0.136000
     37 H17         2.3050    0.8490    1.0470 ha        1 614      0.181000
     38 H20         2.0410    1.6290    3.4640 h1        1 614      0.082500
     39 H20A        0.5490    1.6840    4.0660 h1        1 614      0.082500
     40 H22         3.0070    0.8110    5.2810 h1        1 614      0.075000
     41 H22A        3.4200   -0.1200    4.0560 h1        1 614      0.075000
     42 H23         0.5750    0.7100    5.9880 h1        1 614      0.075000
     43 H23A       -0.3450   -0.2800    5.1430 h1        1 614      0.075000
     44 H24         0.2930   -1.2040    7.2590 h1        1 614      0.100000
     45 H24A        0.7070   -2.1360    6.0220 h1        1 614      0.100000
     46 H25         3.1370   -2.0360    5.3160 h1        1 614      0.100000
     47 H25A        4.0570   -1.0430    6.1640 h1        1 614      0.100000
     48 H26        -1.2240    0.6140    3.0880 ha        1 614      0.140000
     49 H27         0.2070   -0.9570   -4.7630 hc        1 614      0.102750
     50 H27A        1.5700   -1.5320   -4.1670 hc        1 614      0.102750
     51 H28         0.0560    1.6430   -4.9630 hc        1 614      0.102750
     52 H28A        1.3560    2.4440   -4.4810 hc        1 614      0.102750
     53 H29         1.9190   -0.2550    8.6040 h1        1 614      0.070667
     54 H29A        2.1520    0.6910    7.3340 h1        1 614      0.070667
     55 H29B        3.4020   -0.0540    8.0030 h1        1 614      0.070667
     56 H30         1.4560   -1.7310   -6.5450 h1        1 614      0.091250
     57 H30A        2.7480   -0.9150   -6.0470 h1        1 614      0.091250
     58 H31         1.2360    2.2530   -6.8600 h1        1 614      0.091250
     59 H31A        2.6140    1.6760   -6.2560 h1        1 614      0.091250
     60 H32        -7.2600   -0.6340   -4.3260 ha        1 614      0.088333
     61 H32A       -6.9360   -2.2040   -4.2020 ha        1 614      0.088333
     62 H32B       -6.3950   -1.3710   -5.4630 ha        1 614      0.088333
     63 HN9        -2.4800   -1.8960   -2.8040 DU        1 614      0.222000
@<TRIPOS>BOND
     1    1    3 1   
     2    2    4 1   
     3    2   16 1   
     4    3    6 1   
     5    4    5 1   
     6    4   18 1   
     7    5    6 1   
     8    5   17 1   
     9    6   15 1   
    10    7    9 1   
    11    7   10 1   
    12    8   33 1   
    13    9   11 1   
    14   10   12 1   
    15   11   12 1   
    16   13   20 1   
    17   13   22 1   
    18   13   23 1   
    19   14   24 1   
    20   14   25 1   
    21   14   29 1   
    22   15   35 1   
    23   16   27 1   
    24   16   28 1   
    25   16   36 1   
    26   17   37 1   
    27   19   20 1   
    28   19   26 1   
    29   20   38 1   
    30   20   39 1   
    31   21   30 1   
    32   21   31 1   
    33   22   25 1   
    34   22   40 1   
    35   22   41 1   
    36   23   24 1   
    37   23   42 1   
    38   23   43 1   
    39   24   44 1   
    40   24   45 1   
    41   25   46 1   
    42   25   47 1   
    43   26   48 1   
    44   27   30 1   
    45   27   49 1   
    46   27   50 1   
    47   28   31 1   
    48   28   51 1   
    49   28   52 1   
    50   29   53 1   
    51   29   54 1   
    52   29   55 1   
    53   30   56 1   
    54   30   57 1   
    55   31   58 1   
    56   31   59 1   
    57   32   60 1   
    58   32   61 1   
    59   32   62 1   
@<TRIPOS>SUBSTRUCTURE
     1 614         1 TEMP              0 ****  ****    0 ROOT
