@<TRIPOS>MOLECULE
614
   63    67     1     0     0
SMALL
bcc


@<TRIPOS>ATOM
      1 N1         -2.1440   -0.0600   -0.6580 nc        1 614     -0.481300
      2 N2         -1.5630   -1.2500   -0.6220 n         1 614     -0.197800
      3 C3         -1.4980    1.0390   -0.2680 cd        1 614      0.505800
      4 C4         -0.2160   -1.4610   -0.2070 c         1 614      0.692100
      5 C5          0.5290   -0.2570    0.2150 ca        1 614     -0.147600
      6 C6         -0.1020    1.0030    0.1990 ca        1 614     -0.091900
      7 C7         -3.4440    2.3980    0.2440 cc        1 614      0.033300
      8 N8         -2.1400    2.3250   -0.2900 nh        1 614     -0.606600
      9 N9         -4.5670    1.5980   -0.0960 na        1 614     -0.022600
     10 C10        -3.9140    3.3300    1.1960 cd        1 614     -0.255300
     11 N11        -5.6460    1.9350    0.5970 nc        1 614     -0.507800
     12 C12        -5.3080    3.0030    1.3850 cd        1 614      0.298600
     13 N13         4.8490   -0.1410    0.6970 n3        1 614     -0.727600
     14 N14         7.3090   -0.6540   -0.8460 n3        1 614     -0.719600
     15 C15         0.6130    2.1320    0.6210 ca        1 614     -0.106000
     16 C16        -2.3750   -2.4160   -1.0370 c3        1 614      0.119700
     17 C17         1.8580   -0.3820    0.6400 ca        1 614     -0.050000
     18 O18         0.2670   -2.6060   -0.2130 o         1 614     -0.613500
     19 C19         2.5630    0.7480    1.0530 ca        1 614     -0.088300
     20 C20         3.9690    0.6300    1.5650 c3        1 614      0.214100
     21 O21        -4.6920   -3.8000   -2.0430 os        1 614     -0.412600
     22 C22         6.0900   -0.5040    1.3690 c3        1 614      0.134300
     23 C23         5.0700    0.4980   -0.5920 c3        1 614      0.134300
     24 C24         6.0560   -0.2860   -1.4850 c3        1 614      0.162300
     25 C25         7.0630   -1.2700    0.4480 c3        1 614      0.162300
     26 C26         1.9320    2.0010    1.0410 ca        1 614     -0.105000
     27 C27        -3.6470   -2.5960   -0.1970 c3        1 614     -0.122400
     28 C28        -2.7730   -2.3690   -2.5180 c3        1 614     -0.122400
     29 C29         8.2750    0.4200   -0.8020 c3        1 614      0.148100
     30 C30        -4.3750   -3.8480   -0.6570 c3        1 614      0.125400
     31 C31        -3.5450   -3.6320   -2.8670 c3        1 614      0.125400
     32 C32        -6.2330    3.7110    2.2870 c3        1 614     -0.119400
     33 HN8        -2.1130    2.7080   -1.2230 hn        1 614      0.399800
     34 H10        -3.3530    4.1200    1.6800 ha        1 614      0.170000
     35 H15         0.1360    3.1240    0.6290 ha        1 614      0.159000
     36 H16        -1.7130   -3.3220   -0.8760 h1        1 614      0.098700
     37 H17         2.3330   -1.3780    0.6410 ha        1 614      0.177000
     38 H20         3.9240    0.1010    2.5620 h1        1 614      0.042700
     39 H20A        4.3800    1.6680    1.7530 h1        1 614      0.042700
     40 H22         6.6200    0.4040    1.7830 h1        1 614      0.035700
     41 H22A        5.8270   -1.1730    2.2350 h1        1 614      0.035700
     42 H23         4.0770    0.5490   -1.1190 h1        1 614      0.035700
     43 H23A        5.4520    1.5550   -0.4720 h1        1 614      0.035700
     44 H24         6.2670    0.3360   -2.3980 h1        1 614      0.060200
     45 H24A        5.5650   -1.2440   -1.8160 h1        1 614      0.060200
     46 H25         6.6400   -2.2940    0.2450 h1        1 614      0.060200
     47 H25A        8.0360   -1.3930    0.9980 h1        1 614      0.060200
     48 H26         2.4860    2.8940    1.3700 ha        1 614      0.139000
     49 H27        -3.3890   -2.6950    0.8880 hc        1 614      0.062700
     50 H27A       -4.3220   -1.7100   -0.3160 hc        1 614      0.062700
     51 H28        -3.4160   -1.4740   -2.7200 hc        1 614      0.062700
     52 H28A       -1.8640   -2.3010   -3.1670 hc        1 614      0.062700
     53 H29         9.2350    0.0260   -0.3760 h1        1 614      0.031367
     54 H29A        8.4680    0.7760   -1.8480 h1        1 614      0.031367
     55 H29B        7.9450    1.2990   -0.1820 h1        1 614      0.031367
     56 H30        -5.3740   -3.9370   -0.1520 h1        1 614      0.053200
     57 H30A       -3.7590   -4.7630   -0.4450 h1        1 614      0.053200
     58 H31        -2.8830   -4.5350   -2.7760 h1        1 614      0.053200
     59 H31A       -3.9620   -3.5710   -3.9070 h1        1 614      0.053200
     60 H32        -6.7210    2.9980    2.9990 hc        1 614      0.048700
     61 H32A       -5.6710    4.4770    2.8760 hc        1 614      0.048700
     62 H32B       -7.0360    4.2260    1.7020 hc        1 614      0.048700
     63 HN9        -4.5690    0.7610   -0.6360 hn        1 614      0.327700
@<TRIPOS>BOND
     1    1    2 1   
     2    1    3 2   
     3    2    4 1   
     4    2   16 1   
     5    3    6 1   
     6    3    8 1   
     7    4    5 1   
     8    4   18 2   
     9    5    6 ar  
    10    5   17 ar  
    11    6   15 ar  
    12    7    8 1   
    13    7    9 1   
    14    7   10 2   
    15    8   33 1   
    16    9   11 1   
    17    9   63 1   
    18   10   12 1   
    19   10   34 1   
    20   11   12 2   
    21   12   32 1   
    22   13   20 1   
    23   13   22 1   
    24   13   23 1   
    25   14   24 1   
    26   14   25 1   
    27   14   29 1   
    28   15   26 ar  
    29   15   35 1   
    30   16   27 1   
    31   16   28 1   
    32   16   36 1   
    33   17   19 ar  
    34   17   37 1   
    35   19   20 1   
    36   19   26 ar  
    37   20   38 1   
    38   20   39 1   
    39   21   30 1   
    40   21   31 1   
    41   22   25 1   
    42   22   40 1   
    43   22   41 1   
    44   23   24 1   
    45   23   42 1   
    46   23   43 1   
    47   24   44 1   
    48   24   45 1   
    49   25   46 1   
    50   25   47 1   
    51   26   48 1   
    52   27   30 1   
    53   27   49 1   
    54   27   50 1   
    55   28   31 1   
    56   28   51 1   
    57   28   52 1   
    58   29   53 1   
    59   29   54 1   
    60   29   55 1   
    61   30   56 1   
    62   30   57 1   
    63   31   58 1   
    64   31   59 1   
    65   32   60 1   
    66   32   61 1   
    67   32   62 1   
@<TRIPOS>SUBSTRUCTURE
     1 614         1 TEMP              0 ****  ****    0 ROOT
