@<TRIPOS>MOLECULE
614
   63    67     1     0     0
SMALL
bcc


@<TRIPOS>ATOM
      1 N1          0.2640   -0.6940   -0.1520 nc        1 614     -0.481300
      2 N2          1.5440   -0.4490    0.0900 n         1 614     -0.197800
      3 C3         -0.6340   -0.7220    0.8320 cd        1 614      0.505800
      4 C4          2.0750   -0.2330    1.3950 c         1 614      0.691100
      5 C5          1.1020   -0.2680    2.5050 ca        1 614     -0.147600
      6 C6         -0.2620   -0.5070    2.2400 ca        1 614     -0.091900
      7 C7         -2.6030   -0.2660   -0.5150 cc        1 614      0.033300
      8 N8         -2.0250   -0.9700    0.5630 nh        1 614     -0.606600
      9 N9         -2.1390   -0.1940   -1.8550 na        1 614     -0.022600
     10 C10        -3.8070    0.4740   -0.4880 cd        1 614     -0.256300
     11 N11        -2.9260    0.5560   -2.6140 nc        1 614     -0.507800
     12 C12        -3.9720    0.9700   -1.8340 cd        1 614      0.298600
     13 N13         1.9860    1.2220    6.4910 n3        1 614     -0.727600
     14 N14         2.9360    3.6820    7.8080 n3        1 614     -0.719600
     15 C15        -1.1730   -0.5240    3.3050 ca        1 614     -0.106000
     16 C16         2.4580   -0.3980   -1.0730 c3        1 614      0.119700
     17 C17         1.5450   -0.0560    3.8170 ca        1 614     -0.051000
     18 O18         3.2920   -0.0320    1.5470 o         1 614     -0.613500
     19 C19         0.6310   -0.0780    4.8700 ca        1 614     -0.088300
     20 C20         1.0890    0.0910    6.2900 c3        1 614      0.214100
     21 O21         3.2260   -0.5930   -3.8430 os        1 614     -0.412600
     22 C22         2.6400    1.1660    7.7920 c3        1 614      0.133800
     23 C23         1.3440    2.5030    6.2340 c3        1 614      0.133800
     24 C24         2.2750    3.7020    6.5130 c3        1 614      0.162300
     25 C25         3.5500    2.3860    8.0510 c3        1 614      0.162300
     26 C26        -0.7270   -0.3100    4.6040 ca        1 614     -0.106000
     27 C27         2.5880   -1.7490   -1.7900 c3        1 614     -0.122400
     28 C28         2.0620    0.6650   -2.1060 c3        1 614     -0.122400
     29 C29         2.0980    4.1390    8.8940 c3        1 614      0.148100
     30 C30         3.5920   -1.6160   -2.9240 c3        1 614      0.125400
     31 C31         3.0910    0.6810   -3.2240 c3        1 614      0.125400
     32 C32        -5.0990    1.7960   -2.3040 c3        1 614     -0.119400
     33 HN8        -2.1860   -1.9610    0.4700 hn        1 614      0.399800
     34 H10        -4.4640    0.6350    0.3580 ha        1 614      0.170000
     35 H15        -2.2440   -0.6960    3.1190 ha        1 614      0.159000
     36 H16         3.4730   -0.1210   -0.6510 h1        1 614      0.098700
     37 H17         2.6180    0.1320    4.0010 ha        1 614      0.178000
     38 H20         0.1810    0.1590    6.9620 h1        1 614      0.042700
     39 H20A        1.6520   -0.8450    6.5790 h1        1 614      0.042700
     40 H22         3.2810    0.2410    7.8150 h1        1 614      0.035950
     41 H22A        1.8890    1.0870    8.6320 h1        1 614      0.035950
     42 H23         0.4020    2.6260    6.8460 h1        1 614      0.035950
     43 H23A        1.0540    2.5230    5.1470 h1        1 614      0.035950
     44 H24         3.0870    3.7220    5.7330 h1        1 614      0.060200
     45 H24A        1.6670    4.6430    6.4140 h1        1 614      0.060200
     46 H25         3.9060    2.3320    9.1160 h1        1 614      0.060200
     47 H25A        4.4470    2.3210    7.3730 h1        1 614      0.060200
     48 H26        -1.4510   -0.3220    5.4340 ha        1 614      0.139000
     49 H27         1.5970   -2.0640   -2.2060 hc        1 614      0.062450
     50 H27A        2.9370   -2.5390   -1.0780 hc        1 614      0.062450
     51 H28         1.0520    0.4350   -2.5350 hc        1 614      0.062450
     52 H28A        2.0160    1.6770   -1.6300 hc        1 614      0.062450
     53 H29         2.7100    4.1750    9.8330 h1        1 614      0.031367
     54 H29A        1.2020    3.4850    9.0780 h1        1 614      0.031367
     55 H29B        1.7390    5.1760    8.6620 h1        1 614      0.031367
     56 H30         4.6180   -1.4070   -2.5190 h1        1 614      0.053200
     57 H30A        3.6130   -2.5480   -3.5490 h1        1 614      0.053200
     58 H31         4.0900    1.0170   -2.8360 h1        1 614      0.053200
     59 H31A        2.7620    1.3550   -4.0590 h1        1 614      0.053200
     60 H32        -5.7540    2.0650   -1.4390 hc        1 614      0.048700
     61 H32A       -4.7310    2.7380   -2.7820 hc        1 614      0.048700
     62 H32B       -5.7100    1.2370   -3.0560 hc        1 614      0.048700
     63 HN9        -1.2540   -0.4880   -2.2020 hn        1 614      0.327700
@<TRIPOS>BOND
     1    1    2 1   
     2    1    3 2   
     3    2    4 1   
     4    2   16 1   
     5    3    6 1   
     6    3    8 1   
     7    4    5 1   
     8    4   18 2   
     9    5    6 ar  
    10    5   17 ar  
    11    6   15 ar  
    12    7    8 1   
    13    7    9 1   
    14    7   10 2   
    15    8   33 1   
    16    9   11 1   
    17    9   63 1   
    18   10   12 1   
    19   10   34 1   
    20   11   12 2   
    21   12   32 1   
    22   13   20 1   
    23   13   22 1   
    24   13   23 1   
    25   14   24 1   
    26   14   25 1   
    27   14   29 1   
    28   15   26 ar  
    29   15   35 1   
    30   16   27 1   
    31   16   28 1   
    32   16   36 1   
    33   17   19 ar  
    34   17   37 1   
    35   19   20 1   
    36   19   26 ar  
    37   20   38 1   
    38   20   39 1   
    39   21   30 1   
    40   21   31 1   
    41   22   25 1   
    42   22   40 1   
    43   22   41 1   
    44   23   24 1   
    45   23   42 1   
    46   23   43 1   
    47   24   44 1   
    48   24   45 1   
    49   25   46 1   
    50   25   47 1   
    51   26   48 1   
    52   27   30 1   
    53   27   49 1   
    54   27   50 1   
    55   28   31 1   
    56   28   51 1   
    57   28   52 1   
    58   29   53 1   
    59   29   54 1   
    60   29   55 1   
    61   30   56 1   
    62   30   57 1   
    63   31   58 1   
    64   31   59 1   
    65   32   60 1   
    66   32   61 1   
    67   32   62 1   
@<TRIPOS>SUBSTRUCTURE
     1 614         1 TEMP              0 ****  ****    0 ROOT
