@<TRIPOS>MOLECULE
615
   60    64     1     0     0
SMALL
bcc


@<TRIPOS>ATOM
      1 C7         -0.3800    0.2280   -0.1830 ca        1 615      0.130100
      2 C27         7.4320    2.8560   -1.7400 ca        1 615     -0.136500
      3 C17         4.1130   -4.4140    1.1160 ca        1 615     -0.121000
      4 C1         -5.0740    0.8110    2.0900 c         1 615      0.688100
      5 C8         -0.9210    1.4770   -0.5470 ca        1 615     -0.175000
      6 N2         -8.4990   -0.8020   -1.1820 n         1 615     -0.350400
      7 O2         -7.4080    1.2290   -1.4380 o         1 615     -0.553100
      8 O1         -5.5450    0.3000    3.1300 o         1 615     -0.627100
      9 C3         -7.5470    0.1870   -0.7790 c         1 615      0.619100
     10 C28         6.8640    1.6280   -1.4000 ca        1 615     -0.101000
     11 C26         6.8980    4.0410   -1.2340 ca        1 615     -0.118000
     12 N1          5.8950   -0.7520    0.0880 nb        1 615     -0.652000
     13 C2         -4.6270    0.7230   -0.4500 c3        1 615     -0.013100
     14 O3          1.0000    0.1940   -0.1410 os        1 615     -0.328900
     15 C4         -3.1540    0.5510   -0.3250 ca        1 615     -0.124300
     16 C5         -2.6000   -0.6830    0.0290 ca        1 615     -0.095500
     17 C6         -1.2190   -0.8540    0.1050 ca        1 615     -0.175000
     18 C9         -2.3000    1.6260   -0.6130 ca        1 615     -0.095500
     19 C10         1.5770   -1.0780    0.1890 c3        1 615      0.168700
     20 C11         3.0640   -0.9430    0.1520 ca        1 615     -0.049300
     21 C12         5.1240    0.2950   -0.1960 cp        1 615      0.480800
     22 C13         3.6870    0.2360   -0.1770 ca        1 615     -0.210300
     23 C14         5.2810   -1.9420    0.4220 ca        1 615      0.399600
     24 C15         3.8600   -2.0890    0.4690 ca        1 615     -0.140300
     25 C16         3.3030   -3.3450    0.8220 ca        1 615     -0.121000
     26 C18         5.5200   -4.2770    1.0720 ca        1 615     -0.126000
     27 C19         6.0970   -3.0790    0.7360 ca        1 615     -0.160300
     28 C20         5.7480    1.5840   -0.5540 cp        1 615     -0.152500
     29 C21        -6.8950   -0.0470    0.5440 cx        1 615     -0.189700
     30 C22        -5.4140    0.2420    0.7340 cx        1 615     -0.158000
     31 C23        -5.9330   -1.1800    0.7370 cx        1 615     -0.099400
     32 O4         -8.7840   -0.8030   -2.4860 oh        1 615     -0.437100
     33 N3         -4.2840    1.9260    2.1780 n         1 615     -0.652000
     34 C24         5.2170    2.7770   -0.0430 ca        1 615     -0.101000
     35 C25         5.7930    3.9990   -0.3840 ca        1 615     -0.136500
     36 H27         8.3060    2.8860   -2.4060 ha        1 615      0.133500
     37 H17         3.6780   -5.3870    1.3900 ha        1 615      0.135000
     38 H8         -0.2450    2.3130   -0.7760 ha        1 615      0.145500
     39 HN2        -8.2180   -1.7420   -0.9250 hn        1 615      0.300500
     40 H28         7.2940    0.6950   -1.7950 ha        1 615      0.142000
     41 H26         7.3490    5.0070   -1.5030 ha        1 615      0.132000
     42 H2         -4.8860    1.8030   -0.6370 hc        1 615      0.070700
     43 H2A        -4.9710    0.1610   -1.3650 hc        1 615      0.070700
     44 H5         -3.2660   -1.5300    0.2560 ha        1 615      0.137500
     45 H6         -0.8110   -1.8330    0.3900 ha        1 615      0.145500
     46 H9         -2.7250    2.5990   -0.9070 ha        1 615      0.137500
     47 H10         1.2400   -1.3780    1.2190 h1        1 615      0.057200
     48 H10A        1.2400   -1.8440   -0.5620 h1        1 615      0.057200
     49 H13         3.1090    1.1350   -0.4370 ha        1 615      0.165000
     50 H16         2.2090   -3.4550    0.8570 ha        1 615      0.129000
     51 H18         6.1480   -5.1480    1.3130 ha        1 615      0.137000
     52 H19         7.1930   -2.9710    0.7020 ha        1 615      0.152000
     53 H21        -7.5760    0.2130    1.3860 hc        1 615      0.135700
     54 H23        -5.9560   -1.7250    1.7010 hc        1 615      0.092700
     55 H23A       -5.6800   -1.8320   -0.1180 hc        1 615      0.092700
     56 HO4        -9.3610   -0.0270   -2.6330 ho        1 615      0.436000
     57 HN3        -4.0280    2.2590    3.0750 hn        1 615      0.316000
     58 HN3A       -3.7960    2.2690    1.3890 hn        1 615      0.316000
     59 H24         4.3510    2.7470    0.6340 ha        1 615      0.142000
     60 H25         5.3740    4.9320    0.0210 ha        1 615      0.133500
@<TRIPOS>BOND
     1    1    5 ar  
     2    1   14 1   
     3    1   17 ar  
     4    2   10 ar  
     5    2   11 ar  
     6    2   36 1   
     7    3   25 ar  
     8    3   26 ar  
     9    3   37 1   
    10    4    8 2   
    11    4   30 1   
    12    4   33 1   
    13    5   18 ar  
    14    5   38 1   
    15    6    9 1   
    16    6   32 1   
    17    6   39 1   
    18    7    9 2   
    19    9   29 1   
    20   10   28 ar  
    21   10   40 1   
    22   11   35 ar  
    23   11   41 1   
    24   12   21 ar  
    25   12   23 ar  
    26   13   15 1   
    27   13   30 1   
    28   13   42 1   
    29   13   43 1   
    30   14   19 1   
    31   15   16 ar  
    32   15   18 ar  
    33   16   17 ar  
    34   16   44 1   
    35   17   45 1   
    36   18   46 1   
    37   19   20 1   
    38   19   47 1   
    39   19   48 1   
    40   20   22 ar  
    41   20   24 ar  
    42   21   22 ar  
    43   21   28 1   
    44   22   49 1   
    45   23   24 ar  
    46   23   27 ar  
    47   24   25 ar  
    48   25   50 1   
    49   26   27 ar  
    50   26   51 1   
    51   27   52 1   
    52   28   34 ar  
    53   29   30 1   
    54   29   31 1   
    55   29   53 1   
    56   30   31 1   
    57   31   54 1   
    58   31   55 1   
    59   32   56 1   
    60   33   57 1   
    61   33   58 1   
    62   34   35 ar  
    63   34   59 1   
    64   35   60 1   
@<TRIPOS>SUBSTRUCTURE
     1 615         1 TEMP              0 ****  ****    0 ROOT
