@<TRIPOS>MOLECULE
616
   60    61     1     0     0
SMALL
bcc


@<TRIPOS>ATOM
      1 O5          2.9980   -1.4840   -0.2580 o         1 616     -0.522100
      2 C30         2.3260   -1.2000   -1.2490 c         1 616      0.574900
      3 C7          1.8870    0.2040   -1.5740 c3        1 616     -0.192700
      4 C27         2.2890    0.5780   -3.0020 c3        1 616     -0.066700
      5 C17         2.1710    2.0720   -3.2260 c3        1 616     -0.093600
      6 C1          3.7160    0.1390   -3.2760 c3        1 616     -0.093600
      7 C8          0.3700    0.3730   -1.3370 c3        1 616      0.106700
      8 C29        -0.4910   -0.6570   -2.1610 c3        1 616      0.223500
      9 N2         -1.4790   -0.0220   -2.9880 n3        1 616     -0.919100
     10 S1         -1.5740   -0.1940   -4.5930 s6        1 616      1.467900
     11 O2         -2.1460    0.9670   -5.1500 o         1 616     -0.652300
     12 O1         -0.3360   -0.6270   -5.1140 o         1 616     -0.652300
     13 C3         -2.6920   -1.4640   -4.7870 c3        1 616     -0.365300
     14 C28        -1.0860   -1.6170   -1.1000 c3        1 616     -0.113400
     15 C26        -0.8400   -0.9670    0.2670 c3        1 616      0.095000
     16 N1         -0.0070    0.1940    0.0580 n         1 616     -0.483800
     17 C2          0.1720    1.2010    0.9970 c         1 616      0.670300
     18 O3          0.7400    2.2610    0.6580 o         1 616     -0.614100
     19 C4         -0.2980    0.9630    2.3860 ce        1 616     -0.228200
     20 C5         -0.3630    1.9800    3.2530 c2        1 616     -0.088200
     21 C6         -0.8310    1.9010    4.6700 c3        1 616      0.191000
     22 N49        -0.8740    0.5640    5.2470 n3        1 616     -0.734600
     23 C50        -1.7510    0.5050    6.4100 c3        1 616      0.167300
     24 C45        -1.8170   -0.8850    7.0410 c3        1 616     -0.076400
     25 C46        -0.4340   -1.4130    7.3540 c3        1 616     -0.079400
     26 C47         0.4400   -1.3650    6.1200 c3        1 616     -0.076400
     27 C48         0.4590    0.0360    5.5150 c3        1 616      0.167300
     28 H30C        2.0020   -1.9850   -1.9710 h4        1 616     -0.013800
     29 HC7         2.4100    0.9160   -0.8670 hc        1 616      0.105700
     30 H27C        1.6090    0.0500   -3.7320 hc        1 616      0.067700
     31 H171        2.5510    2.3340   -4.2440 hc        1 616      0.039867
     32 H172        1.1090    2.4080   -3.1560 hc        1 616      0.039867
     33 H173        2.7690    2.6340   -2.4680 hc        1 616      0.039867
     34 HC11        4.4170    0.6030   -2.5410 hc        1 616      0.039867
     35 HC12        3.8120   -0.9710   -3.2090 hc        1 616      0.039867
     36 HC13        4.0190    0.4540   -4.3040 hc        1 616      0.039867
     37 HC8         0.1240    1.4380   -1.6330 h1        1 616      0.087700
     38 H29C        0.1950   -1.2410   -2.8440 h1        1 616      0.086700
     39 HN2        -2.0770    0.5960   -2.4930 hn        1 616      0.453800
     40 HC31       -2.7990   -1.7200   -5.8720 h1        1 616      0.114367
     41 HC32       -2.3940   -2.4090   -4.2740 h1        1 616      0.114367
     42 HC33       -3.7180   -1.2090   -4.4270 h1        1 616      0.114367
     43 H281       -2.1760   -1.8040   -1.2520 hc        1 616      0.060700
     44 H282       -0.5560   -2.6000   -1.1600 hc        1 616      0.060700
     45 H261       -1.8160   -0.6700    0.7450 h1        1 616      0.050200
     46 H262       -0.3230   -1.6880    0.9600 h1        1 616      0.050200
     47 HC4        -0.5640   -0.0680    2.6640 ha        1 616      0.153000
     48 HC5        -0.0800    3.0020    2.9370 ha        1 616      0.147000
     49 HC61       -0.1780    2.5940    5.2840 h1        1 616      0.048200
     50 HC62       -1.8780    2.3290    4.6890 h1        1 616      0.048200
     51 H501       -1.4310    1.2420    7.2050 h1        1 616      0.032700
     52 H502       -2.7850    0.7960    6.0720 h1        1 616      0.032700
     53 H451       -2.4260   -0.8160    7.9790 hc        1 616      0.047450
     54 H452       -2.3400   -1.5910    6.3440 hc        1 616      0.047450
     55 H461        0.0290   -0.7950    8.1680 hc        1 616      0.041200
     56 H462       -0.5050   -2.4660    7.7300 hc        1 616      0.041200
     57 H471        1.4920   -1.6510    6.3800 hc        1 616      0.047450
     58 H472        0.0640   -2.1000    5.3620 hc        1 616      0.047450
     59 H481        1.0100    0.0070    4.5320 h1        1 616      0.032700
     60 H482        1.0360    0.7160    6.2100 h1        1 616      0.032700
@<TRIPOS>BOND
     1    1    2 2   
     2    2    3 1   
     3    2   28 1   
     4    3    4 1   
     5    3    7 1   
     6    3   29 1   
     7    4    5 1   
     8    4    6 1   
     9    4   30 1   
    10    5   31 1   
    11    5   32 1   
    12    5   33 1   
    13    6   34 1   
    14    6   35 1   
    15    6   36 1   
    16    7    8 1   
    17    7   16 1   
    18    7   37 1   
    19    8    9 1   
    20    8   14 1   
    21    8   38 1   
    22    9   10 1   
    23    9   39 1   
    24   10   11 2   
    25   10   12 2   
    26   10   13 1   
    27   13   40 1   
    28   13   41 1   
    29   13   42 1   
    30   14   15 1   
    31   14   43 1   
    32   14   44 1   
    33   15   16 1   
    34   15   45 1   
    35   15   46 1   
    36   16   17 1   
    37   17   18 2   
    38   17   19 1   
    39   19   20 2   
    40   19   47 1   
    41   20   21 1   
    42   20   48 1   
    43   21   22 1   
    44   21   49 1   
    45   21   50 1   
    46   22   23 1   
    47   22   27 1   
    48   23   24 1   
    49   23   51 1   
    50   23   52 1   
    51   24   25 1   
    52   24   53 1   
    53   24   54 1   
    54   25   26 1   
    55   25   55 1   
    56   25   56 1   
    57   26   27 1   
    58   26   57 1   
    59   26   58 1   
    60   27   59 1   
    61   27   60 1   
@<TRIPOS>SUBSTRUCTURE
     1 616         1 TEMP              0 ****  ****    0 ROOT
