@<TRIPOS>MOLECULE
616
   61    62     1     0     0
SMALL
bcc


@<TRIPOS>ATOM
      1 O5          2.8380   -0.6540   -1.3710 o         1 616     -0.562100
      2 C30         1.9790   -0.8770   -0.5150 c         1 616      0.594900
      3 C7          1.9910   -0.2440    0.8560 c3        1 616     -0.205700
      4 C27         2.9000   -1.0480    1.7910 c3        1 616     -0.061700
      5 C17         2.7950   -0.5610    3.2230 c3        1 616     -0.097600
      6 C1          2.5360   -2.5200    1.7250 c3        1 616     -0.097600
      7 C8          2.3600    1.2540    0.8300 c3        1 616      0.123700
      8 C29         3.7660    1.4950    0.1700 c3        1 616      0.095500
      9 N2          4.7230    2.1820    1.0840 n4        1 616     -0.712900
     10 S1          6.5020    1.5950    0.9030 s6        1 616      1.412900
     11 O2          7.1360    2.4360    1.7920 o         1 616     -0.555800
     12 O1          6.3940    0.2410    1.1320 o         1 616     -0.555800
     13 C3          6.7730    1.9900   -0.6670 c3        1 616     -0.464300
     14 C28         3.4820    2.2770   -1.1280 c3        1 616     -0.115400
     15 C26         2.0090    2.7120   -1.0610 c3        1 616      0.099000
     16 N1          1.4180    2.0750    0.0910 n         1 616     -0.506800
     17 C2          0.1860    2.4350    0.6530 c         1 616      0.685300
     18 O3         -0.0930    1.9590    1.7730 o         1 616     -0.607100
     19 C4         -0.7080    3.3170   -0.1150 ce        1 616     -0.297200
     20 C5         -1.8890    3.7560    0.3510 c2        1 616     -0.013200
     21 C6         -2.4460    3.4160    1.6950 c3        1 616      0.176000
     22 N49        -3.7300    4.0480    1.9570 n3        1 616     -0.738600
     23 C50        -3.5920    5.4540    2.3150 c3        1 616      0.172300
     24 C45        -4.9290    6.1410    2.5820 c3        1 616     -0.077900
     25 C46        -5.7360    5.3780    3.6100 c3        1 616     -0.080400
     26 C47        -5.8910    3.9330    3.1910 c3        1 616     -0.077900
     27 C48        -4.5350    3.2890    2.9070 c3        1 616      0.172300
     28 H30C        1.1370   -1.5790   -0.7020 h4        1 616      0.033200
     29 HC7         0.9380   -0.2980    1.2720 hc        1 616      0.118700
     30 H27C        3.9690   -0.9370    1.4480 hc        1 616      0.043700
     31 H171        3.3080    0.4230    3.3510 hc        1 616      0.047200
     32 H172        1.7260   -0.4460    3.5270 hc        1 616      0.047200
     33 H173        3.2820   -1.2930    3.9130 hc        1 616      0.047200
     34 HC11        2.6940   -2.9220    0.6950 hc        1 616      0.047200
     35 HC12        3.1780   -3.1040    2.4280 hc        1 616      0.047200
     36 HC13        1.4680   -2.6750    2.0120 hc        1 616      0.047200
     37 HC8         2.3420    1.5950    1.9130 h1        1 616      0.080700
     38 H29C        4.2240    0.4870   -0.0760 hx        1 616      0.139700
     39 HN2         4.6480    3.1910    0.9580 hn        1 616      0.456300
     40 HC31        6.0320    1.5860   -1.4140 h1        1 616      0.176033
     41 HC32        7.7620    1.5820   -1.0400 h1        1 616      0.176033
     42 HC33        6.8440    3.0920   -0.8820 h1        1 616      0.176033
     43 H281        3.6270    1.5760   -1.9940 hc        1 616      0.084200
     44 H282        4.1460    3.1630   -1.2760 hc        1 616      0.084200
     45 H261        1.4680    2.3940   -1.9970 h1        1 616      0.067700
     46 H262        1.9310    3.8330   -0.9790 h1        1 616      0.067700
     47 HC4        -0.3850    3.6010   -1.1290 ha        1 616      0.140000
     48 HC5        -2.5110    4.4030   -0.2970 ha        1 616      0.157000
     49 HC61       -2.5670    2.2920    1.7370 h1        1 616      0.070700
     50 HC62       -1.6690    3.6760    2.4790 h1        1 616      0.070700
     51 H501       -2.9360    5.5820    3.2280 h1        1 616      0.029200
     52 H502       -3.0810    5.9700    1.4550 h1        1 616      0.029200
     53 H451       -4.7240    7.1810    2.9450 hc        1 616      0.052200
     54 H452       -5.5120    6.2200    1.6280 hc        1 616      0.052200
     55 H461       -6.7460    5.8500    3.7270 hc        1 616      0.046200
     56 H462       -5.2230    5.4300    4.6070 hc        1 616      0.046200
     57 H471       -6.3930    3.3460    4.0040 hc        1 616      0.052200
     58 H472       -6.5370    3.8730    2.2770 hc        1 616      0.052200
     59 H481       -4.7070    2.2670    2.4650 h1        1 616      0.029200
     60 H482       -3.9900    3.1520    3.8870 h1        1 616      0.029200
     61 H22         4.4270    1.9930    2.0480 hn        1 616      0.456300
@<TRIPOS>BOND
     1    1    2 2   
     2    2    3 1   
     3    2   28 1   
     4    3    4 1   
     5    3    7 1   
     6    3   29 1   
     7    4    5 1   
     8    4    6 1   
     9    4   30 1   
    10    5   31 1   
    11    5   32 1   
    12    5   33 1   
    13    6   34 1   
    14    6   35 1   
    15    6   36 1   
    16    7    8 1   
    17    7   16 1   
    18    7   37 1   
    19    8    9 1   
    20    8   14 1   
    21    8   38 1   
    22    9   10 1   
    23    9   39 1   
    24    9   61 1   
    25   10   11 2   
    26   10   12 2   
    27   10   13 1   
    28   13   40 1   
    29   13   41 1   
    30   13   42 1   
    31   14   15 1   
    32   14   43 1   
    33   14   44 1   
    34   15   16 1   
    35   15   45 1   
    36   15   46 1   
    37   16   17 1   
    38   17   18 2   
    39   17   19 1   
    40   19   20 2   
    41   19   47 1   
    42   20   21 1   
    43   20   48 1   
    44   21   22 1   
    45   21   49 1   
    46   21   50 1   
    47   22   23 1   
    48   22   27 1   
    49   23   24 1   
    50   23   51 1   
    51   23   52 1   
    52   24   25 1   
    53   24   53 1   
    54   24   54 1   
    55   25   26 1   
    56   25   55 1   
    57   25   56 1   
    58   26   27 1   
    59   26   57 1   
    60   26   58 1   
    61   27   59 1   
    62   27   60 1   
@<TRIPOS>SUBSTRUCTURE
     1 616         1 TEMP              0 ****  ****    0 ROOT
