@<TRIPOS>MOLECULE
616
   61    62     1     0     0
SMALL
bcc


@<TRIPOS>ATOM
      1 O5          1.9070   -0.1290   -1.1810 o         1 616     -0.563100
      2 C30         1.3670   -0.4370   -0.1160 c         1 616      0.595900
      3 C7          1.9930   -0.1860    1.2340 c3        1 616     -0.203700
      4 C27         2.9570   -1.3290    1.5760 c3        1 616     -0.062700
      5 C17         3.4640   -1.2220    3.0000 c3        1 616     -0.097600
      6 C1          2.2630   -2.6650    1.3810 c3        1 616     -0.097600
      7 C8          2.6680    1.1960    1.3520 c3        1 616      0.119700
      8 C29         3.7660    1.4000    0.2460 c3        1 616      0.094500
      9 N2          5.1080    1.7140    0.8170 ny        1 616     -0.712900
     10 S1          6.5380    0.9680   -0.1470 s6        1 616      1.411900
     11 O2          7.6100    1.4780    0.5540 o         1 616     -0.556300
     12 O1          6.2360   -0.3760   -0.1390 o         1 616     -0.556300
     13 C3          6.3110    1.6950   -1.6020 c3        1 616     -0.464300
     14 C28         3.2160    2.5070   -0.6770 c3        1 616     -0.116400
     15 C26         2.0110    3.1230    0.0530 c3        1 616      0.096000
     16 N1          1.7630    2.3230    1.2270 n         1 616     -0.500800
     17 C2          0.7950    2.5960    2.1970 c         1 616      0.675300
     18 O3          0.7370    1.8420    3.1890 o         1 616     -0.601100
     19 C4         -0.1050    3.7500    1.9980 ce        1 616     -0.259200
     20 C5         -1.1770    3.9130    2.7860 c2        1 616     -0.045200
     21 C6         -2.1000    5.0850    2.6560 c3        1 616      0.182000
     22 N49        -3.4020    4.7200    2.1080 n3        1 616     -0.742600
     23 C50        -4.1330    5.8980    1.6490 c3        1 616      0.167800
     24 C45        -5.5110    5.5660    1.0810 c3        1 616     -0.076400
     25 C46        -6.3260    4.7520    2.0610 c3        1 616     -0.081400
     26 C47        -5.5570    3.5200    2.4860 c3        1 616     -0.076400
     27 C48        -4.1770    3.8900    3.0250 c3        1 616      0.167800
     28 H30C        0.3740   -0.9400   -0.0880 h4        1 616      0.032200
     29 HC7         1.1640   -0.1970    2.0080 hc        1 616      0.117700
     30 H27C        3.8380   -1.2870    0.8740 hc        1 616      0.043700
     31 H171        2.6220   -1.0310    3.7100 hc        1 616      0.046867
     32 H172        4.2070   -0.3930    3.1010 hc        1 616      0.046867
     33 H173        3.9700   -2.1720    3.2990 hc        1 616      0.046867
     34 HC11        1.3520   -2.7320    2.0230 hc        1 616      0.046867
     35 HC12        1.9630   -2.8040    0.3140 hc        1 616      0.046867
     36 HC13        2.9540   -3.4980    1.6590 hc        1 616      0.046867
     37 HC8         3.1100    1.2340    2.3960 h1        1 616      0.081700
     38 H29C        3.8810    0.4310   -0.3310 hx        1 616      0.139700
     39 HN2         5.2060    2.7250    0.9120 hn        1 616      0.456300
     40 HC31        5.2890    1.5750   -2.0600 h1        1 616      0.175700
     41 HC32        7.0010    1.2740   -2.3960 h1        1 616      0.175700
     42 HC33        6.5240    2.8000   -1.6270 h1        1 616      0.175700
     43 H281        3.9650    3.2950   -0.9320 hc        1 616      0.083200
     44 H282        2.8710    2.0230   -1.6310 hc        1 616      0.083200
     45 H261        2.2320    4.1870    0.3490 h1        1 616      0.070700
     46 H262        1.1080    3.1300   -0.6210 h1        1 616      0.070700
     47 HC4         0.1300    4.4550    1.1870 ha        1 616      0.159000
     48 HC5        -1.4110    3.1870    3.5870 ha        1 616      0.150000
     49 HC61       -1.6400    5.8540    1.9690 h1        1 616      0.061700
     50 HC62       -2.1860    5.5590    3.6810 h1        1 616      0.061700
     51 H501       -4.2610    6.6510    2.4820 h1        1 616      0.033700
     52 H502       -3.5180    6.3840    0.8400 h1        1 616      0.033700
     53 H451       -6.0350    6.5300    0.8490 hc        1 616      0.048700
     54 H452       -5.3980    4.9980    0.1210 hc        1 616      0.048700
     55 H461       -6.5680    5.3750    2.9620 hc        1 616      0.048700
     56 H462       -7.2970    4.4500    1.5900 hc        1 616      0.048700
     57 H471       -6.1130    2.9750    3.2910 hc        1 616      0.048700
     58 H472       -5.4480    2.8240    1.6130 hc        1 616      0.048700
     59 H481       -4.3080    4.3980    4.0260 h1        1 616      0.033700
     60 H482       -3.5920    2.9430    3.1970 h1        1 616      0.033700
     61 H22         5.1390    1.3350    1.7700 hn        1 616      0.456300
@<TRIPOS>BOND
     1    1    2 2   
     2    2    3 1   
     3    2   28 1   
     4    3    4 1   
     5    3    7 1   
     6    3   29 1   
     7    4    5 1   
     8    4    6 1   
     9    4   30 1   
    10    5   31 1   
    11    5   32 1   
    12    5   33 1   
    13    6   34 1   
    14    6   35 1   
    15    6   36 1   
    16    7    8 1   
    17    7   16 1   
    18    7   37 1   
    19    8    9 1   
    20    8   14 1   
    21    8   38 1   
    22    9   10 1   
    23    9   39 1   
    24    9   61 1   
    25   10   11 2   
    26   10   12 2   
    27   10   13 1   
    28   13   40 1   
    29   13   41 1   
    30   13   42 1   
    31   14   15 1   
    32   14   43 1   
    33   14   44 1   
    34   15   16 1   
    35   15   45 1   
    36   15   46 1   
    37   16   17 1   
    38   17   18 2   
    39   17   19 1   
    40   19   20 2   
    41   19   47 1   
    42   20   21 1   
    43   20   48 1   
    44   21   22 1   
    45   21   49 1   
    46   21   50 1   
    47   22   23 1   
    48   22   27 1   
    49   23   24 1   
    50   23   51 1   
    51   23   52 1   
    52   24   25 1   
    53   24   53 1   
    54   24   54 1   
    55   25   26 1   
    56   25   55 1   
    57   25   56 1   
    58   26   27 1   
    59   26   57 1   
    60   26   58 1   
    61   27   59 1   
    62   27   60 1   
@<TRIPOS>SUBSTRUCTURE
     1 616         1 TEMP              0 ****  ****    0 ROOT
