@<TRIPOS>MOLECULE
616
   61    62     1     0     0
SMALL
bcc


@<TRIPOS>ATOM
      1 O5          2.8520   -0.6150   -1.4010 o         1 616     -0.562100
      2 C30         1.9870   -0.8510   -0.5550 c         1 616      0.594900
      3 C7          1.9900   -0.2410    0.8260 c3        1 616     -0.205700
      4 C27         2.8920   -1.0610    1.7540 c3        1 616     -0.061700
      5 C17         2.7780   -0.5970    3.1930 c3        1 616     -0.097600
      6 C1          2.5260   -2.5320    1.6620 c3        1 616     -0.097600
      7 C8          2.3610    1.2570    0.8270 c3        1 616      0.123700
      8 C29         3.7720    1.5070    0.1810 c3        1 616      0.095500
      9 N2          4.7230    2.1780    1.1130 n4        1 616     -0.712900
     10 S1          6.5020    1.5940    0.9340 s6        1 616      1.412900
     11 O2          7.1310    2.4190    1.8420 o         1 616     -0.555800
     12 O1          6.3930    0.2360    1.1380 o         1 616     -0.555800
     13 C3          6.7840    2.0150   -0.6270 c3        1 616     -0.464300
     14 C28         3.4970    2.3100   -1.1070 c3        1 616     -0.115400
     15 C26         2.0240    2.7450   -1.0430 c3        1 616      0.099000
     16 N1          1.4240    2.0910    0.0950 n         1 616     -0.506800
     17 C2          0.1900    2.4440    0.6550 c         1 616      0.685300
     18 O3         -0.0980    1.9500    1.7650 o         1 616     -0.607100
     19 C4         -0.6980    3.3390   -0.1050 ce        1 616     -0.297200
     20 C5         -1.8810    3.7730    0.3610 c2        1 616     -0.013200
     21 C6         -2.4470    3.4140    1.6950 c3        1 616      0.176000
     22 N49        -3.7320    4.0440    1.9600 n3        1 616     -0.738600
     23 C50        -3.5930    5.4440    2.3400 c3        1 616      0.172300
     24 C45        -4.9310    6.1300    2.6090 c3        1 616     -0.077900
     25 C46        -5.7450    5.3530    3.6200 c3        1 616     -0.080400
     26 C47        -5.9000    3.9140    3.1780 c3        1 616     -0.077900
     27 C48        -4.5440    3.2730    2.8920 c3        1 616      0.172300
     28 H30C        1.1450   -1.5500   -0.7590 h4        1 616      0.033200
     29 HC7         0.9350   -0.3000    1.2340 hc        1 616      0.118700
     30 H27C        3.9630   -0.9460    1.4210 hc        1 616      0.043700
     31 H171        1.7080   -0.4850    3.4920 hc        1 616      0.047200
     32 H172        3.2600   -1.3410    3.8740 hc        1 616      0.047200
     33 H173        3.2920    0.3840    3.3400 hc        1 616      0.047200
     34 HC11        3.1630   -3.1280    2.3600 hc        1 616      0.047200
     35 HC12        1.4560   -2.6890    1.9390 hc        1 616      0.047200
     36 HC13        2.6910   -2.9170    0.6260 hc        1 616      0.047200
     37 HC8         2.3350    1.5800    1.9150 h1        1 616      0.080700
     38 H29C        4.2310    0.5020   -0.0780 hx        1 616      0.139700
     39 HN2         4.6490    3.1890    1.0020 hn        1 616      0.456300
     40 HC31        6.0490    1.6230   -1.3860 h1        1 616      0.176033
     41 HC32        7.7770    1.6150   -1.0000 h1        1 616      0.176033
     42 HC33        6.8560    3.1210   -0.8230 h1        1 616      0.176033
     43 H281        4.1630    3.1970   -1.2350 hc        1 616      0.084200
     44 H282        3.6480    1.6230   -1.9820 hc        1 616      0.084200
     45 H261        1.4900    2.4430   -1.9870 h1        1 616      0.067700
     46 H262        1.9460    3.8650   -0.9430 h1        1 616      0.067700
     47 HC4        -0.3680    3.6380   -1.1130 ha        1 616      0.140000
     48 HC5        -2.4980    4.4310   -0.2820 ha        1 616      0.157000
     49 HC61       -2.5710    2.2890    1.7190 h1        1 616      0.070700
     50 HC62       -1.6740    3.6600    2.4880 h1        1 616      0.070700
     51 H501       -2.9430    5.5580    3.2580 h1        1 616      0.029200
     52 H502       -3.0750    5.9730    1.4910 h1        1 616      0.029200
     53 H451       -5.5070    6.2250    1.6520 hc        1 616      0.052200
     54 H452       -4.7260    7.1640    2.9890 hc        1 616      0.052200
     55 H461       -6.7550    5.8250    3.7370 hc        1 616      0.046200
     56 H462       -5.2390    5.3890    4.6200 hc        1 616      0.046200
     57 H471       -6.5400    3.8700    2.2590 hc        1 616      0.052200
     58 H472       -6.4090    3.3170    3.9780 hc        1 616      0.052200
     59 H481       -4.7150    2.2580    2.4340 h1        1 616      0.029200
     60 H482       -4.0050    3.1200    3.8740 h1        1 616      0.029200
     61 H22         4.4210    1.9740    2.0710 hn        1 616      0.456300
@<TRIPOS>BOND
     1    1    2 2   
     2    2    3 1   
     3    2   28 1   
     4    3    4 1   
     5    3    7 1   
     6    3   29 1   
     7    4    5 1   
     8    4    6 1   
     9    4   30 1   
    10    5   31 1   
    11    5   32 1   
    12    5   33 1   
    13    6   34 1   
    14    6   35 1   
    15    6   36 1   
    16    7    8 1   
    17    7   16 1   
    18    7   37 1   
    19    8    9 1   
    20    8   14 1   
    21    8   38 1   
    22    9   10 1   
    23    9   39 1   
    24    9   61 1   
    25   10   11 2   
    26   10   12 2   
    27   10   13 1   
    28   13   40 1   
    29   13   41 1   
    30   13   42 1   
    31   14   15 1   
    32   14   43 1   
    33   14   44 1   
    34   15   16 1   
    35   15   45 1   
    36   15   46 1   
    37   16   17 1   
    38   17   18 2   
    39   17   19 1   
    40   19   20 2   
    41   19   47 1   
    42   20   21 1   
    43   20   48 1   
    44   21   22 1   
    45   21   49 1   
    46   21   50 1   
    47   22   23 1   
    48   22   27 1   
    49   23   24 1   
    50   23   51 1   
    51   23   52 1   
    52   24   25 1   
    53   24   53 1   
    54   24   54 1   
    55   25   26 1   
    56   25   55 1   
    57   25   56 1   
    58   26   27 1   
    59   26   57 1   
    60   26   58 1   
    61   27   59 1   
    62   27   60 1   
@<TRIPOS>SUBSTRUCTURE
     1 616         1 TEMP              0 ****  ****    0 ROOT
