@<TRIPOS>MOLECULE
616
   60    58     1     0     0
SMALL
bcc


@<TRIPOS>ATOM
      1 O5         -1.2020   -1.0610   -2.4420 o         1 616     -0.281000
      2 C30        -0.4320   -1.9270   -2.1310 c1        1 616      0.195000
      3 C7          0.1970   -1.9180   -0.7600 c2        1 616     -0.184000
      4 C27         0.3060   -3.3430   -0.2460 c3        1 616     -0.099000
      5 C17        -0.8960   -4.1390   -0.7130 c3        1 616     -0.216000
      6 C1          0.3510   -3.3370    1.2900 c3        1 616     -0.216000
      7 C8          1.5590   -1.3120   -0.8440 c3        1 616      0.022000
      8 C29         2.0690   -1.5000   -2.0480 c3        1 616      0.025000
      9 N2          2.9170   -2.6990   -2.0550 n3        1 616     -0.891000
     10 S1          3.7120   -3.1320   -3.4120 s4        1 616      2.040800
     11 O2          4.6200   -2.1050   -3.8350 o         1 616     -0.540900
     12 O1          2.8170   -3.2010   -4.5460 o         1 616     -0.540900
     13 C3          4.5680   -4.6970   -3.1590 c2        1 616     -0.952000
     14 C28         2.9350   -0.2150   -2.3260 c3        1 616     -0.186000
     15 C26         2.5320    0.8230   -1.1880 c3        1 616     -0.023000
     16 N1          1.4690    0.3220   -0.6330 n         1 616     -0.340000
     17 C2          0.4030    1.0640    0.0450 c2        1 616      0.351000
     18 O3         -0.5470    0.4660    0.5260 o         1 616     -0.386000
     19 C4          0.4950    2.6120    0.1700 c2        1 616     -0.248000
     20 C5         -0.4730    3.3130    0.8640 c1        1 616     -0.046000
     21 C6         -1.6250    2.5830    1.5060 c2        1 616     -0.072000
     22 N49        -1.8340    3.1000    2.8430 n3        1 616     -0.249000
     23 C50        -3.0010    2.4510    3.4400 c3        1 616     -0.073500
     24 C45        -4.3080    2.8880    2.7870 c3        1 616     -0.191000
     25 C46        -4.4460    4.3680    2.7300 c3        1 616     -0.154000
     26 C47        -3.2650    5.0170    2.1290 c3        1 616     -0.191000
     27 C48        -1.9650    4.5750    2.7830 c3        1 616     -0.073500
     28 H30C       -0.3040   -2.6930   -2.7150 ha        1 616      0.083000
     29 HC7        -0.3550   -1.3950   -0.1510 ha        1 616      0.145000
     30 H27C        1.1190   -3.7510   -0.5920 hc        1 616      0.089000
     31 H171       -0.8840   -5.0130   -0.3030 hc        1 616      0.081167
     32 H172       -0.8660   -4.2350   -1.6880 hc        1 616      0.081167
     33 H173       -1.7150   -3.6710   -0.4580 hc        1 616      0.081167
     34 HC11       -0.5130   -3.0300    1.6430 hc        1 616      0.081167
     35 HC12        1.0680   -2.7300    1.5970 hc        1 616      0.081167
     36 HC13        0.5340   -4.2510    1.6160 hc        1 616      0.081167
     37 HC8         2.1410   -1.7030   -0.1720 h1        1 616      0.118000
     38 H29C        1.3590   -1.5820   -2.7100 h1        1 616      0.134000
     39 HN2         3.0060   -3.1890   -1.3090 hn        1 616      0.245000
     40 HC31        5.0250   -4.9480   -3.9700 ha        1 616      0.157000
     41 HC32        5.2190   -4.6010   -2.4330 ha        1 616      0.157000
     42 HC33        3.9190   -5.3880   -2.9240 ha        1 616      0.157000
     43 H281        2.7210    0.1540   -3.2130 hc        1 616      0.106500
     44 H282        3.8810   -0.4280   -2.2670 hc        1 616      0.106500
     45 H261        2.3310    1.6950   -1.5790 h1        1 616      0.087500
     46 H262        3.2650    0.9040   -0.5200 h1        1 616      0.087500
     47 HC4         1.2290    3.0830   -0.2390 ha        1 616      0.135000
     48 HC5        -0.4100    4.2890    0.9400 ha        1 616      0.140000
     49 HC61       -1.4210    1.6170    1.5520 h4        1 616      0.112000
     50 HC62       -2.4220    2.7190    0.9820 h4        1 616      0.112000
     51 H501       -2.9060    1.4780    3.3430 h1        1 616      0.089750
     52 H502       -3.0330    2.6720    4.3930 h1        1 616      0.089750
     53 H451       -4.3420    2.5280    1.8710 hc        1 616      0.086000
     54 H452       -5.0570    2.5200    3.2990 hc        1 616      0.086000
     55 H461       -5.2320    4.5910    2.1990 hc        1 616      0.080000
     56 H462       -4.5720    4.7220    3.6640 hc        1 616      0.080000
     57 H471       -3.2320    4.7990    1.1990 hc        1 616      0.086000
     58 H472       -3.3530    5.9840    2.2240 hc        1 616      0.086000
     59 H481       -1.2220    4.9340    2.2800 h1        1 616      0.089750
     60 H482       -1.9330    4.9220    3.6660 h1        1 616      0.089750
@<TRIPOS>BOND
     1    1    2 1   
     2    2   28 1   
     3    3    4 1   
     4    3    7 1   
     5    3   29 1   
     6    4    5 1   
     7    4    6 1   
     8    4   30 1   
     9    5   31 1   
    10    5   32 1   
    11    5   33 1   
    12    6   34 1   
    13    6   35 1   
    14    6   36 1   
    15    7    8 1   
    16    7   16 1   
    17    7   37 1   
    18    8    9 1   
    19    8   14 1   
    20    8   38 1   
    21    9   10 1   
    22    9   39 1   
    23   10   11 1   
    24   10   12 1   
    25   13   40 1   
    26   13   41 1   
    27   13   42 1   
    28   14   15 1   
    29   14   43 1   
    30   14   44 1   
    31   15   16 1   
    32   15   45 1   
    33   15   46 1   
    34   16   17 1   
    35   17   18 1   
    36   17   19 1   
    37   19   20 1   
    38   19   47 1   
    39   20   48 1   
    40   21   22 1   
    41   21   49 1   
    42   21   50 1   
    43   22   23 1   
    44   22   27 1   
    45   23   24 1   
    46   23   51 1   
    47   23   52 1   
    48   24   25 1   
    49   24   53 1   
    50   24   54 1   
    51   25   26 1   
    52   25   55 1   
    53   25   56 1   
    54   26   27 1   
    55   26   57 1   
    56   26   58 1   
    57   27   59 1   
    58   27   60 1   
@<TRIPOS>SUBSTRUCTURE
     1 616         1 TEMP              0 ****  ****    0 ROOT
