@<TRIPOS>MOLECULE
617
   32    33     1     0     0
SMALL
bcc


@<TRIPOS>ATOM
      1 C7          4.0490   -1.9680   -0.3820 c         1 617      0.913200
      2 C1          6.0080    1.2530    0.0380 ca        1 617     -0.183000
      3 C8          0.8460    0.8600    0.0700 c         1 617      0.658100
      4 O2          5.0180   -2.7520   -0.1870 o         1 617     -0.831800
      5 O1          2.8920   -2.3880   -0.7040 o         1 617     -0.831800
      6 C3          3.6760    1.8770   -0.0080 ca        1 617     -0.182000
      7 C2          5.0180    2.2280    0.0960 ca        1 617     -0.131000
      8 O3          0.8390    2.0350    0.4870 o         1 617     -0.609100
      9 C4          3.3000    0.5260   -0.1750 ca        1 617      0.078600
     10 C5          4.3090   -0.4760   -0.2270 ca        1 617     -0.164600
     11 C6          5.6460   -0.0830   -0.1200 ca        1 617     -0.089000
     12 C9         -0.4660    0.0690   -0.0480 c3        1 617      0.039400
     13 O4         -1.5190    1.0380   -0.0060 os        1 617     -0.291900
     14 C10        -2.7960    0.5250   -0.0130 ca        1 617      0.140100
     15 C11        -3.1170   -0.8350   -0.1110 ca        1 617     -0.177000
     16 C12        -4.4550   -1.2260   -0.1160 ca        1 617     -0.092000
     17 C13        -5.4620   -0.2640   -0.0240 ca        1 617     -0.028600
     18 C14        -5.1440    1.0960    0.0730 ca        1 617     -0.092000
     19 C15        -3.8150    1.4960    0.0800 ca        1 617     -0.177000
     20 CL1        -7.0970   -0.7470   -0.0310 cl        1 617     -0.119400
     21 H1          7.0670    1.5320    0.1190 ha        1 617      0.109000
     22 H3          2.9080    2.6640    0.0480 ha        1 617      0.150000
     23 HN1         1.8250   -0.8240   -0.5830 hn        1 617      0.378500
     24 H2          5.2890    3.2860    0.2260 ha        1 617      0.108000
     25 H6          6.4140   -0.8750   -0.1540 ha        1 617      0.157000
     26 H91        -0.5240   -0.5010   -1.0130 h1        1 617      0.066200
     27 H92        -0.5510   -0.6300    0.8250 h1        1 617      0.066200
     28 H11        -2.3310   -1.6010   -0.1850 ha        1 617      0.154500
     29 H12        -4.7090   -2.2940   -0.1920 ha        1 617      0.142000
     30 H14        -5.9430    1.8490    0.1450 ha        1 617      0.142000
     31 H15        -3.5390    2.5580    0.1570 ha        1 617      0.154500
     32 N1          1.9530    0.1510   -0.3280 n         1 617     -0.458100
@<TRIPOS>BOND
     1    1    4 1   
     2    1    5 1   
     3    1   10 1   
     4    2    7 ar  
     5    2   11 ar  
     6    2   21 1   
     7    3    8 2   
     8    3   12 1   
     9    3   32 1   
    10    6    7 ar  
    11    6    9 ar  
    12    6   22 1   
    13    7   24 1   
    14    9   10 ar  
    15    9   32 1   
    16   10   11 ar  
    17   11   25 1   
    18   12   13 1   
    19   12   26 1   
    20   12   27 1   
    21   13   14 1   
    22   14   15 ar  
    23   14   19 ar  
    24   15   16 ar  
    25   15   28 1   
    26   16   17 ar  
    27   16   29 1   
    28   17   18 ar  
    29   17   20 1   
    30   18   19 ar  
    31   18   30 1   
    32   19   31 1   
    33   23   32 1   
@<TRIPOS>SUBSTRUCTURE
     1 617         1 TEMP              0 ****  ****    0 ROOT
