@<TRIPOS>MOLECULE
617
   32    30     1     0     0
SMALL
bcc


@<TRIPOS>ATOM
      1 C7         -2.5020    0.5650    0.6040 c         1 617      0.919800
      2 C1          0.6570   -0.8490   -1.5810 c3        1 617      0.055900
      3 C8         -7.5220    1.0070   -0.4280 c         1 617      0.637100
      4 O2         -2.4290    0.5440    1.8660 o         1 617     -0.839800
      5 O1         -3.5210    1.0120   -0.0080 o         1 617     -0.839800
      6 C3         -0.6330   -0.4670   -3.6920 c2        1 617     -0.213000
      7 C2          0.4650   -0.8670   -3.0560 c2        1 617     -0.175200
      8 O3         -8.6250    0.9740    0.1260 o         1 617     -0.526100
      9 C4         -7.2630   -0.1290   -2.7360 c1        1 617      0.475800
     10 C5         -1.3770    0.0610   -0.1830 cg        1 617     -0.075200
     11 C6         -0.4560   -0.3520   -0.8310 c1        1 617     -0.235100
     12 C9         -6.2730    1.6600    0.1460 c3        1 617      0.051400
     13 O4         -6.6620    2.5760    1.1610 os        1 617     -0.325900
     14 C10        -6.3390    2.1920    2.4720 ce        1 617      0.162400
     15 C11        -5.0770    1.8210    2.7840 cf        1 617     -0.135000
     16 C12        -4.5480    1.4630    4.0770 cf        1 617     -0.091000
     17 C13        -5.1170    1.7400    5.2570 c2        1 617     -0.094600
     18 C14        -8.3650    2.4670    4.0910 c1        1 617     -0.168500
     19 C15        -7.4310    2.3400    3.3520 cg        1 617     -0.124300
     20 CL1        -4.4110    1.3010    6.7420 cl        1 617     -0.157400
     21 H1          1.5680   -0.2220   -1.3500 hc        1 617      0.044700
     22 H3          1.3360   -1.2530   -3.6120 ha        1 617      0.096000
     23 HN1        -0.7210   -0.5020   -4.7850 ha        1 617      0.117500
     24 H2         -1.5140   -0.0780   -3.1590 ha        1 617      0.117500
     25 H6          0.8920   -1.9000   -1.2410 hc        1 617      0.044700
     26 H91        -5.7420    2.2780   -0.6290 h1        1 617      0.132700
     27 H92        -5.5590    0.8610    0.5040 h1        1 617      0.132700
     28 H11        -4.3190    1.7220    1.9610 ha        1 617      0.231000
     29 H12        -3.5720    0.9340    4.0070 ha        1 617      0.186000
     30 H14        -6.0680    2.2690    5.3920 h4        1 617      0.147000
     31 H15        -9.1900    2.5710    4.7450 ha        1 617      0.156500
     32 N1         -7.3790    0.3950   -1.6800 n1        1 617     -0.709800
@<TRIPOS>BOND
     1    1    4 1   
     2    1    5 1   
     3    1   10 1   
     4    2    7 1   
     5    2   11 1   
     6    2   21 1   
     7    2   25 1   
     8    3    8 2   
     9    3   12 1   
    10    3   32 1   
    11    6    7 2   
    12    6   23 1   
    13    6   24 1   
    14    7   22 1   
    15    9   32 3   
    16   10   11 3   
    17   12   13 1   
    18   12   26 1   
    19   12   27 1   
    20   13   14 1   
    21   14   15 2   
    22   14   19 1   
    23   15   16 1   
    24   15   28 1   
    25   16   17 2   
    26   16   29 1   
    27   17   20 1   
    28   17   30 1   
    29   18   19 3   
    30   18   31 1   
@<TRIPOS>SUBSTRUCTURE
     1 617         1 TEMP              0 ****  ****    0 ROOT
