@<TRIPOS>MOLECULE
617
   33    30     1     0     0
SMALL
bcc


@<TRIPOS>ATOM
      1 C7         -1.5140   -1.0100    2.1280 c1        1 617      0.453000
      2 C1         -2.2180   -0.2210   -4.9290 c1        1 617     -0.024000
      3 C8         -4.5200    2.2360   -0.3610 c2        1 617      0.181000
      4 O2         -0.6570   -1.7580    1.7820 o         1 617     -0.227500
      5 O1         -2.3820   -0.2860    2.5070 o         1 617     -0.227500
      6 C3         -3.9000    1.4680   -5.1800 c1        1 617      0.385000
      7 C2         -3.1280    0.7230   -4.3970 c2        1 617     -0.577000
      8 O3         -3.7750    1.8990   -1.2850 o         1 617     -0.329000
      9 C4         -1.0620   -0.0650   -1.3790 c2        1 617      0.043000
     10 C5         -0.4150   -1.3660   -1.5350 c2        1 617     -0.491000
     11 C6         -0.1880   -2.0180   -2.6540 c1        1 617      0.243000
     12 C9         -4.0040    2.4420    1.0380 c3        1 617     -0.110000
     13 O4         -5.0290    2.9940    1.8700 os        1 617     -0.169000
     14 C10        -5.9070    2.0770    2.3860 c2        1 617      0.072000
     15 C11        -5.4700    0.9970    3.2910 c2        1 617     -0.138000
     16 C12        -6.2870    0.7160    4.3310 c2        1 617     -0.139000
     17 C13        -7.6770    1.2800    4.4930 c3        1 617     -0.023000
     18 C14        -8.1980    1.7560    3.1600 c2        1 617     -0.110000
     19 C15        -7.2430    2.1980    2.3620 c1        1 617     -0.165000
     20 CL1        -7.6770    2.4970    5.7670 cl        1 617     -0.089000
     21 H1         -0.0840   -1.8660   -0.5900 ha        1 617      0.224000
     22 H3         -3.2430    0.8830   -3.2960 ha        1 617      0.191000
     23 HN1        -1.8570    1.2980   -0.2650 hn        1 617      0.161000
     24 H2         -1.2260    0.4690   -2.3450 h4        1 617      0.101000
     25 H6         -1.6290   -0.7840   -4.1810 ha        1 617      0.030000
     26 H91        -3.2040    3.2340    1.0480 h1        1 617      0.141500
     27 H92        -3.5910    1.4850    1.4560 h1        1 617      0.141500
     28 H11        -4.4700    0.5580    3.1740 ha        1 617      0.165000
     29 H12        -5.9560    0.0580    5.1500 ha        1 617      0.151000
     30 H14        -8.3690    0.4710    4.8550 h1        1 617      0.137000
     31 H15        -9.2490    1.5880    2.9050 ha        1 617      0.164000
     32 H121       -5.6080    2.4140   -0.5070 h4        1 617      0.123000
     33 N1         -1.4110    0.4030   -0.2380 n2        1 617     -0.286000
@<TRIPOS>BOND
     1    1    4 1   
     2    1    5 1   
     3    2    7 1   
     4    2   25 1   
     5    3    8 1   
     6    3   12 1   
     7    3   32 1   
     8    6    7 1   
     9    7   22 1   
    10    9   10 1   
    11    9   24 1   
    12    9   33 1   
    13   10   11 1   
    14   10   21 1   
    15   12   13 1   
    16   12   26 1   
    17   12   27 1   
    18   13   14 1   
    19   14   15 1   
    20   14   19 1   
    21   15   16 1   
    22   15   28 1   
    23   16   17 1   
    24   16   29 1   
    25   17   18 1   
    26   17   20 1   
    27   17   30 1   
    28   18   19 1   
    29   18   31 1   
    30   23   33 1   
@<TRIPOS>SUBSTRUCTURE
     1 617         1 TEMP              0 ****  ****    0 ROOT
