@<TRIPOS>MOLECULE
617
   32    27     1     0     0
SMALL
bcc


@<TRIPOS>ATOM
      1 C7         -4.0930   -0.1240   -0.6660 c1        1 617      0.359000
      2 C1         -3.7970   -3.7750   -1.5600 c1        1 617     -0.180000
      3 C8         -0.0610   -0.6170   -0.1520 c1        1 617      0.271000
      4 O2         -3.8190    0.7700   -1.5590 o         1 617     -0.568000
      5 O1         -4.8600    0.1170    0.1850 o         1 617     -0.568000
      6 C3         -1.6860   -2.9870   -0.6280 c1        1 617     -0.155000
      7 N1         -1.4970   -0.8000    0.1920 n2        1 617     -0.294000
      8 C2         -2.4760   -4.0240   -1.2000 c1        1 617     -0.155000
      9 O3          0.4730   -1.3460   -1.0130 o         1 617     -0.411000
     10 C4         -2.2180   -1.7680   -0.4380 c1        1 617      0.084000
     11 C5         -3.5240   -1.5230   -0.7950 c1        1 617     -0.137000
     12 C6         -4.3200   -2.5730   -1.3720 c2        1 617     -0.090000
     13 C9          0.7620    0.4230    0.5690 c3        1 617     -0.044000
     14 O4          2.0660    0.5560   -0.0860 os        1 617     -0.213000
     15 C10         2.8520    1.6130    0.4150 c2        1 617      0.040000
     16 C11         3.5820    1.4410    1.6250 c2        1 617     -0.161000
     17 C12         4.3960    2.4800    2.1080 c1        1 617     -0.129000
     18 C13         4.4890    3.6830    1.3970 c1        1 617     -0.077000
     19 C14         3.7720    3.8480    0.2090 c1        1 617     -0.106000
     20 C15         2.9420    2.7850   -0.2800 c1        1 617     -0.112000
     21 CL1         5.3980    4.9320    1.9990 cl        1 617     -0.048000
     22 H1         -4.3120   -4.4500   -1.9330 ha        1 617      0.109000
     23 H3         -0.7830   -3.1560   -0.3840 ha        1 617      0.128500
     24 HN1        -1.9540   -0.1160    0.6660 hn        1 617      0.297000
     25 H2         -2.0830   -4.8930   -1.3710 ha        1 617      0.128500
     26 H6         -5.1920   -2.4120   -1.6090 ha        1 617      0.151000
     27 H91         0.3150    1.2400    0.5420 h1        1 617      0.110500
     28 H92         0.8880    0.1590    1.4810 h1        1 617      0.110500
     29 H11         3.5120    0.5810    2.1300 ha        1 617      0.132000
     30 H12         4.8720    2.3700    2.8960 ha        1 617      0.133000
     31 H14         3.8790    4.6760   -0.3220 ha        1 617      0.161000
     32 H15         2.4770    2.8910   -1.0480 ha        1 617      0.232000
@<TRIPOS>BOND
     1    1    4 1   
     2    1    5 1   
     3    2   12 1   
     4    2   22 1   
     5    3    9 1   
     6    3   13 1   
     7    6    8 1   
     8    6   23 1   
     9    7   10 1   
    10    7   24 1   
    11    8   25 1   
    12   10   11 1   
    13   11   12 1   
    14   12   26 1   
    15   13   14 1   
    16   13   27 1   
    17   13   28 1   
    18   14   15 1   
    19   15   16 1   
    20   15   20 1   
    21   16   17 1   
    22   16   29 1   
    23   17   30 1   
    24   18   19 1   
    25   18   21 1   
    26   19   31 1   
    27   20   32 1   
@<TRIPOS>SUBSTRUCTURE
     1 617         1 TEMP              0 ****  ****    0 ROOT
