@<TRIPOS>MOLECULE
617
   32    30     1     0     0
SMALL
bcc


@<TRIPOS>ATOM
      1 C7         -2.5030    0.5610    0.6030 c         1 617      0.919800
      2 C1          0.6550   -0.8540   -1.5810 c3        1 617      0.055900
      3 C8         -7.5240    1.0030   -0.4250 c         1 617      0.637100
      4 O2         -2.4310    0.5400    1.8650 o         1 617     -0.839800
      5 O1         -3.5220    1.0080   -0.0090 o         1 617     -0.839800
      6 C3         -0.6270   -0.4540   -3.6930 c2        1 617     -0.213000
      7 C2          0.4680   -0.8620   -3.0570 c2        1 617     -0.175200
      8 O3         -8.6260    0.9710    0.1290 o         1 617     -0.526100
      9 C4         -7.2680   -0.1370   -2.7320 c1        1 617      0.475800
     10 C5         -1.3790    0.0560   -0.1840 cg        1 617     -0.075200
     11 C6         -0.4580   -0.3560   -0.8310 c1        1 617     -0.235100
     12 C9         -6.2740    1.6570    0.1460 c3        1 617      0.051400
     13 O4         -6.6620    2.5740    1.1600 os        1 617     -0.325900
     14 C10        -6.3390    2.1930    2.4710 ce        1 617      0.162400
     15 C11        -5.0770    1.8210    2.7830 cf        1 617     -0.135000
     16 C12        -4.5480    1.4640    4.0760 cf        1 617     -0.091000
     17 C13        -5.1160    1.7440    5.2560 c2        1 617     -0.094600
     18 C14        -8.3640    2.4720    4.0910 c1        1 617     -0.168500
     19 C15        -7.4310    2.3420    3.3510 cg        1 617     -0.124300
     20 Cl1        -4.4100    1.3060    6.7410 cl        1 617     -0.157400
     21 H1          1.5680   -0.2330   -1.3430 hc        1 617      0.044700
     22 H3          1.3390   -1.2490   -3.6120 ha        1 617      0.096000
     23 HN1        -0.7120   -0.4830   -4.7870 ha        1 617      0.117500
     24 H2         -1.5070   -0.0650   -3.1610 ha        1 617      0.117500
     25 H6          0.8840   -1.9080   -1.2470 hc        1 617      0.044700
     26 H91        -5.7440    2.2730   -0.6310 h1        1 617      0.132700
     27 H92        -5.5600    0.8580    0.5040 h1        1 617      0.132700
     28 H11        -4.3190    1.7200    1.9600 ha        1 617      0.231000
     29 H12        -3.5720    0.9340    4.0070 ha        1 617      0.186000
     30 H14        -6.0660    2.2730    5.3910 h4        1 617      0.147000
     31 H15        -9.1890    2.5770    4.7450 ha        1 617      0.156500
     32 N1         -7.3830    0.3880   -1.6760 n1        1 617     -0.709800
@<TRIPOS>BOND
     1    1    4 1   
     2    1    5 1   
     3    1   10 1   
     4    2    7 1   
     5    2   11 1   
     6    2   21 1   
     7    2   25 1   
     8    3    8 2   
     9    3   12 1   
    10    3   32 1   
    11    6    7 2   
    12    6   23 1   
    13    6   24 1   
    14    7   22 1   
    15    9   32 3   
    16   10   11 3   
    17   12   13 1   
    18   12   26 1   
    19   12   27 1   
    20   13   14 1   
    21   14   15 2   
    22   14   19 1   
    23   15   16 1   
    24   15   28 1   
    25   16   17 2   
    26   16   29 1   
    27   17   20 1   
    28   17   30 1   
    29   18   19 3   
    30   18   31 1   
@<TRIPOS>SUBSTRUCTURE
     1 617         1 TEMP              0 ****  ****    0 ROOT
