@<TRIPOS>MOLECULE
618
   69    72     1     0     0
SMALL
bcc


@<TRIPOS>ATOM
      1 O6          1.0580   -1.3610   -3.0360 o         1 618     -0.370100
      2 C5          1.3120   -0.8270   -1.9690 c         1 618      0.528100
      3 C3          0.2650   -0.2320   -1.0120 c3        1 618      0.087500
      4 N2         -0.6880    0.6240   -1.7960 ny        1 618     -0.759000
      5 C1         -1.8740    1.0300   -1.0050 c3        1 618      0.072100
      6 C4         -0.3990   -1.4010   -0.2920 c3        1 618     -0.145100
      7 N7          2.7510   -0.7750   -1.5400 ny        1 618     -0.653800
      8 C8          3.5640    0.1070   -2.4710 c3        1 618      0.114700
      9 C9          3.0030    1.5520   -2.4540 c         1 618      0.737500
     10 O15         2.0460    1.7920   -1.6720 o         1 618     -0.730500
     11 C14         5.0190    0.0380   -2.1430 c2        1 618     -0.283200
     12 C13         5.9170    0.5370   -3.0020 c2        1 618     -0.041200
     13 C12         5.5190    1.2300   -4.2520 c3        1 618     -0.093200
     14 C11         4.7980    2.5360   -3.9410 c3        1 618      0.163800
     15 N10         3.4770    2.4800   -3.3350 n         1 618     -0.421800
     16 S16         4.6470    3.4540   -5.4790 ss        1 618     -0.200200
     17 C17         3.0350    4.1690   -5.1040 c3        1 618      0.024100
     18 C19         3.1710    5.6750   -5.0470 c3        1 618     -0.103100
     19 C20         2.0980    3.7600   -6.2180 c3        1 618     -0.103100
     20 C18         2.6210    3.6130   -3.7180 c3        1 618      0.040700
     21 C21         1.1230    3.2190   -3.7170 c         1 618      0.702100
     22 O22         0.7660    2.0160   -3.7890 o         1 618     -0.692100
     23 N23         0.2220    4.2420   -3.5660 ns        1 618     -0.414100
     24 C24        -1.1580    4.0220   -3.4780 cc        1 618     -0.005700
     25 C25        -1.9100    2.8720   -3.8190 cd        1 618     -0.360300
     26 C26        -3.2770    3.2190   -3.4970 cd        1 618      0.310600
     27 C29        -4.4510    2.3550   -3.7310 c3        1 618     -0.135400
     28 N27        -3.3320    4.4820   -2.9830 nc        1 618     -0.449800
     29 N28        -2.0810    4.9600   -2.9370 na        1 618      0.171300
     30 C30        -1.7610    6.3170   -2.6120 ca        1 618     -0.033200
     31 C31        -0.7070    6.5930   -1.7170 ca        1 618     -0.125000
     32 C32        -0.4040    7.9140   -1.4020 ca        1 618     -0.111500
     33 C33        -1.1410    8.9630   -1.9540 ca        1 618     -0.098000
     34 C34        -2.1930    8.6880   -2.8260 ca        1 618     -0.111500
     35 C35        -2.5130    7.3730   -3.1620 ca        1 618     -0.125000
     36 H3          0.7540    0.4620   -0.2570 hx        1 618      0.151700
     37 HN2        -0.9960    0.1220   -2.6420 hn        1 618      0.490300
     38 H11A       -1.5460    1.5350   -0.0570 hx        1 618      0.122033
     39 H12        -2.5070    0.1350   -0.7650 hx        1 618      0.122033
     40 H13A       -2.4730    1.7560   -1.6350 hx        1 618      0.122033
     41 H41         0.3870   -2.0260    0.2010 hc        1 618      0.100033
     42 H42        -1.0860   -1.0270    0.5100 hc        1 618      0.100033
     43 H43        -0.9800   -2.0490   -0.9960 hc        1 618      0.100033
     44 HN7         2.8220   -0.3980   -0.5860 hn        1 618      0.482300
     45 H8          3.3840   -0.3050   -3.5200 hx        1 618      0.150700
     46 H14         5.3300   -0.4350   -1.1980 ha        1 618      0.168000
     47 H13         7.0010    0.4590   -2.7940 ha        1 618      0.187000
     48 H121        6.4330    1.4920   -4.8590 hc        1 618      0.108200
     49 H122        4.8880    0.5580   -4.8980 hc        1 618      0.108200
     50 H11         5.4520    3.1360   -3.2370 h2        1 618      0.106700
     51 H191        3.9130    5.9860   -4.2720 hc        1 618      0.068533
     52 H192        3.5200    6.0590   -6.0400 hc        1 618      0.068533
     53 H193        2.1870    6.1520   -4.8190 hc        1 618      0.068533
     54 H201        1.1580    4.3650   -6.1930 hc        1 618      0.068533
     55 H202        1.8350    2.6760   -6.1470 hc        1 618      0.068533
     56 H203        2.5910    3.9380   -7.2080 hc        1 618      0.068533
     57 H18         2.7770    4.4170   -2.9320 h1        1 618      0.108700
     58 HN23        0.5380    5.1920   -3.5710 hn        1 618      0.359500
     59 H25        -1.5550    1.9850   -4.3290 ha        1 618      0.174000
     60 H291       -4.1350    1.2840   -3.7610 hc        1 618      0.064367
     61 H292       -4.9180    2.6150   -4.7160 hc        1 618      0.064367
     62 H293       -5.2280    2.4860   -2.9360 hc        1 618      0.064367
     63 H31        -0.1430    5.7800   -1.2360 ha        1 618      0.147500
     64 H32         0.4150    8.1310   -0.6990 ha        1 618      0.158500
     65 H33        -0.8980   10.0050   -1.6920 ha        1 618      0.163000
     66 H34        -2.7870    9.5140   -3.2530 ha        1 618      0.158500
     67 H35        -3.3580    7.1730   -3.8420 ha        1 618      0.147500
     68 H22        -0.1780    1.4810   -2.1190 hn        1 618      0.490300
     69 H72         3.1620   -1.7200   -1.5710 hn        1 618      0.482300
@<TRIPOS>BOND
     1    1    2 2   
     2    2    3 1   
     3    2    7 1   
     4    3    4 1   
     5    3    6 1   
     6    3   36 1   
     7    4    5 1   
     8    4   37 1   
     9    4   68 1   
    10    5   38 1   
    11    5   39 1   
    12    5   40 1   
    13    6   41 1   
    14    6   42 1   
    15    6   43 1   
    16    7    8 1   
    17    7   44 1   
    18    7   69 1   
    19    8    9 1   
    20    8   11 1   
    21    8   45 1   
    22    9   10 2   
    23    9   15 1   
    24   11   12 2   
    25   11   46 1   
    26   12   13 1   
    27   12   47 1   
    28   13   14 1   
    29   13   48 1   
    30   13   49 1   
    31   14   15 1   
    32   14   16 1   
    33   14   50 1   
    34   15   20 1   
    35   16   17 1   
    36   17   18 1   
    37   17   19 1   
    38   17   20 1   
    39   18   51 1   
    40   18   52 1   
    41   18   53 1   
    42   19   54 1   
    43   19   55 1   
    44   19   56 1   
    45   20   21 1   
    46   20   57 1   
    47   21   22 2   
    48   21   23 1   
    49   23   24 1   
    50   23   58 1   
    51   24   25 2   
    52   24   29 1   
    53   25   26 1   
    54   25   59 1   
    55   26   27 1   
    56   26   28 2   
    57   27   60 1   
    58   27   61 1   
    59   27   62 1   
    60   28   29 1   
    61   29   30 1   
    62   30   31 ar  
    63   30   35 ar  
    64   31   32 ar  
    65   31   63 1   
    66   32   33 ar  
    67   32   64 1   
    68   33   34 ar  
    69   33   65 1   
    70   34   35 ar  
    71   34   66 1   
    72   35   67 1   
@<TRIPOS>SUBSTRUCTURE
     1 618         1 TEMP              0 ****  ****    0 ROOT
