@<TRIPOS>MOLECULE
618
   67    63     1     0     0
SMALL
bcc


@<TRIPOS>ATOM
      1 O6         -2.7590   -0.6440    4.1160 o         1 618     -0.374000
      2 C5         -1.5410   -0.6090    4.1090 c1        1 618      0.264000
      3 C3         -0.7790   -0.4680    5.4180 c3        1 618     -0.026000
      4 N2         -0.9240    0.8340    5.9020 n3        1 618     -0.282000
      5 C1          0.0160    1.0540    6.9860 c3        1 618     -0.134000
      6 C4         -1.3400   -1.4710    6.4550 c3        1 618     -0.212000
      7 N7         -0.8130   -0.8200    2.8580 n2        1 618     -0.369000
      8 C8         -1.5190   -1.0640    1.6700 c3        1 618      0.017000
      9 C9         -0.5590   -1.3780    0.5700 c2        1 618      0.300000
     10 O15         0.5020   -1.9750    0.7230 o         1 618     -0.264000
     11 C14        -2.3880   -2.3060    1.8440 c2        1 618     -0.185000
     12 C13        -2.9840   -2.9990    0.6230 c1        1 618     -0.136000
     13 C12        -2.0910   -3.4820   -0.4720 c2        1 618     -0.153000
     14 C11        -1.9710   -2.2950   -1.4370 c3        1 618     -0.069000
     15 N10        -1.0950   -0.9890   -0.7100 n         1 618     -0.340000
     16 S16        -3.2620   -1.7910   -1.7530 ss        1 618      0.020000
     17 C17        -3.0280   -0.1300   -1.9940 c3        1 618     -0.132000
     18 C19        -3.1310    0.2050   -3.4800 c3        1 618     -0.213500
     19 C20        -4.0600    0.6700   -1.2100 c3        1 618     -0.213500
     20 C18        -1.4490    0.2230   -1.4260 c3        1 618     -0.010000
     21 C21        -0.5460    0.5740   -2.4340 c2        1 618      0.316000
     22 O22        -0.9460    0.7530   -3.5710 o         1 618     -0.336000
     23 N23         0.8730    0.5720   -2.1620 n         1 618     -0.301000
     24 C24         1.8340    0.7870   -3.2550 c2        1 618      0.042000
     25 C25         1.6520    0.4550   -4.5570 c1        1 618     -0.203000
     26 C26         2.7990    0.7810   -5.2400 c1        1 618     -0.115000
     27 C29         3.1260    0.3960   -6.7290 c2        1 618     -0.143000
     28 N27         3.6770    1.3110   -4.3500 n2        1 618     -0.057000
     29 N28         3.0870    1.3170   -3.1260 n3        1 618     -0.086000
     30 C30         3.6600    1.7580   -1.9560 c1        1 618      0.062000
     31 C31         4.0220    0.8390   -0.9690 c1        1 618     -0.126000
     32 C32         4.7520    1.2630    0.1500 c1        1 618     -0.126000
     33 C33         5.1170    2.6100    0.2790 c1        1 618     -0.126000
     34 C34         4.7540    3.5290   -0.7070 c1        1 618     -0.126000
     35 C35         4.0270    3.1080   -1.8250 c1        1 618     -0.106000
     36 H3          0.1980   -0.6600    5.2600 h1        1 618      0.112000
     37 HN2        -0.7590    1.4240    5.2340 hn        1 618      0.173000
     38 H11A       -0.3660    0.7210    7.8190 h1        1 618      0.078333
     39 H12         0.2030    2.0290    7.0710 h1        1 618      0.078333
     40 H13A        0.8600    0.5720    6.7950 h1        1 618      0.078333
     41 H41        -1.5430   -2.3280    6.0090 hc        1 618      0.089333
     42 H42        -0.6760   -1.6180    7.1550 hc        1 618      0.089333
     43 H43        -2.1600   -1.1060    6.8520 hc        1 618      0.089333
     44 HN7         0.1050   -0.7240    2.8370 hn        1 618      0.237000
     45 H8         -2.0160   -0.2060    1.5700 h1        1 618      0.158000
     46 H14        -2.4800   -2.7140    2.7290 ha        1 618      0.145000
     47 H13        -3.9790   -3.1010    0.5390 ha        1 618      0.137000
     48 H121       -2.4140   -4.3610   -0.8210 ha        1 618      0.114000
     49 H122       -1.1860   -3.5310   -0.1030 ha        1 618      0.114000
     50 H11        -1.5150   -2.5840   -2.2650 h2        1 618      0.124000
     51 H191       -3.9980   -0.1160   -3.8330 hc        1 618      0.096833
     52 H192       -3.0690    1.1700   -3.6000 hc        1 618      0.096833
     53 H193       -2.4070   -0.2270   -3.9580 hc        1 618      0.096833
     54 H201       -4.6990    0.0730   -0.8200 hc        1 618      0.096833
     55 H202       -3.6020    1.1910   -0.4840 hc        1 618      0.096833
     56 H203       -4.5180    1.2890   -1.8160 hc        1 618      0.096833
     57 H18        -1.4270    1.0200   -0.8470 h1        1 618      0.144000
     58 HN23        1.1770    0.4780   -1.2900 hn        1 618      0.250000
     59 H25         0.7940    0.1030   -4.9670 DU        1 618      0.170000
     60 H291        2.6120    0.9580   -7.3290 ha        1 618      0.089333
     61 H292        4.0790    0.5270   -6.8970 ha        1 618      0.089333
     62 H293        2.8990   -0.5220   -6.8790 ha        1 618      0.089333
     63 H31         3.7650   -0.1180   -1.0620 ha        1 618      0.138500
     64 H32         4.9990    0.6350    0.8260 ha        1 618      0.138500
     65 H33         5.6230    2.9040    1.0560 ha        1 618      0.138500
     66 H34         5.0080    4.4590   -0.6180 ha        1 618      0.138500
     67 H35         3.7770    3.7440   -2.5030 ha        1 618      0.156000
@<TRIPOS>BOND
     1    1    2 1   
     2    2    3 1   
     3    3    4 1   
     4    3    6 1   
     5    3   36 1   
     6    4    5 1   
     7    4   37 1   
     8    5   38 1   
     9    5   39 1   
    10    5   40 1   
    11    6   41 1   
    12    6   42 1   
    13    6   43 1   
    14    7    8 1   
    15    7   44 1   
    16    8    9 1   
    17    8   11 1   
    18    8   45 1   
    19    9   10 1   
    20    9   15 1   
    21   11   12 1   
    22   11   46 1   
    23   12   47 1   
    24   13   14 1   
    25   13   48 1   
    26   13   49 1   
    27   14   15 1   
    28   14   16 1   
    29   14   50 1   
    30   15   20 1   
    31   16   17 1   
    32   17   18 1   
    33   17   19 1   
    34   17   20 1   
    35   18   51 1   
    36   18   52 1   
    37   18   53 1   
    38   19   54 1   
    39   19   55 1   
    40   19   56 1   
    41   20   21 1   
    42   20   57 1   
    43   21   22 1   
    44   21   23 1   
    45   23   24 1   
    46   23   58 1   
    47   24   25 1   
    48   24   29 1   
    49   25   26 1   
    50   26   28 1   
    51   27   60 1   
    52   27   61 1   
    53   27   62 1   
    54   28   29 1   
    55   29   30 1   
    56   30   35 1   
    57   31   32 1   
    58   31   63 1   
    59   32   64 1   
    60   33   34 1   
    61   33   65 1   
    62   34   66 1   
    63   35   67 1   
@<TRIPOS>SUBSTRUCTURE
     1 618         1 TEMP              0 ****  ****    0 ROOT
