@<TRIPOS>MOLECULE
618
   70    73     1     0     0
SMALL
bcc


@<TRIPOS>ATOM
      1 O6          1.0070   -1.8730   -0.8350 o         1 618     -0.367100
      2 C5          1.4730   -0.9330   -0.2100 c         1 618      0.507100
      3 C3          1.7600   -0.9630    1.3040 c3        1 618      0.062500
      4 N2          1.4280   -2.3190    1.8780 n4        1 618     -0.761000
      5 C1          1.0230   -2.2400    3.3090 c3        1 618      0.074100
      6 C4          3.2080   -0.5710    1.5770 c3        1 618     -0.160100
      7 N7          1.7760    0.3460   -0.9250 n4        1 618     -0.668800
      8 C8          1.3880    0.3170   -2.4120 c3        1 618      0.140700
      9 C9          1.0020    1.7510   -2.8540 c         1 618      0.672500
     10 O15        -0.1880    2.0710   -2.7020 o         1 618     -0.558500
     11 C14         2.3670   -0.4530   -3.2060 c2        1 618     -0.327200
     12 C13         3.3510   -0.0540   -4.0240 c2        1 618      0.006800
     13 C12         3.8400    1.3010   -4.3250 c3        1 618     -0.114200
     14 C11         3.3590    2.3740   -3.3610 c3        1 618      0.157800
     15 N10         1.9300    2.6260   -3.3740 n         1 618     -0.456800
     16 S16         4.1890    3.9210   -3.7530 ss        1 618     -0.164200
     17 C17         2.6830    4.9130   -3.8280 c3        1 618      0.014100
     18 C19         2.5130    5.6830   -2.5340 c3        1 618     -0.111100
     19 C20         2.8470    5.8720   -4.9810 c3        1 618     -0.111100
     20 C18         1.5230    3.8900   -3.9810 c3        1 618      0.057700
     21 C21         1.1670    3.6970   -5.4690 c         1 618      0.531100
     22 O22         1.5970    2.8350   -6.2190 o         1 618     -0.401100
     23 N23         0.1810    4.6640   -6.0870 n4        1 618     -0.498200
     24 C24        -1.1800    4.3700   -5.7050 cc        1 618     -0.167700
     25 C25        -1.8810    3.1470   -5.8410 cd        1 618     -0.199300
     26 C26        -3.2120    3.4440   -5.3770 cd        1 618      0.342600
     27 C29        -4.3390    2.4940   -5.3370 c3        1 618     -0.142400
     28 N27        -3.2910    4.7620   -4.9960 nc        1 618     -0.402800
     29 N28        -2.0970    5.3170   -5.1650 na        1 618      0.217300
     30 C30        -1.8360    6.7260   -5.0910 ca        1 618     -0.060200
     31 C31        -0.7280    7.1920   -4.3530 ca        1 618     -0.132500
     32 C32        -0.4780    8.5590   -4.2840 ca        1 618     -0.099500
     33 C33        -1.3240    9.4680   -4.9270 ca        1 618     -0.082000
     34 C34        -2.4300    9.0060   -5.6370 ca        1 618     -0.099500
     35 C35        -2.6980    7.6380   -5.7260 ca        1 618     -0.132500
     36 H3          1.0590   -0.2160    1.8020 hx        1 618      0.155700
     37 HN2         0.6630   -2.7520    1.3350 hn        1 618      0.481800
     38 H11A        0.8550   -3.2920    3.6870 hx        1 618      0.133700
     39 H12         1.8360   -1.7540    3.9140 hx        1 618      0.133700
     40 H13A        0.0680   -1.6560    3.4070 hx        1 618      0.133700
     41 H41         3.4750   -0.7370    2.6560 hc        1 618      0.108033
     42 H42         3.3490    0.5220    1.3840 hc        1 618      0.108033
     43 H43         3.9250   -1.1580    0.9500 hc        1 618      0.108033
     44 HN7         2.7880    0.5270   -0.8520 hn        1 618      0.475300
     45 H8          0.3950   -0.2520   -2.4560 hx        1 618      0.159700
     46 H14         2.1580   -1.5440   -3.1580 ha        1 618      0.174000
     47 H13         3.8880   -0.8470   -4.5970 ha        1 618      0.189000
     48 H121        4.9710    1.3020   -4.3120 hc        1 618      0.135700
     49 H122        3.5400    1.5550   -5.3870 hc        1 618      0.135700
     50 H11         3.6550    2.0780   -2.3140 h2        1 618      0.052700
     51 H191        1.6270    6.3630   -2.5870 hc        1 618      0.074367
     52 H192        2.3800    4.9900   -1.6690 hc        1 618      0.074367
     53 H193        3.4220    6.3110   -2.3470 hc        1 618      0.074367
     54 H201        2.0210    6.6280   -4.9950 hc        1 618      0.074367
     55 H202        3.8060    6.4440   -4.8510 hc        1 618      0.074367
     56 H203        2.9130    5.3440   -5.9640 hc        1 618      0.074367
     57 H18         0.5940    4.2600   -3.4400 h1        1 618      0.147700
     58 HN23        0.4270    5.6340   -5.8220 hn        1 618      0.484800
     59 H25        -1.5160    2.1970   -6.2200 ha        1 618      0.190000
     60 H291       -4.8880    2.5560   -4.3630 hc        1 618      0.078367
     61 H292       -5.0660    2.7260   -6.1590 hc        1 618      0.078367
     62 H293       -3.9620    1.4510   -5.4780 hc        1 618      0.078367
     63 H31        -0.0980    6.4970   -3.7790 ha        1 618      0.144000
     64 H32         0.3810    8.9300   -3.7020 ha        1 618      0.168500
     65 H33        -1.1210   10.5510   -4.8590 ha        1 618      0.178000
     66 H34        -3.1110    9.7230   -6.1300 ha        1 618      0.168500
     67 H35        -3.5880    7.2930   -6.2790 ha        1 618      0.144000
     68 H22         2.2580   -2.9280    1.7970 hn        1 618      0.481800
     69 H72         1.2610    1.1100   -0.4640 hn        1 618      0.475300
     70 H232        0.2380    4.5770   -7.1200 hn        1 618      0.484800
@<TRIPOS>BOND
     1    1    2 2   
     2    2    3 1   
     3    2    7 1   
     4    3    4 1   
     5    3    6 1   
     6    3   36 1   
     7    4    5 1   
     8    4   37 1   
     9    4   68 1   
    10    5   38 1   
    11    5   39 1   
    12    5   40 1   
    13    6   41 1   
    14    6   42 1   
    15    6   43 1   
    16    7    8 1   
    17    7   44 1   
    18    7   69 1   
    19    8    9 1   
    20    8   11 1   
    21    8   45 1   
    22    9   10 2   
    23    9   15 1   
    24   11   12 2   
    25   11   46 1   
    26   12   13 1   
    27   12   47 1   
    28   13   14 1   
    29   13   48 1   
    30   13   49 1   
    31   14   15 1   
    32   14   16 1   
    33   14   50 1   
    34   15   20 1   
    35   16   17 1   
    36   17   18 1   
    37   17   19 1   
    38   17   20 1   
    39   18   51 1   
    40   18   52 1   
    41   18   53 1   
    42   19   54 1   
    43   19   55 1   
    44   19   56 1   
    45   20   21 1   
    46   20   57 1   
    47   21   22 2   
    48   21   23 1   
    49   23   24 1   
    50   23   58 1   
    51   23   70 1   
    52   24   25 2   
    53   24   29 1   
    54   25   26 1   
    55   25   59 1   
    56   26   27 1   
    57   26   28 2   
    58   27   60 1   
    59   27   61 1   
    60   27   62 1   
    61   28   29 1   
    62   29   30 1   
    63   30   31 ar  
    64   30   35 ar  
    65   31   32 ar  
    66   31   63 1   
    67   32   33 ar  
    68   32   64 1   
    69   33   34 ar  
    70   33   65 1   
    71   34   35 ar  
    72   34   66 1   
    73   35   67 1   
@<TRIPOS>SUBSTRUCTURE
     1 618         1 TEMP              0 ****  ****    0 ROOT
