@<TRIPOS>MOLECULE
618
   67    70     1     0     0
SMALL
bcc


@<TRIPOS>ATOM
      1 O6         -3.9080   -1.3650   -2.4770 o         1 618     -0.600100
      2 C5         -2.9690   -0.7120   -2.9690 c         1 618      0.662100
      3 C3         -3.2440    0.4850   -3.9110 c3        1 618      0.106500
      4 N2         -2.3140    0.5060   -5.0310 n3        1 618     -0.832200
      5 C1         -2.2370    1.7700   -5.7160 c3        1 618      0.150100
      6 C4         -4.7240    0.4610   -4.2870 c3        1 618     -0.121100
      7 N7         -1.6530   -0.9840   -2.6500 n         1 618     -0.559900
      8 C8         -1.2800   -2.0430   -1.7510 c3        1 618      0.088900
      9 C9         -0.7220   -3.2830   -2.4890 c         1 618      0.695500
     10 O15        -1.3670   -4.3490   -2.4840 o         1 618     -0.648500
     11 C14        -0.3570   -1.5940   -0.6570 c2        1 618     -0.206200
     12 C13         0.9750   -1.5350   -0.6300 c2        1 618     -0.128200
     13 C12         1.9680   -1.8980   -1.6620 c3        1 618     -0.083200
     14 C11         1.4020   -2.1080   -3.0600 c3        1 618      0.203800
     15 N10         0.4740   -3.2080   -3.1910 n         1 618     -0.457800
     16 S16         2.7710   -2.4190   -4.2060 ss        1 618     -0.315200
     17 C17         2.2050   -4.0600   -4.7240 c3        1 618      0.063100
     18 C19         1.6930   -3.9550   -6.1460 c3        1 618     -0.093100
     19 C20         3.3630   -5.0250   -4.6600 c3        1 618     -0.093100
     20 C18         1.0360   -4.4190   -3.7770 c3        1 618      0.036700
     21 C21         1.4650   -5.4150   -2.6610 c         1 618      0.648100
     22 O22         2.4730   -5.2270   -1.9600 o         1 618     -0.572100
     23 N23         0.6340   -6.5190   -2.5120 n         1 618     -0.433100
     24 C24         0.8250   -7.4710   -1.5080 cc        1 618      0.031300
     25 C25         1.9850   -7.7740   -0.7680 cd        1 618     -0.299300
     26 C26         1.6070   -8.8820    0.0840 cd        1 618      0.323600
     27 C29         2.5020   -9.5320    1.0600 c3        1 618     -0.120400
     28 N27         0.3090   -9.2270   -0.1320 nc        1 618     -0.503800
     29 N28        -0.1890   -8.3700   -1.0440 na        1 618      0.132300
     30 C30        -1.4670   -8.5400   -1.6520 ca        1 618      0.008800
     31 C31        -2.3150   -7.4280   -1.8350 ca        1 618     -0.130000
     32 C32        -3.5630   -7.6040   -2.4280 ca        1 618     -0.121500
     33 C33        -3.9900   -8.8700   -2.8260 ca        1 618     -0.132000
     34 C34        -3.1610   -9.9730   -2.6290 ca        1 618     -0.121500
     35 C35        -1.9050   -9.8200   -2.0470 ca        1 618     -0.130000
     36 H3         -3.0530    1.4130   -3.2890 h1        1 618      0.076700
     37 HN2        -2.5330   -0.2340   -5.6720 hn        1 618      0.368800
     38 H11A       -3.2130    2.1070   -6.1620 h1        1 618      0.035700
     39 H12        -1.4830    1.6750   -6.5410 h1        1 618      0.035700
     40 H13A       -1.8890    2.5600   -4.9990 h1        1 618      0.035700
     41 H41        -4.9720   -0.4620   -4.8630 hc        1 618      0.052700
     42 H42        -5.3440    0.4650   -3.3580 hc        1 618      0.052700
     43 H43        -4.9820    1.3570   -4.9010 hc        1 618      0.052700
     44 HN7        -0.9300   -0.4380   -3.0540 hn        1 618      0.328500
     45 H8         -2.2360   -2.4270   -1.2600 h1        1 618      0.128700
     46 H14        -0.9150   -1.2750    0.2430 ha        1 618      0.138000
     47 H13         1.4560   -1.1900    0.3080 ha        1 618      0.131000
     48 H121        2.7410   -1.0820   -1.7280 hc        1 618      0.091700
     49 H122        2.5040   -2.8360   -1.3290 hc        1 618      0.091700
     50 H11         0.9120   -1.1600   -3.4140 h2        1 618      0.082700
     51 H191        1.4120   -4.9670   -6.5300 hc        1 618      0.056200
     52 H192        0.7990   -3.2890   -6.2000 hc        1 618      0.056200
     53 H193        2.4890   -3.5350   -6.8090 hc        1 618      0.056200
     54 H201        3.9220   -4.9190   -3.6970 hc        1 618      0.056200
     55 H202        2.9940   -6.0770   -4.7450 hc        1 618      0.056200
     56 H203        4.0700   -4.8280   -5.5030 hc        1 618      0.056200
     57 H18         0.2120   -4.8890   -4.3990 h1        1 618      0.098700
     58 HN23       -0.2810   -6.4610   -2.9160 hn        1 618      0.343500
     59 H25         2.9440   -7.2700   -0.8160 ha        1 618      0.187000
     60 H291        3.5590   -9.2310    0.8560 hc        1 618      0.049700
     61 H292        2.2340   -9.2150    2.1000 hc        1 618      0.049700
     62 H293        2.4260  -10.6460    1.0020 hc        1 618      0.049700
     63 H31        -2.0160   -6.4170   -1.5070 ha        1 618      0.159500
     64 H32        -4.2160   -6.7290   -2.5730 ha        1 618      0.140000
     65 H33        -4.9800   -8.9980   -3.2890 ha        1 618      0.135000
     66 H34        -3.4980  -10.9760   -2.9320 ha        1 618      0.140000
     67 H35        -1.2660  -10.7040   -1.8910 ha        1 618      0.159500
@<TRIPOS>BOND
     1    1    2 2   
     2    2    3 1   
     3    2    7 1   
     4    3    4 1   
     5    3    6 1   
     6    3   36 1   
     7    4    5 1   
     8    4   37 1   
     9    5   38 1   
    10    5   39 1   
    11    5   40 1   
    12    6   41 1   
    13    6   42 1   
    14    6   43 1   
    15    7    8 1   
    16    7   44 1   
    17    8    9 1   
    18    8   11 1   
    19    8   45 1   
    20    9   10 2   
    21    9   15 1   
    22   11   12 2   
    23   11   46 1   
    24   12   13 1   
    25   12   47 1   
    26   13   14 1   
    27   13   48 1   
    28   13   49 1   
    29   14   15 1   
    30   14   16 1   
    31   14   50 1   
    32   15   20 1   
    33   16   17 1   
    34   17   18 1   
    35   17   19 1   
    36   17   20 1   
    37   18   51 1   
    38   18   52 1   
    39   18   53 1   
    40   19   54 1   
    41   19   55 1   
    42   19   56 1   
    43   20   21 1   
    44   20   57 1   
    45   21   22 2   
    46   21   23 1   
    47   23   24 1   
    48   23   58 1   
    49   24   25 2   
    50   24   29 1   
    51   25   26 1   
    52   25   59 1   
    53   26   27 1   
    54   26   28 2   
    55   27   60 1   
    56   27   61 1   
    57   27   62 1   
    58   28   29 1   
    59   29   30 1   
    60   30   31 ar  
    61   30   35 ar  
    62   31   32 ar  
    63   31   63 1   
    64   32   33 ar  
    65   32   64 1   
    66   33   34 ar  
    67   33   65 1   
    68   34   35 ar  
    69   34   66 1   
    70   35   67 1   
@<TRIPOS>SUBSTRUCTURE
     1 618         1 TEMP              0 ****  ****    0 ROOT
