@<TRIPOS>MOLECULE
619
   69    73     1     0     0
SMALL
bcc


@<TRIPOS>ATOM
      1 F30         5.4220    2.0940    6.8840 f         1 619     -0.113900
      2 C29         5.8150    1.6420    5.6740 ca        1 619      0.167900
      3 C26         6.1140    0.2760    5.4970 ca        1 619     -0.162000
      4 C25         6.5200   -0.1790    4.2480 ca        1 619     -0.080500
      5 C28         5.9270    2.5370    4.5920 ca        1 619     -0.162000
      6 C27         6.3290    2.0620    3.3490 ca        1 619     -0.080500
      7 C24         6.6300    0.7050    3.1650 cp        1 619     -0.106000
      8 C22         7.0560    0.2150    1.8570 cp        1 619      0.009000
      9 C21         6.4330    0.6720    0.6940 ca        1 619     -0.057000
     10 C23         8.0980   -0.7220    1.7590 ca        1 619     -0.098000
     11 C33         8.4980   -1.1840    0.5060 ca        1 619      0.064100
     12 O34         9.5030   -2.1020    0.3060 oh        1 619     -0.509100
     13 C31         7.8700   -0.7250   -0.6760 ca        1 619      0.145100
     14 O32         8.2630   -1.1840   -1.9090 oh        1 619     -0.559100
     15 C20         6.8250    0.2140   -0.5830 ca        1 619     -0.205600
     16 C18         6.0830    0.7810   -1.7060 c         1 619      0.581700
     17 O19         5.1750    1.6030   -1.6530 o         1 619     -0.446100
     18 N17         6.4620    0.3180   -3.1000 n4        1 619     -0.664800
     19 C16         5.7100    0.9740   -4.2100 c3        1 619      0.140000
     20 C15         4.3250    0.4460   -4.3720 c2        1 619     -0.214200
     21 C14         3.8140   -0.0250   -5.5130 c2        1 619     -0.115200
     22 C6          4.5600   -0.1990   -6.7910 c3        1 619      0.148300
     23 C4          4.9130    1.1290   -7.4920 c3        1 619      0.080100
     24 O5          6.3170    1.2810   -7.3930 oh        1 619     -0.611800
     25 C2          4.4600    0.9670   -8.9570 c3        1 619      0.082100
     26 O3          5.5480    0.9740   -9.8420 oh        1 619     -0.555800
     27 O13         3.7590   -0.9850   -7.6920 os        1 619     -0.407600
     28 C1          3.7040   -0.4010   -9.0000 c3        1 619      0.220800
     29 N10         2.3180   -0.3030   -9.4140 na        1 619     -0.273000
     30 C9          1.1680   -0.1230   -8.6140 cc        1 619      0.503700
     31 C11         1.8540   -0.5180  -10.7240 ca        1 619      0.459800
     32 N40         2.5070   -0.7610  -11.8870 nb        1 619     -0.623000
     33 C39         1.6850   -0.8940  -12.9600 ca        1 619      0.681900
     34 N38         0.3230   -0.8150  -13.0040 nb        1 619     -0.676000
     35 C35        -0.3220   -0.5750  -11.8350 ca        1 619      0.547200
     36 C12         0.3820   -0.4140  -10.6250 ca        1 619     -0.138200
     37 N8          0.0110   -0.1710   -9.2960 nd        1 619     -0.571100
     38 N7         -1.7960   -0.4740  -11.8380 n4        1 619     -0.749700
     39 C36        -2.4510   -1.7870  -12.1640 c3        1 619      0.115800
     40 C37        -3.9600   -1.6970  -12.0880 c3        1 619     -0.142100
     41 H26         6.0220   -0.4160    6.3480 ha        1 619      0.167500
     42 H25         6.7450   -1.2490    4.1130 ha        1 619      0.139000
     43 H28         5.6980    3.6030    4.7420 ha        1 619      0.167500
     44 H27         6.4240    2.7670    2.5090 ha        1 619      0.139000
     45 H21         5.6090    1.4060    0.7700 ha        1 619      0.178000
     46 H23         8.6030   -1.0830    2.6710 ha        1 619      0.176000
     47 HO34        9.9070   -2.3130    1.1630 ho        1 619      0.462000
     48 HO32        9.0060   -1.8060   -1.7960 ho        1 619      0.491000
     49 HN17        7.4710    0.4920   -3.2200 hn        1 619      0.471300
     50 H16         5.6500    2.0810   -3.9760 hx        1 619      0.122200
     51 H16A        6.3180    0.8390   -5.1550 hx        1 619      0.122200
     52 H15         3.6870    0.5320   -3.4720 ha        1 619      0.168000
     53 H14         2.7590   -0.3540   -5.5480 ha        1 619      0.161000
     54 H6          5.4990   -0.8050   -6.6190 h1        1 619      0.099700
     55 H4          4.4020    2.0040   -7.0070 h1        1 619      0.078700
     56 HO5         6.5790    1.9870   -8.0050 ho        1 619      0.450000
     57 H2          3.8210    1.8300   -9.2910 h1        1 619      0.121700
     58 HO3         6.1660    0.2750   -9.5790 ho        1 619      0.425000
     59 H1          4.2240   -1.1240   -9.7040 h2        1 619      0.129700
     60 H9          1.2520    0.0300   -7.5260 h5        1 619      0.099800
     61 H39         2.1840   -1.0950  -13.9390 h5        1 619      0.106100
     62 HN7        -2.1060   -0.1580  -10.9090 hn        1 619      0.472300
     63 H36        -2.1260   -2.0860  -13.2030 hx        1 619      0.116200
     64 H36A       -2.0630   -2.5500  -11.4290 hx        1 619      0.116200
     65 H37        -4.3710   -0.9620  -12.8230 hc        1 619      0.084033
     66 H37A       -4.3120   -1.4250  -11.0630 hc        1 619      0.084033
     67 H37B       -4.3750   -2.7070  -12.3410 hc        1 619      0.084033
     68 H172        6.3290   -0.7020   -3.1340 hn        1 619      0.471300
     69 H72        -2.0870    0.2260  -12.5360 hn        1 619      0.472300
@<TRIPOS>BOND
     1    1    2 1   
     2    2    3 ar  
     3    2    5 ar  
     4    3    4 ar  
     5    3   41 1   
     6    4    7 ar  
     7    4   42 1   
     8    5    6 ar  
     9    5   43 1   
    10    6    7 ar  
    11    6   44 1   
    12    7    8 1   
    13    8    9 ar  
    14    8   10 ar  
    15    9   15 ar  
    16    9   45 1   
    17   10   11 ar  
    18   10   46 1   
    19   11   12 1   
    20   11   13 ar  
    21   12   47 1   
    22   13   14 1   
    23   13   15 ar  
    24   14   48 1   
    25   15   16 1   
    26   16   17 2   
    27   16   18 1   
    28   18   19 1   
    29   18   49 1   
    30   18   68 1   
    31   19   20 1   
    32   19   50 1   
    33   19   51 1   
    34   20   21 2   
    35   20   52 1   
    36   21   22 1   
    37   21   53 1   
    38   22   23 1   
    39   22   27 1   
    40   22   54 1   
    41   23   24 1   
    42   23   25 1   
    43   23   55 1   
    44   24   56 1   
    45   25   26 1   
    46   25   28 1   
    47   25   57 1   
    48   26   58 1   
    49   27   28 1   
    50   28   29 1   
    51   28   59 1   
    52   29   30 1   
    53   29   31 1   
    54   30   37 2   
    55   30   60 1   
    56   31   32 ar  
    57   31   36 ar  
    58   32   33 ar  
    59   33   34 ar  
    60   33   61 1   
    61   34   35 ar  
    62   35   36 ar  
    63   35   38 1   
    64   36   37 1   
    65   38   39 1   
    66   38   62 1   
    67   38   69 1   
    68   39   40 1   
    69   39   63 1   
    70   39   64 1   
    71   40   65 1   
    72   40   66 1   
    73   40   67 1   
@<TRIPOS>SUBSTRUCTURE
     1 619         1 TEMP              0 ****  ****    0 ROOT
