@<TRIPOS>MOLECULE
619
   68    72     1     0     0
SMALL
bcc


@<TRIPOS>ATOM
      1 F30         2.2990   -2.4960    4.0360 f         1 619     -0.119900
      2 C29         3.0570   -1.8330    3.1370 ca        1 619      0.158900
      3 C26         2.6020   -0.6150    2.5950 ca        1 619     -0.162500
      4 C25         3.3900    0.0620    1.6730 ca        1 619     -0.083000
      5 C28         4.3020   -2.3610    2.7420 ca        1 619     -0.162500
      6 C27         5.0740   -1.6730    1.8140 ca        1 619     -0.083000
      7 C24         4.6290   -0.4590    1.2710 cp        1 619     -0.096000
      8 C22         5.4490    0.2590    0.2990 cp        1 619     -0.001000
      9 C21         6.1120   -0.4360   -0.7150 ca        1 619     -0.061000
     10 C23         5.5790    1.6560    0.3800 ca        1 619     -0.107000
     11 C33         6.3680    2.3330   -0.5470 ca        1 619      0.059100
     12 O34         6.5580    3.6970   -0.5500 oh        1 619     -0.508100
     13 C31         7.0370    1.6360   -1.5810 ca        1 619      0.152100
     14 O32         7.8240    2.2880   -2.4950 oh        1 619     -0.541100
     15 C20         6.9000    0.2390   -1.6670 ca        1 619     -0.204600
     16 C18         7.5660   -0.5970   -2.6690 c         1 619      0.580700
     17 O19         7.8870   -1.7730   -2.5430 o         1 619     -0.435100
     18 N17         7.8640    0.0480   -4.0010 n4        1 619     -0.666800
     19 C16         8.3000   -0.9070   -5.0670 c3        1 619      0.158000
     20 C15         7.1860   -1.7340   -5.6070 c2        1 619     -0.238200
     21 C14         6.3910   -1.3820   -6.6220 c2        1 619     -0.097200
     22 C6          6.4330   -0.0690   -7.3280 c3        1 619      0.114300
     23 C4          5.6630    1.0290   -6.5530 c3        1 619      0.120100
     24 O5          6.5600    1.8860   -5.8860 oh        1 619     -0.640800
     25 C2          4.7630    1.7070   -7.6040 c3        1 619      0.092100
     26 O3          5.3970    2.8990   -8.0150 oh        1 619     -0.606800
     27 O13         5.8480   -0.2000   -8.6280 os        1 619     -0.394600
     28 C1          4.7390    0.6990   -8.8010 c3        1 619      0.238800
     29 N10         3.5120   -0.0500   -8.8960 na        1 619     -0.312000
     30 C9          3.3610   -1.4410   -9.1520 cc        1 619      0.410700
     31 C11         2.2340    0.5160   -9.0680 ca        1 619      0.457800
     32 N40         1.8160    1.8120   -8.9740 nb        1 619     -0.779000
     33 C39         0.4830    1.9410   -9.2020 ca        1 619      0.701900
     34 N38        -0.4490    1.0020   -9.4920 nb        1 619     -0.783000
     35 C35        -0.0350   -0.3120   -9.5840 ca        1 619      0.771200
     36 C12         1.3590   -0.6050   -9.3730 ca        1 619     -0.233200
     37 N8          2.0990   -1.7980   -9.4140 nd        1 619     -0.525100
     38 N7         -0.9110   -1.3260   -9.8520 nh        1 619     -0.846900
     39 C36        -2.3090   -1.1000  -10.1290 c3        1 619      0.213800
     40 C37        -3.0670   -2.3810  -10.4380 c3        1 619     -0.116100
     41 H26         1.6270   -0.2110    2.9090 ha        1 619      0.164000
     42 H25         3.0280    1.0100    1.2470 ha        1 619      0.140500
     43 H28         4.6520   -3.3110    3.1730 ha        1 619      0.164000
     44 H27         6.0510   -2.0840    1.5140 ha        1 619      0.140500
     45 H21         6.0220   -1.5350   -0.7770 ha        1 619      0.172000
     46 H23         5.0670    2.2110    1.1840 ha        1 619      0.169000
     47 HO34        6.1480    4.0670    0.2480 ho        1 619      0.456000
     48 HO32        7.8670    3.2330   -2.2610 ho        1 619      0.485000
     49 HN17        7.0230    0.5610   -4.3100 hn        1 619      0.477800
     50 H16         9.0910   -1.5810   -4.6230 hx        1 619      0.109200
     51 H16A        8.7710   -0.2830   -5.8830 hx        1 619      0.109200
     52 H15         7.0830   -2.7270   -5.1330 ha        1 619      0.167000
     53 H14         5.6360   -2.0920   -7.0130 ha        1 619      0.169000
     54 H6          7.4980    0.2560   -7.5150 h1        1 619      0.086700
     55 H4          5.0260    0.5800   -5.7410 h1        1 619      0.084700
     56 HO5         6.8200    2.6030   -6.4850 ho        1 619      0.460000
     57 H2          3.7450    1.9160   -7.1840 h1        1 619      0.108700
     58 HO3         4.7190    3.4570   -8.4240 ho        1 619      0.450000
     59 H1          4.9410    1.2350   -9.7780 h2        1 619      0.114700
     60 H9          4.2300   -2.1090   -9.1260 h5        1 619      0.080800
     61 H39         0.0910    2.9810   -9.1460 h5        1 619      0.057100
     62 HN7        -0.5450   -2.2440   -9.9640 hn        1 619      0.460800
     63 H36        -2.4050   -0.3910  -11.0030 h1        1 619      0.059700
     64 H36A       -2.7770   -0.5950   -9.2340 h1        1 619      0.059700
     65 H37        -2.6550   -2.8900  -11.3430 hc        1 619      0.050700
     66 H37A       -3.0310   -3.0940   -9.5800 hc        1 619      0.050700
     67 H37B       -4.1350   -2.1180  -10.6360 hc        1 619      0.050700
     68 H172        8.6030    0.7510   -3.8500 hn        1 619      0.477800
@<TRIPOS>BOND
     1    1    2 1   
     2    2    3 ar  
     3    2    5 ar  
     4    3    4 ar  
     5    3   41 1   
     6    4    7 ar  
     7    4   42 1   
     8    5    6 ar  
     9    5   43 1   
    10    6    7 ar  
    11    6   44 1   
    12    7    8 1   
    13    8    9 ar  
    14    8   10 ar  
    15    9   15 ar  
    16    9   45 1   
    17   10   11 ar  
    18   10   46 1   
    19   11   12 1   
    20   11   13 ar  
    21   12   47 1   
    22   13   14 1   
    23   13   15 ar  
    24   14   48 1   
    25   15   16 1   
    26   16   17 2   
    27   16   18 1   
    28   18   19 1   
    29   18   49 1   
    30   18   68 1   
    31   19   20 1   
    32   19   50 1   
    33   19   51 1   
    34   20   21 2   
    35   20   52 1   
    36   21   22 1   
    37   21   53 1   
    38   22   23 1   
    39   22   27 1   
    40   22   54 1   
    41   23   24 1   
    42   23   25 1   
    43   23   55 1   
    44   24   56 1   
    45   25   26 1   
    46   25   28 1   
    47   25   57 1   
    48   26   58 1   
    49   27   28 1   
    50   28   29 1   
    51   28   59 1   
    52   29   30 1   
    53   29   31 1   
    54   30   37 2   
    55   30   60 1   
    56   31   32 ar  
    57   31   36 ar  
    58   32   33 ar  
    59   33   34 ar  
    60   33   61 1   
    61   34   35 ar  
    62   35   36 ar  
    63   35   38 1   
    64   36   37 1   
    65   38   39 1   
    66   38   62 1   
    67   39   40 1   
    68   39   63 1   
    69   39   64 1   
    70   40   65 1   
    71   40   66 1   
    72   40   67 1   
@<TRIPOS>SUBSTRUCTURE
     1 619         1 TEMP              0 ****  ****    0 ROOT
