@<TRIPOS>MOLECULE
619
   67    71     1     0     0
SMALL
bcc


@<TRIPOS>ATOM
      1 F30         0.0030   -6.4770    1.0740 f         1 619     -0.139900
      2 C29         0.7420   -5.3620    0.8590 ca        1 619      0.125900
      3 C26         2.0960   -5.4760    0.4950 ca        1 619     -0.171500
      4 C25         2.8430   -4.3250    0.2690 ca        1 619     -0.094000
      5 C28         0.1510   -4.0930    0.9970 ca        1 619     -0.171500
      6 C27         0.9100   -2.9530    0.7590 ca        1 619     -0.094000
      7 C24         2.2600   -3.0560    0.3920 cp        1 619     -0.053000
      8 C22         3.0510   -1.8520    0.1430 cp        1 619     -0.043000
      9 C21         2.5110   -0.7980   -0.5990 ca        1 619     -0.098000
     10 C23         4.3550   -1.7560    0.6490 ca        1 619     -0.105000
     11 C33         5.1070   -0.6080    0.4000 ca        1 619      0.096100
     12 O34         6.3770   -0.5620    0.9230 oh        1 619     -0.493100
     13 C31         4.5630    0.4600   -0.3580 ca        1 619      0.115100
     14 O32         5.4000    1.5350   -0.5140 oh        1 619     -0.527100
     15 C20         3.2500    0.3670   -0.8470 ca        1 619     -0.186600
     16 C18         2.6780    1.4860   -1.6460 c         1 619      0.682700
     17 O19         3.4110    2.2300   -2.3410 o         1 619     -0.643100
     18 N17         1.3230    1.7100   -1.5800 n         1 619     -0.560900
     19 C16         0.6740    2.7190   -2.3770 c3        1 619      0.114200
     20 C15        -0.4700    3.3890   -1.6830 c2        1 619     -0.141200
     21 C14        -0.4180    3.8630   -0.4350 c2        1 619     -0.216200
     22 C6         -1.5900    4.5110    0.2240 c3        1 619      0.130300
     23 C4         -1.5050    4.4630    1.7680 c3        1 619      0.080100
     24 O5         -1.6130    5.7440    2.3550 oh        1 619     -0.596800
     25 C2         -2.7200    3.6260    2.2280 c3        1 619      0.128100
     26 O3         -3.7680    4.3700    2.8050 oh        1 619     -0.580800
     27 O13        -2.8160    3.8680   -0.1580 os        1 619     -0.397600
     28 C1         -3.3090    3.0360    0.9020 c3        1 619      0.241800
     29 N10        -2.9560    1.6520    0.6970 na        1 619     -0.281000
     30 C9         -1.6570    1.0830    0.7350 cc        1 619      0.396700
     31 C11        -3.7920    0.6520    0.1680 ca        1 619      0.477800
     32 N40        -5.1330    0.6540   -0.0930 nb        1 619     -0.731000
     33 C39        -5.5700   -0.5360   -0.5690 ca        1 619      0.690900
     34 N38        -4.8920   -1.6880   -0.8130 nb        1 619     -0.789000
     35 C35        -3.5390   -1.6990   -0.5590 ca        1 619      0.762200
     36 C12        -2.9280   -0.5040   -0.0440 ca        1 619     -0.239200
     37 N8         -1.6090   -0.1890    0.3190 nd        1 619     -0.562100
     38 N7         -2.7690   -2.8090   -0.8060 nh        1 619     -0.862900
     39 C36        -3.3330   -4.0610   -1.2420 c3        1 619      0.216800
     40 C37        -2.2830   -5.1260   -1.5140 c3        1 619     -0.116100
     41 H26         2.5520   -6.4720    0.3930 ha        1 619      0.151000
     42 H25         3.9030   -4.4130   -0.0180 ha        1 619      0.151000
     43 H28        -0.9030   -4.0130    1.3030 ha        1 619      0.151000
     44 H27         0.4460   -1.9590    0.8680 ha        1 619      0.151000
     45 H21         1.4930   -0.9110   -1.0050 ha        1 619      0.147000
     46 H23         4.7950   -2.5730    1.2410 ha        1 619      0.160000
     47 HO34        6.8020    0.2550    0.6140 ho        1 619      0.442000
     48 HO32        5.0950    2.0810   -1.2600 ho        1 619      0.472000
     49 HN17        0.7430    1.1040   -1.0480 hn        1 619      0.324500
     50 H16         1.4380    3.4980   -2.6750 h1        1 619      0.071700
     51 H16A        0.2910    2.2410   -3.3280 h1        1 619      0.071700
     52 H15        -1.3960    3.4670   -2.2790 ha        1 619      0.151000
     53 H14         0.5050    3.8180    0.1650 ha        1 619      0.131000
     54 H6         -1.7010    5.5730   -0.1380 h1        1 619      0.093700
     55 H4         -0.5480    3.9790    2.1060 h1        1 619      0.054700
     56 HO5        -0.9110    6.2910    1.9810 ho        1 619      0.423000
     57 H2         -2.3970    2.8310    2.9530 h1        1 619      0.069700
     58 HO3        -3.3810    5.0880    3.3250 ho        1 619      0.436000
     59 H1         -4.4350    3.1420    0.8640 h2        1 619      0.151700
     60 H9         -0.8010    1.6730    1.0860 h5        1 619      0.067800
     61 H39        -6.6580   -0.5830   -0.7970 h5        1 619      0.055100
     62 HN7        -1.8180   -2.7900   -0.5170 hn        1 619      0.452800
     63 H36        -4.0520   -4.4420   -0.4580 h1        1 619      0.054700
     64 H36A       -3.9290   -3.8810   -2.1840 h1        1 619      0.054700
     65 H37        -1.6040   -4.8210   -2.3460 hc        1 619      0.048033
     66 H37A       -1.6610   -5.3330   -0.6070 hc        1 619      0.048033
     67 H37B       -2.8040   -6.0690   -1.8080 hc        1 619      0.048033
@<TRIPOS>BOND
     1    1    2 1   
     2    2    3 ar  
     3    2    5 ar  
     4    3    4 ar  
     5    3   41 1   
     6    4    7 ar  
     7    4   42 1   
     8    5    6 ar  
     9    5   43 1   
    10    6    7 ar  
    11    6   44 1   
    12    7    8 1   
    13    8    9 ar  
    14    8   10 ar  
    15    9   15 ar  
    16    9   45 1   
    17   10   11 ar  
    18   10   46 1   
    19   11   12 1   
    20   11   13 ar  
    21   12   47 1   
    22   13   14 1   
    23   13   15 ar  
    24   14   48 1   
    25   15   16 1   
    26   16   17 2   
    27   16   18 1   
    28   18   19 1   
    29   18   49 1   
    30   19   20 1   
    31   19   50 1   
    32   19   51 1   
    33   20   21 2   
    34   20   52 1   
    35   21   22 1   
    36   21   53 1   
    37   22   23 1   
    38   22   27 1   
    39   22   54 1   
    40   23   24 1   
    41   23   25 1   
    42   23   55 1   
    43   24   56 1   
    44   25   26 1   
    45   25   28 1   
    46   25   57 1   
    47   26   58 1   
    48   27   28 1   
    49   28   29 1   
    50   28   59 1   
    51   29   30 1   
    52   29   31 1   
    53   30   37 2   
    54   30   60 1   
    55   31   32 ar  
    56   31   36 ar  
    57   32   33 ar  
    58   33   34 ar  
    59   33   61 1   
    60   34   35 ar  
    61   35   36 ar  
    62   35   38 1   
    63   36   37 1   
    64   38   39 1   
    65   38   62 1   
    66   39   40 1   
    67   39   63 1   
    68   39   64 1   
    69   40   65 1   
    70   40   66 1   
    71   40   67 1   
@<TRIPOS>SUBSTRUCTURE
     1 619         1 TEMP              0 ****  ****    0 ROOT
