@<TRIPOS>MOLECULE
619
   67    59     1     0     0
SMALL
bcc


@<TRIPOS>ATOM
      1 F30         7.7690   -7.8560    5.4780 f         1 619     -0.104000
      2 C29         6.9260   -6.8650    5.3110 c2        1 619      0.096000
      3 C26         7.2910   -5.5700    5.6600 c2        1 619     -0.167000
      4 C25         6.3740   -4.5030    5.4840 c1        1 619     -0.096000
      5 C28         5.6730   -7.1090    4.7940 c1        1 619     -0.164000
      6 C27         4.7760   -6.0690    4.6210 c1        1 619     -0.116000
      7 C24         5.1450   -4.7490    4.9760 c1        1 619     -0.047500
      8 C22         4.2210   -3.6940    4.8230 c1        1 619     -0.047500
      9 C21         4.1250   -3.0410    3.6190 c1        1 619     -0.067000
     10 C23         3.3270   -3.3540    5.8980 c1        1 619     -0.116000
     11 C33         2.3590   -2.3550    5.7140 c1        1 619     -0.011000
     12 O34         1.4980   -2.0290    6.7480 oh        1 619     -0.272000
     13 C31         2.2640   -1.6890    4.4810 c1        1 619      0.094000
     14 O32         1.3440   -0.6770    4.3110 o         1 619     -0.261000
     15 C20         3.1390   -2.0230    3.4320 c2        1 619     -0.122000
     16 C18         2.9940   -1.3430    2.0610 c2        1 619      0.348000
     17 O19         3.7460   -1.6840    1.1060 o         1 619     -0.366000
     18 N17         1.9780   -0.3750    1.8510 n         1 619     -0.349000
     19 C16         1.5030   -0.1190    0.5160 c3        1 619     -0.023000
     20 C15         0.1570    0.5700    0.5750 c2        1 619     -0.165000
     21 C14        -0.5190    0.8930   -0.6200 c1        1 619     -0.200000
     22 C6          0.0590    0.5820   -1.8530 c2        1 619      0.044000
     23 C4          0.7090    1.6320   -2.3120 c3        1 619      0.020000
     24 O5          1.7580    1.2130   -3.1410 oh        1 619     -0.321000
     25 C2         -0.3360    2.4960   -3.1640 c3        1 619     -0.025000
     26 O3          0.3910    3.3530   -4.1130 oh        1 619     -0.327000
     27 O13        -1.1210    0.3980   -2.9960 os        1 619     -0.260000
     28 C1         -1.1040    1.6310   -3.8220 c3        1 619      0.138000
     29 N10        -2.4840    2.1700   -3.9600 n3        1 619     -0.208000
     30 C9         -3.1360    1.2300   -4.7400 c1        1 619     -0.032000
     31 C11        -3.3810    3.1200   -3.6160 c1        1 619      0.056000
     32 N40        -3.2530    4.3080   -2.9040 n1        1 619     -0.241000
     33 C39        -4.3350    5.1410   -2.7610 c1        1 619      0.027000
     34 N38        -5.5370    4.8040   -3.3180 n1        1 619     -0.267000
     35 C35        -5.6690    3.6280   -4.0260 c1        1 619      0.243000
     36 C12        -4.5890    2.7850   -4.1740 c1        1 619     -0.235000
     37 N8         -4.4250    1.6130   -4.8660 n1        1 619     -0.123000
     38 N7         -6.9640    3.2890   -4.5080 n3        1 619     -0.304000
     39 C36        -8.0000    4.3890   -4.7530 c3        1 619     -0.018000
     40 C37        -9.0140    3.9200   -5.8130 c3        1 619     -0.232000
     41 H26         8.1430   -5.4010    6.0120 ha        1 619      0.150000
     42 H25         6.6330   -3.5770    5.7330 ha        1 619      0.138000
     43 H28         5.4210   -7.9930    4.5560 ha        1 619      0.153000
     44 H27         3.9310   -6.2380    4.2700 ha        1 619      0.146500
     45 H21         4.7320   -3.2730    2.8890 ha        1 619      0.166000
     46 H23         3.3480   -3.8570    6.7210 ha        1 619      0.146500
     47 HO34        1.9540   -1.6660    7.4040 ho        1 619      0.233000
     48 HO32        1.4790   -0.0210    4.9530 ho        1 619      0.249000
     49 HN17        1.5800    0.0670    2.5920 hn        1 619      0.233000
     50 H16         2.1550    0.4640    0.0380 h1        1 619      0.122500
     51 H16A        1.4090   -0.9740    0.0330 h1        1 619      0.122500
     52 H15        -0.2530    0.7920    1.4540 ha        1 619      0.138000
     53 H14        -1.3810    1.3350   -0.5860 ha        1 619      0.137000
     54 H6          0.5680   -0.1840   -1.6270 h4        1 619      0.148000
     55 H4          1.0750    2.1870   -1.5330 h1        1 619      0.104000
     56 HO5         2.5080    1.5000   -2.8240 ho        1 619      0.233000
     57 H2         -0.9270    3.0860   -2.5250 h1        1 619      0.118000
     58 HO3         0.5840    4.1730   -3.7100 ho        1 619      0.240000
     59 H1         -0.7180    1.4380   -4.7200 h2        1 619      0.143000
     60 H9         -2.7100    0.4310   -5.1820 DU        1 619      0.217000
     61 H39        -4.2420    6.0010   -2.2460 ha        1 619      0.186000
     62 HN7        -7.1670    2.4490   -4.6680 hn        1 619      0.253000
     63 H36        -7.5750    5.1480   -5.0550 h1        1 619      0.093500
     64 H36A       -8.4830    4.5960   -3.8880 h1        1 619      0.093500
     65 H37        -9.5290    3.1150   -5.4650 hc        1 619      0.086000
     66 H37A       -9.6530    4.6650   -6.0140 hc        1 619      0.086000
     67 H37B       -8.5430    3.6760   -6.6140 hc        1 619      0.086000
@<TRIPOS>BOND
     1    1    2 1   
     2    2    3 1   
     3    2    5 1   
     4    3    4 1   
     5    3   41 1   
     6    4   42 1   
     7    5   43 1   
     8    6    7 1   
     9    6   44 1   
    10    8   10 1   
    11    9   15 1   
    12    9   45 1   
    13   10   46 1   
    14   11   12 1   
    15   11   13 1   
    16   12   47 1   
    17   13   15 1   
    18   14   48 1   
    19   15   16 1   
    20   16   17 1   
    21   16   18 1   
    22   18   19 1   
    23   18   49 1   
    24   19   20 1   
    25   19   50 1   
    26   19   51 1   
    27   20   21 1   
    28   20   52 1   
    29   21   53 1   
    30   22   23 1   
    31   22   27 1   
    32   22   54 1   
    33   23   24 1   
    34   23   25 1   
    35   23   55 1   
    36   24   56 1   
    37   25   26 1   
    38   25   28 1   
    39   25   57 1   
    40   26   58 1   
    41   27   28 1   
    42   28   29 1   
    43   28   59 1   
    44   29   30 1   
    45   29   31 1   
    46   30   37 1   
    47   31   36 1   
    48   32   33 1   
    49   33   61 1   
    50   34   35 1   
    51   35   38 1   
    52   38   39 1   
    53   38   62 1   
    54   39   40 1   
    55   39   63 1   
    56   39   64 1   
    57   40   65 1   
    58   40   66 1   
    59   40   67 1   
@<TRIPOS>SUBSTRUCTURE
     1 619         1 TEMP              0 ****  ****    0 ROOT
