@<TRIPOS>MOLECULE
619
   68    72     1     0     0
SMALL
bcc


@<TRIPOS>ATOM
      1 F30         0.9310   -1.1910    4.5170 f         1 619     -0.119900
      2 C29         1.6500   -0.8350    3.4300 ca        1 619      0.159900
      3 C26         2.9010   -0.2080    3.5890 ca        1 619     -0.162500
      4 C25         3.6320    0.1570    2.4650 ca        1 619     -0.082000
      5 C28         1.1460   -1.0910    2.1390 ca        1 619     -0.162500
      6 C27         1.8930   -0.7240    1.0270 ca        1 619     -0.082000
      7 C24         3.1390   -0.0960    1.1770 cp        1 619     -0.095000
      8 C22         3.9160    0.2900    0.0020 cp        1 619      0.000000
      9 C21         4.0050   -0.5660   -1.0980 ca        1 619     -0.059000
     10 C23         4.5830    1.5250   -0.0280 ca        1 619     -0.106000
     11 C33         5.3270    1.8820   -1.1510 ca        1 619      0.058100
     12 O34         6.0150    3.0680   -1.2750 oh        1 619     -0.510100
     13 C31         5.4200    1.0200   -2.2690 ca        1 619      0.148100
     14 O32         6.1650    1.3630   -3.3710 oh        1 619     -0.542100
     15 C20         4.7460   -0.2150   -2.2450 ca        1 619     -0.195600
     16 C18         4.7650   -1.2140   -3.3140 c         1 619      0.579700
     17 O19         4.4840   -2.4040   -3.2080 o         1 619     -0.440100
     18 N17         5.1160   -0.7750   -4.7120 ny        1 619     -0.667800
     19 C16         6.5400   -1.1270   -5.0450 c3        1 619      0.166000
     20 C15         6.8890   -0.6570   -6.4130 c2        1 619     -0.234200
     21 C14         7.1150    0.6340   -6.6780 c2        1 619     -0.091200
     22 C6          7.4600    1.1500   -8.0320 c3        1 619      0.124300
     23 C4          6.7820    2.5070   -8.3330 c3        1 619      0.099100
     24 O5          7.7250    3.5140   -8.6070 oh        1 619     -0.580800
     25 C2          5.8540    2.2460   -9.5400 c3        1 619      0.085100
     26 O3          6.3420    2.9000  -10.6950 oh        1 619     -0.590800
     27 O13         7.0830    0.2270   -9.0610 os        1 619     -0.406600
     28 C1          5.9820    0.7210   -9.8380 c3        1 619      0.252800
     29 N10         4.7800   -0.0330   -9.5880 na        1 619     -0.282000
     30 C9          4.2360   -1.0080  -10.4710 cc        1 619      0.431700
     31 C11         3.9260   -0.0070   -8.4750 ca        1 619      0.449800
     32 N40         3.9650    0.7290   -7.3190 nb        1 619     -0.786000
     33 C39         2.9080    0.4780   -6.5090 ca        1 619      0.631900
     34 N38         1.8780   -0.3910   -6.6430 nb        1 619     -0.796000
     35 C35         1.8270   -1.1480   -7.8000 ca        1 619      0.765200
     36 C12         2.8770   -0.9760   -8.7690 ca        1 619     -0.225200
     37 N8          3.1120   -1.5730  -10.0150 nd        1 619     -0.527100
     38 N7          0.8350   -2.0580   -8.0210 nu        1 619     -0.835900
     39 C36        -0.2960   -2.2210   -7.1390 c3        1 619      0.212800
     40 C37        -1.3120   -3.2250   -7.6570 c3        1 619     -0.117100
     41 H26         3.2890   -0.0150    4.6010 ha        1 619      0.163500
     42 H25         4.6140    0.6390    2.5930 ha        1 619      0.139500
     43 H28         0.1670   -1.5800    2.0250 ha        1 619      0.163500
     44 H27         1.4940   -0.9200    0.0200 ha        1 619      0.139500
     45 H21         3.4950   -1.5460   -1.0710 ha        1 619      0.176000
     46 H23         4.5140    2.2110    0.8330 ha        1 619      0.169000
     47 HO34        5.9080    3.5740   -0.4540 ho        1 619      0.456000
     48 HO32        6.5880    2.2260   -3.2100 ho        1 619      0.481000
     49 HN17        4.4900   -1.2460   -5.3800 hn        1 619      0.469300
     50 H16         6.6430   -2.2470   -4.9600 hx        1 619      0.110200
     51 H16A        7.1930   -0.6320   -4.2670 hx        1 619      0.110200
     52 H15         6.9480   -1.4300   -7.1980 ha        1 619      0.176000
     53 H14         7.0800    1.4040   -5.8850 ha        1 619      0.135000
     54 H6          8.5840    1.2380   -8.1150 h1        1 619      0.110700
     55 H4          6.2020    2.8900   -7.4510 h1        1 619      0.103700
     56 HO5         8.1910    3.2770   -9.4240 ho        1 619      0.426000
     57 H2          4.8020    2.5620   -9.3200 h1        1 619      0.090700
     58 HO3         6.1930    3.8470  -10.5670 ho        1 619      0.434000
     59 H1          6.2840    0.5440  -10.9170 h2        1 619      0.128700
     60 H9          4.7200   -1.2360  -11.4310 h5        1 619      0.091800
     61 H39         2.8560    1.1060   -5.5930 h5        1 619      0.039100
     62 HN7         0.8230   -2.5290   -8.9000 hn        1 619      0.468800
     63 H36         0.0830   -2.5580   -6.1300 h1        1 619      0.057700
     64 H36A       -0.8010   -1.2210   -6.9930 h1        1 619      0.057700
     65 H37        -2.1460   -3.2950   -6.9180 hc        1 619      0.055367
     66 H37A       -1.7370   -2.9050   -8.6390 hc        1 619      0.055367
     67 H37B       -0.8590   -4.2390   -7.7780 hc        1 619      0.055367
     68 H172        4.9930    0.2430   -4.8150 hn        1 619      0.469300
@<TRIPOS>BOND
     1    1    2 1   
     2    2    3 ar  
     3    2    5 ar  
     4    3    4 ar  
     5    3   41 1   
     6    4    7 ar  
     7    4   42 1   
     8    5    6 ar  
     9    5   43 1   
    10    6    7 ar  
    11    6   44 1   
    12    7    8 1   
    13    8    9 ar  
    14    8   10 ar  
    15    9   15 ar  
    16    9   45 1   
    17   10   11 ar  
    18   10   46 1   
    19   11   12 1   
    20   11   13 ar  
    21   12   47 1   
    22   13   14 1   
    23   13   15 ar  
    24   14   48 1   
    25   15   16 1   
    26   16   17 2   
    27   16   18 1   
    28   18   19 1   
    29   18   49 1   
    30   18   68 1   
    31   19   20 1   
    32   19   50 1   
    33   19   51 1   
    34   20   21 2   
    35   20   52 1   
    36   21   22 1   
    37   21   53 1   
    38   22   23 1   
    39   22   27 1   
    40   22   54 1   
    41   23   24 1   
    42   23   25 1   
    43   23   55 1   
    44   24   56 1   
    45   25   26 1   
    46   25   28 1   
    47   25   57 1   
    48   26   58 1   
    49   27   28 1   
    50   28   29 1   
    51   28   59 1   
    52   29   30 1   
    53   29   31 1   
    54   30   37 2   
    55   30   60 1   
    56   31   32 ar  
    57   31   36 ar  
    58   32   33 ar  
    59   33   34 ar  
    60   33   61 1   
    61   34   35 ar  
    62   35   36 ar  
    63   35   38 1   
    64   36   37 1   
    65   38   39 1   
    66   38   62 1   
    67   39   40 1   
    68   39   63 1   
    69   39   64 1   
    70   40   65 1   
    71   40   66 1   
    72   40   67 1   
@<TRIPOS>SUBSTRUCTURE
     1 619         1 TEMP              0 ****  ****    0 ROOT
