@<TRIPOS>MOLECULE
61E
   59    63     1     0     0
SMALL
bcc


@<TRIPOS>ATOM
      1 C26         2.3040    0.5620   -1.2620 c3        1 61E      0.090600
      2 N3          3.3190   -0.4150   -0.7990 nx        1 61E     -0.685400
      3 C25         4.6070    0.2640   -0.5080 c3        1 61E      0.090600
      4 C24         2.8280   -1.1780    0.3990 c3        1 61E      0.119800
      5 C23         3.3790   -2.5960    0.4690 c3        1 61E     -0.136400
      6 C22         2.7160   -3.5230   -0.5360 c3        1 61E      0.115400
      7 O4          3.0000   -3.0850   -1.8720 os        1 61E     -0.372900
      8 C20         4.0290   -3.7810   -2.4990 ca        1 61E      0.079100
      9 C18         3.7710   -5.0550   -3.0190 ca        1 61E     -0.145000
     10 C19         5.2750   -3.1460   -2.6800 ca        1 61E      0.056100
     11 O3          5.4410   -1.8940   -2.1110 oh        1 61E     -0.565100
     12 C17         6.3010   -3.7640   -3.4070 ca        1 61E     -0.112000
     13 C15         6.0650   -5.0210   -3.9350 cp        1 61E     -0.044000
     14 C16         4.7900   -5.6820   -3.7410 ca        1 61E      0.005800
     15 N2          4.8220   -6.9590   -4.3300 na        1 61E     -0.072300
     16 C21         3.6810   -7.7830   -4.5640 c3        1 61E      0.025600
     17 C14         6.0710   -7.1110   -4.9660 ca        1 61E      0.017800
     18 C1          6.5640   -8.1880   -5.7010 ca        1 61E     -0.132000
     19 C13         6.8840   -5.9260   -4.7150 cp        1 61E     -0.027000
     20 C4          8.1580   -5.9050   -5.2200 ca        1 61E     -0.084600
     21 C5          9.2450   -4.8700   -5.1390 c         1 61E      0.732100
     22 O1          9.2160   -3.7680   -4.5780 o         1 61E     -0.605500
     23 N1         10.3460   -5.3910   -5.8400 ns        1 61E     -0.616500
     24 C6         10.0640   -6.6830   -6.3710 c         1 61E      0.725100
     25 O2         10.8740   -7.3350   -7.0260 o         1 61E     -0.537500
     26 C3          8.6540   -7.0110   -5.9700 ca        1 61E     -0.147600
     27 C2          7.8790   -8.1400   -6.2100 cp        1 61E      0.079000
     28 C7          8.3720   -9.2870   -6.9810 cp        1 61E     -0.069000
     29 C12         8.3450   -9.2410   -8.3810 ca        1 61E     -0.092000
     30 C11         8.7980  -10.3230   -9.1320 ca        1 61E     -0.123000
     31 C10         9.2860  -11.4630   -8.4920 ca        1 61E     -0.101000
     32 C9          9.3200  -11.5240   -7.1010 ca        1 61E     -0.121000
     33 C8          8.8620  -10.4390   -6.3460 ca        1 61E      0.040400
     34 Cl1         8.9160  -10.5410   -4.6490 cl        1 61E     -0.087400
     35 H26         2.7190    1.1430   -2.1300 hx        1 61E      0.098700
     36 H26A        1.3820    0.0120   -1.5920 hx        1 61E      0.098700
     37 H26B        2.0470    1.2670   -0.4280 hx        1 61E      0.098700
     38 H25         5.0030    0.7160   -1.4560 hx        1 61E      0.098700
     39 H25A        4.4530    1.0630    0.2630 hx        1 61E      0.098700
     40 H25B        5.3430   -0.4990   -0.1340 hx        1 61E      0.098700
     41 H24         3.1200   -0.6030    1.3230 hx        1 61E      0.096700
     42 H24A        1.7020   -1.2200    0.3460 hx        1 61E      0.096700
     43 H23         4.4910   -2.6020    0.3050 hc        1 61E      0.093200
     44 H23A        3.1800   -2.9850    1.5040 hc        1 61E      0.093200
     45 H22         3.0540   -4.5790   -0.3730 h1        1 61E      0.078200
     46 H22A        1.5950   -3.4700   -0.4610 h1        1 61E      0.078200
     47 H18         2.7900   -5.5260   -2.8630 ha        1 61E      0.159000
     48 HO3         6.3020   -1.5560   -2.4020 ho        1 61E      0.443000
     49 H17         7.2780   -3.2700   -3.5580 ha        1 61E      0.189000
     50 H21         2.9800   -7.7010   -3.6910 h1        1 61E      0.059033
     51 H21A        3.1390   -7.4730   -5.5000 h1        1 61E      0.059033
     52 H21B        4.0130   -8.8510   -4.6710 h1        1 61E      0.059033
     53 H1          5.9480   -9.0810   -5.8860 ha        1 61E      0.162000
     54 HN1        11.2130   -4.9270   -5.9440 hn        1 61E      0.355500
     55 H12         7.9700   -8.3380   -8.8880 ha        1 61E      0.141000
     56 H11         8.7770  -10.2730  -10.2310 ha        1 61E      0.146000
     57 H10         9.6500  -12.3160   -9.0860 ha        1 61E      0.147000
     58 H9          9.7100  -12.4210   -6.5960 ha        1 61E      0.156000
     59 H31         3.4920   -1.1040   -1.5650 hn        1 61E      0.498800
@<TRIPOS>BOND
     1    1    2 1   
     2    1   35 1   
     3    1   36 1   
     4    1   37 1   
     5    2    3 1   
     6    2    4 1   
     7    2   59 1   
     8    3   38 1   
     9    3   39 1   
    10    3   40 1   
    11    4    5 1   
    12    4   41 1   
    13    4   42 1   
    14    5    6 1   
    15    5   43 1   
    16    5   44 1   
    17    6    7 1   
    18    6   45 1   
    19    6   46 1   
    20    7    8 1   
    21    8    9 ar  
    22    8   10 ar  
    23    9   14 ar  
    24    9   47 1   
    25   10   11 1   
    26   10   12 ar  
    27   11   48 1   
    28   12   13 ar  
    29   12   49 1   
    30   13   14 ar  
    31   13   19 1   
    32   14   15 1   
    33   15   16 1   
    34   15   17 1   
    35   16   50 1   
    36   16   51 1   
    37   16   52 1   
    38   17   18 ar  
    39   17   19 ar  
    40   18   27 ar  
    41   18   53 1   
    42   19   20 ar  
    43   20   21 1   
    44   20   26 ar  
    45   21   22 2   
    46   21   23 1   
    47   23   24 1   
    48   23   54 1   
    49   24   25 2   
    50   24   26 1   
    51   26   27 ar  
    52   27   28 1   
    53   28   29 ar  
    54   28   33 ar  
    55   29   30 ar  
    56   29   55 1   
    57   30   31 ar  
    58   30   56 1   
    59   31   32 ar  
    60   31   57 1   
    61   32   33 ar  
    62   32   58 1   
    63   33   34 1   
@<TRIPOS>SUBSTRUCTURE
     1 61E         1 TEMP              0 ****  ****    0 ROOT
