@<TRIPOS>MOLECULE
61E
   59    63     1     0     0
SMALL
bcc


@<TRIPOS>ATOM
      1 C26         4.5320   -0.0010   -0.0800 c3        1 61E      0.090100
      2 N3          3.3500   -0.8970   -0.1600 n4        1 61E     -0.685400
      3 C25         2.7630   -1.1120    1.1840 c3        1 61E      0.090100
      4 C24         2.3270   -0.3550   -1.1190 c3        1 61E      0.120800
      5 C23         2.5570   -0.8140   -2.5540 c3        1 61E     -0.136400
      6 C22         2.1390   -2.2580   -2.7710 c3        1 61E      0.116400
      7 O4          2.9270   -3.1270   -1.9440 os        1 61E     -0.374900
      8 C20         3.9670   -3.7690   -2.6090 ca        1 61E      0.078100
      9 C18         3.6910   -4.9450   -3.3150 ca        1 61E     -0.143000
     10 C19         5.2830   -3.2790   -2.4720 ca        1 61E      0.053100
     11 O3          5.4530   -2.1000   -1.7630 oh        1 61E     -0.565100
     12 C17         6.3710   -3.9630   -3.0290 ca        1 61E     -0.112000
     13 C15         6.1210   -5.1320   -3.7260 cp        1 61E     -0.044000
     14 C16         4.7700   -5.6360   -3.8730 ca        1 61E      0.008800
     15 N2          4.7920   -6.8390   -4.5970 na        1 61E     -0.077300
     16 C21         3.6500   -7.5860   -5.0110 c3        1 61E      0.029600
     17 C14         6.1260   -7.1150   -4.9520 ca        1 61E      0.022800
     18 C1          6.6480   -8.1850   -5.6760 ca        1 61E     -0.134000
     19 C13         6.9880   -6.0690   -4.4120 cp        1 61E     -0.029000
     20 C4          8.3360   -6.1720   -4.6370 ca        1 61E     -0.082600
     21 C5          9.4840   -5.2950   -4.2240 c         1 61E      0.732100
     22 O1          9.4540   -4.2470   -3.5680 o         1 61E     -0.605500
     23 N1         10.6490   -5.8960   -4.7320 n         1 61E     -0.616500
     24 C6         10.3510   -7.0950   -5.4420 c         1 61E      0.725100
     25 O2         11.2100   -7.7920   -5.9790 o         1 61E     -0.537500
     26 C3          8.8610   -7.2690   -5.3790 ca        1 61E     -0.148600
     27 C2          8.0390   -8.2670   -5.8920 cp        1 61E      0.080000
     28 C7          8.5620   -9.4040   -6.6580 cp        1 61E     -0.069000
     29 C12         8.8480   -9.2460   -8.0200 ca        1 61E     -0.092000
     30 C11         9.3350  -10.3150   -8.7680 ca        1 61E     -0.124000
     31 C10         9.5440  -11.5540   -8.1630 ca        1 61E     -0.101000
     32 C9          9.2650  -11.7280   -6.8090 ca        1 61E     -0.121000
     33 C8          8.7730  -10.6560   -6.0580 ca        1 61E      0.040400
     34 CL1         8.4420  -10.8960   -4.4070 cl        1 61E     -0.087400
     35 H26         4.9320    0.1640   -1.1170 hx        1 61E      0.098700
     36 H26A        5.3240   -0.4970    0.5420 hx        1 61E      0.098700
     37 H26B        4.2400    0.9780    0.3810 hx        1 61E      0.098700
     38 H25         2.3340   -0.1490    1.5700 hx        1 61E      0.098700
     39 H25A        1.9520   -1.8870    1.1160 hx        1 61E      0.098700
     40 H25B        3.5630   -1.4740    1.8840 hx        1 61E      0.098700
     41 H24         2.3540    0.7690   -1.0620 hx        1 61E      0.096200
     42 H24A        1.3110   -0.7060   -0.7760 hx        1 61E      0.096200
     43 H23         3.6350   -0.6890   -2.8450 hc        1 61E      0.093700
     44 H23A        1.9380   -0.1560   -3.2220 hc        1 61E      0.093700
     45 H22         1.0830   -2.4320   -2.4250 h1        1 61E      0.077200
     46 H22A        2.2290   -2.5320   -3.8530 h1        1 61E      0.077200
     47 H18         2.6570   -5.3040   -3.4040 ha        1 61E      0.160000
     48 HO3         6.4050   -1.9220   -1.7230 ho        1 61E      0.443000
     49 H17         7.4050   -3.5880   -2.9200 ha        1 61E      0.188000
     50 H21         2.8360   -7.4830   -4.2440 h1        1 61E      0.059033
     51 H21A        3.2690   -7.2130   -6.0020 h1        1 61E      0.059033
     52 H21B        3.9270   -8.6700   -5.1120 h1        1 61E      0.059033
     53 H1          5.9930   -8.9730   -6.0790 ha        1 61E      0.162000
     54 HN1        11.5630   -5.5410   -4.6040 hn        1 61E      0.355500
     55 H12         8.6940   -8.2660   -8.4980 ha        1 61E      0.141000
     56 H11         9.5620  -10.1780   -9.8370 ha        1 61E      0.146000
     57 H10         9.9350  -12.3980   -8.7520 ha        1 61E      0.147000
     58 H9          9.4360  -12.7050   -6.3300 ha        1 61E      0.156000
     59 H31         3.6760   -1.8170   -0.5330 hn        1 61E      0.497800
@<TRIPOS>BOND
     1    1    2 1   
     2    1   35 1   
     3    1   36 1   
     4    1   37 1   
     5    2    3 1   
     6    2    4 1   
     7    2   59 1   
     8    3   38 1   
     9    3   39 1   
    10    3   40 1   
    11    4    5 1   
    12    4   41 1   
    13    4   42 1   
    14    5    6 1   
    15    5   43 1   
    16    5   44 1   
    17    6    7 1   
    18    6   45 1   
    19    6   46 1   
    20    7    8 1   
    21    8    9 ar  
    22    8   10 ar  
    23    9   14 ar  
    24    9   47 1   
    25   10   11 1   
    26   10   12 ar  
    27   11   48 1   
    28   12   13 ar  
    29   12   49 1   
    30   13   14 ar  
    31   13   19 1   
    32   14   15 1   
    33   15   16 1   
    34   15   17 1   
    35   16   50 1   
    36   16   51 1   
    37   16   52 1   
    38   17   18 ar  
    39   17   19 ar  
    40   18   27 ar  
    41   18   53 1   
    42   19   20 ar  
    43   20   21 1   
    44   20   26 ar  
    45   21   22 2   
    46   21   23 1   
    47   23   24 1   
    48   23   54 1   
    49   24   25 2   
    50   24   26 1   
    51   26   27 ar  
    52   27   28 1   
    53   28   29 ar  
    54   28   33 ar  
    55   29   30 ar  
    56   29   55 1   
    57   30   31 ar  
    58   30   56 1   
    59   31   32 ar  
    60   31   57 1   
    61   32   33 ar  
    62   32   58 1   
    63   33   34 1   
@<TRIPOS>SUBSTRUCTURE
     1 61E         1 TEMP              0 ****  ****    0 ROOT
