@<TRIPOS>MOLECULE
61E
   59    63     1     0     0
SMALL
bcc


@<TRIPOS>ATOM
      1 C26         4.4010    0.1140   -0.2980 c3        1 61E      0.090100
      2 N3          3.2940   -0.8730   -0.2310 n4        1 61E     -0.685400
      3 C25         2.8320   -1.0500    1.1670 c3        1 61E      0.090100
      4 C24         2.1580   -0.4720   -1.1310 c3        1 61E      0.120800
      5 C23         2.3120   -0.9980   -2.5520 c3        1 61E     -0.136400
      6 C22         1.9980   -2.4810   -2.6540 c3        1 61E      0.116400
      7 O4          2.9160   -3.2350   -1.8490 os        1 61E     -0.374900
      8 C20         3.9510   -3.8350   -2.5610 ca        1 61E      0.078100
      9 C18         3.7170   -5.0700   -3.1750 ca        1 61E     -0.143000
     10 C19         5.2290   -3.2380   -2.5590 ca        1 61E      0.053100
     11 O3          5.3560   -2.0080   -1.9330 oh        1 61E     -0.565100
     12 C17         6.3220   -3.8690   -3.1650 ca        1 61E     -0.112000
     13 C15         6.1150   -5.0950   -3.7740 cp        1 61E     -0.044000
     14 C16         4.8020   -5.7090   -3.7810 ca        1 61E      0.008800
     15 N2          4.8650   -6.9490   -4.4380 na        1 61E     -0.077300
     16 C21         3.7590   -7.8050   -4.7150 c3        1 61E      0.029600
     17 C14         6.1860   -7.1430   -4.8850 ca        1 61E      0.022800
     18 C1          6.7350   -8.2130   -5.5900 ca        1 61E     -0.134000
     19 C13         6.9990   -6.0030   -4.4760 cp        1 61E     -0.029000
     20 C4          8.3300   -6.0160   -4.8050 ca        1 61E     -0.082600
     21 C5          9.4310   -5.0300   -4.5360 c         1 61E      0.732100
     22 O1          9.3670   -3.9490   -3.9390 o         1 61E     -0.605500
     23 N1         10.5980   -5.5700   -5.1040 n         1 61E     -0.616500
     24 C6         10.3450   -6.8290   -5.7200 c         1 61E      0.725100
     25 O2         11.2130   -7.4900   -6.2870 o         1 61E     -0.537500
     26 C3          8.8830   -7.1140   -5.5260 ca        1 61E     -0.148600
     27 C2          8.1080   -8.2010   -5.9140 cp        1 61E      0.080000
     28 C7          8.6600   -9.3390   -6.6570 cp        1 61E     -0.069000
     29 C12         8.8260   -9.2430   -8.0450 ca        1 61E     -0.092000
     30 C11         9.3390  -10.3160   -8.7700 ca        1 61E     -0.124000
     31 C10         9.6940  -11.4960   -8.1170 ca        1 61E     -0.101000
     32 C9          9.5360  -11.6080   -6.7380 ca        1 61E     -0.121000
     33 C8          9.0170  -10.5320   -6.0080 ca        1 61E      0.040400
     34 CL1         8.8350  -10.6960   -4.3250 cl        1 61E     -0.087400
     35 H26         5.2770   -0.2810    0.2820 hx        1 61E      0.098700
     36 H26A        4.7040    0.2450   -1.3730 hx        1 61E      0.098700
     37 H26B        4.0670    1.0940    0.1310 hx        1 61E      0.098700
     38 H25         3.7110   -1.3050    1.8170 hx        1 61E      0.098700
     39 H25A        2.3580   -0.1010    1.5330 hx        1 61E      0.098700
     40 H25B        2.0850   -1.8870    1.2080 hx        1 61E      0.098700
     41 H24         1.2040   -0.8780   -0.6860 hx        1 61E      0.096200
     42 H24A        2.0980    0.6530   -1.1380 hx        1 61E      0.096200
     43 H23         1.5920   -0.4320   -3.2020 hc        1 61E      0.093700
     44 H23A        3.3510   -0.8090   -2.9380 hc        1 61E      0.093700
     45 H22         0.9900   -2.7140   -2.2140 h1        1 61E      0.077200
     46 H22A        2.0270   -2.8130   -3.7240 h1        1 61E      0.077200
     47 H18         2.7110   -5.5120   -3.1590 ha        1 61E      0.160000
     48 HO3         6.2920   -1.7550   -1.9810 ho        1 61E      0.443000
     49 H17         7.3270   -3.4110   -3.1620 ha        1 61E      0.188000
     50 H21         3.0020   -7.7180   -3.8900 h1        1 61E      0.059033
     51 H21A        3.2730   -7.5230   -5.6900 h1        1 61E      0.059033
     52 H21B        4.1140   -8.8680   -4.7780 h1        1 61E      0.059033
     53 H1          6.1170   -9.0720   -5.8930 ha        1 61E      0.162000
     54 HN1        11.4880   -5.1390   -5.0710 hn        1 61E      0.355500
     55 H12         8.5560   -8.3090   -8.5610 ha        1 61E      0.141000
     56 H11         9.4700  -10.2270   -9.8600 ha        1 61E      0.146000
     57 H10        10.1050  -12.3420   -8.6900 ha        1 61E      0.147000
     58 H9          9.8210  -12.5370   -6.2210 ha        1 61E      0.156000
     59 H31         3.6630   -1.7870   -0.5780 hn        1 61E      0.497800
@<TRIPOS>BOND
     1    1    2 1   
     2    1   35 1   
     3    1   36 1   
     4    1   37 1   
     5    2    3 1   
     6    2    4 1   
     7    2   59 1   
     8    3   38 1   
     9    3   39 1   
    10    3   40 1   
    11    4    5 1   
    12    4   41 1   
    13    4   42 1   
    14    5    6 1   
    15    5   43 1   
    16    5   44 1   
    17    6    7 1   
    18    6   45 1   
    19    6   46 1   
    20    7    8 1   
    21    8    9 ar  
    22    8   10 ar  
    23    9   14 ar  
    24    9   47 1   
    25   10   11 1   
    26   10   12 ar  
    27   11   48 1   
    28   12   13 ar  
    29   12   49 1   
    30   13   14 ar  
    31   13   19 1   
    32   14   15 1   
    33   15   16 1   
    34   15   17 1   
    35   16   50 1   
    36   16   51 1   
    37   16   52 1   
    38   17   18 ar  
    39   17   19 ar  
    40   18   27 ar  
    41   18   53 1   
    42   19   20 ar  
    43   20   21 1   
    44   20   26 ar  
    45   21   22 2   
    46   21   23 1   
    47   23   24 1   
    48   23   54 1   
    49   24   25 2   
    50   24   26 1   
    51   26   27 ar  
    52   27   28 1   
    53   28   29 ar  
    54   28   33 ar  
    55   29   30 ar  
    56   29   55 1   
    57   30   31 ar  
    58   30   56 1   
    59   31   32 ar  
    60   31   57 1   
    61   32   33 ar  
    62   32   58 1   
    63   33   34 1   
@<TRIPOS>SUBSTRUCTURE
     1 61E         1 TEMP              0 ****  ****    0 ROOT
