@<TRIPOS>MOLECULE
61E
   58    62     1     0     0
SMALL
bcc


@<TRIPOS>ATOM
      1 C26         9.9240    2.4130    0.5610 c3        1 61E      0.155100
      2 N3          9.2110    1.1760    0.3260 n3        1 61E     -0.736600
      3 C25         9.7100    0.0790    1.1240 c3        1 61E      0.155100
      4 C24         7.7680    1.3530    0.4140 c3        1 61E      0.173800
      5 C23         6.9700    0.1400   -0.0580 c3        1 61E     -0.090400
      6 C22         5.5060    0.5290   -0.1770 c3        1 61E      0.134400
      7 O4          4.8140   -0.6720   -0.5480 os        1 61E     -0.346900
      8 C20         3.4350   -0.6220   -0.4530 ca        1 61E      0.084100
      9 C18         2.6980    0.5660   -0.4420 ca        1 61E     -0.192000
     10 C19         2.8030   -1.8900   -0.4050 ca        1 61E      0.082100
     11 O3          3.5150   -3.0680   -0.4290 oh        1 61E     -0.490100
     12 C17         1.4080   -1.9980   -0.3480 ca        1 61E     -0.065000
     13 C15         0.6600   -0.8300   -0.3390 cp        1 61E     -0.086000
     14 C16         1.3070    0.4600   -0.3810 ca        1 61E     -0.003200
     15 N2          0.3380    1.4900   -0.2970 na        1 61E     -0.071300
     16 C21         0.5730    2.8340   -0.7160 c3        1 61E      0.025600
     17 C14        -0.9320    0.8770   -0.3100 ca        1 61E      0.007800
     18 C1         -2.1920    1.4670   -0.2870 ca        1 61E     -0.141000
     19 C13        -0.7680   -0.5770   -0.2890 cp        1 61E      0.006000
     20 C4         -1.9020   -1.3420   -0.2310 ca        1 61E     -0.095600
     21 C5         -2.0990   -2.8280   -0.1790 c         1 61E      0.727100
     22 O1         -1.2560   -3.7290   -0.1790 o         1 61E     -0.579500
     23 N1         -3.4930   -3.0460   -0.1280 n         1 61E     -0.624500
     24 C6         -4.2120   -1.8220   -0.1410 c         1 61E      0.727100
     25 O2         -5.4420   -1.7600   -0.1080 o         1 61E     -0.567500
     26 C3         -3.1910   -0.7250   -0.2060 ca        1 61E     -0.153600
     27 C2         -3.3440    0.6530   -0.2320 cp        1 61E      0.056000
     28 C7         -4.6580    1.3050   -0.2210 cp        1 61E     -0.047000
     29 C12        -5.3770    1.4270   -1.4180 ca        1 61E     -0.093000
     30 C11        -6.6200    2.0560   -1.4360 ca        1 61E     -0.128000
     31 C10        -7.1610    2.5690   -0.2580 ca        1 61E     -0.111000
     32 C9         -6.4600    2.4560    0.9410 ca        1 61E     -0.126000
     33 C8         -5.2110    1.8270    0.9600 ca        1 61E      0.039400
     34 CL1        -4.3810    1.7040    2.4400 cl        1 61E     -0.086400
     35 H26        11.0190    2.2350    0.3980 h1        1 61E      0.032700
     36 H26A        9.5730    3.1830   -0.1750 h1        1 61E      0.032700
     37 H26B        9.7780    2.8190    1.6000 h1        1 61E      0.032700
     38 H25         9.4770    0.1850    2.2190 h1        1 61E      0.032700
     39 H25A        9.2540   -0.8750    0.7520 h1        1 61E      0.032700
     40 H25B       10.8230    0.0130    1.0020 h1        1 61E      0.032700
     41 H24         7.4450    1.6020    1.4690 h1        1 61E      0.029700
     42 H24A        7.4990    2.2320   -0.2380 h1        1 61E      0.029700
     43 H23         7.3430   -0.2220   -1.0510 hc        1 61E      0.066200
     44 H23A        7.0700   -0.7070    0.6700 hc        1 61E      0.066200
     45 H22         5.1050    0.9160    0.7960 h1        1 61E      0.042200
     46 H22A        5.3540    1.2950   -0.9820 h1        1 61E      0.042200
     47 H18         3.1940    1.5440   -0.4800 ha        1 61E      0.145000
     48 HO3         4.4590   -2.8500   -0.4060 ho        1 61E      0.434000
     49 H17         0.9270   -2.9910   -0.3090 ha        1 61E      0.191000
     50 H21         0.5570    2.9320   -1.8360 h1        1 61E      0.050700
     51 H21A       -0.2220    3.4980   -0.2820 h1        1 61E      0.050700
     52 H21B        1.5770    3.1630   -0.3370 h1        1 61E      0.050700
     53 H1         -2.3070    2.5610   -0.3010 ha        1 61E      0.152000
     54 HN1        -3.9160   -3.9370   -0.0760 hn        1 61E      0.347500
     55 H12        -4.9550    1.0130   -2.3460 ha        1 61E      0.142000
     56 H11        -7.1760    2.1400   -2.3810 ha        1 61E      0.139000
     57 H10        -8.1450    3.0610   -0.2710 ha        1 61E      0.139000
     58 H9         -6.8900    2.8550    1.8720 ha        1 61E      0.149000
@<TRIPOS>BOND
     1    1    2 1   
     2    1   35 1   
     3    1   36 1   
     4    1   37 1   
     5    2    3 1   
     6    2    4 1   
     7    3   38 1   
     8    3   39 1   
     9    3   40 1   
    10    4    5 1   
    11    4   41 1   
    12    4   42 1   
    13    5    6 1   
    14    5   43 1   
    15    5   44 1   
    16    6    7 1   
    17    6   45 1   
    18    6   46 1   
    19    7    8 1   
    20    8    9 ar  
    21    8   10 ar  
    22    9   14 ar  
    23    9   47 1   
    24   10   11 1   
    25   10   12 ar  
    26   11   48 1   
    27   12   13 ar  
    28   12   49 1   
    29   13   14 ar  
    30   13   19 1   
    31   14   15 1   
    32   15   16 1   
    33   15   17 1   
    34   16   50 1   
    35   16   51 1   
    36   16   52 1   
    37   17   18 ar  
    38   17   19 ar  
    39   18   27 ar  
    40   18   53 1   
    41   19   20 ar  
    42   20   21 1   
    43   20   26 ar  
    44   21   22 2   
    45   21   23 1   
    46   23   24 1   
    47   23   54 1   
    48   24   25 2   
    49   24   26 1   
    50   26   27 ar  
    51   27   28 1   
    52   28   29 ar  
    53   28   33 ar  
    54   29   30 ar  
    55   29   55 1   
    56   30   31 ar  
    57   30   56 1   
    58   31   32 ar  
    59   31   57 1   
    60   32   33 ar  
    61   32   58 1   
    62   33   34 1   
@<TRIPOS>SUBSTRUCTURE
     1 61E         1 TEMP              0 ****  ****    0 ROOT
