@<TRIPOS>MOLECULE
61E
   58    51     1     0     0
SMALL
bcc


@<TRIPOS>ATOM
      1 C26        -1.9140    8.0430    1.1230 c3        1 61E     -0.120000
      2 N3         -2.5360    7.1490    2.1240 n3        1 61E     -0.262000
      3 C25        -3.8060    7.6740    2.4930 c3        1 61E     -0.120000
      4 C24        -2.7100    5.7920    1.5480 c3        1 61E     -0.064000
      5 C23        -2.0390    4.7710    2.4470 c3        1 61E     -0.171000
      6 C22        -1.6910    3.5410    1.6360 c3        1 61E     -0.014000
      7 O4         -0.9220    2.6300    2.4520 os        1 61E     -0.215000
      8 C20        -0.5080    1.4450    1.7730 c2        1 61E      0.103000
      9 C18        -1.2200    0.4620    1.0730 c2        1 61E     -0.163000
     10 C19         0.8670    1.3340    1.9170 c1        1 61E     -0.007000
     11 O3          1.7650    2.3350    1.4710 o         1 61E     -0.262000
     12 C17         1.5620    0.2130    1.3490 c2        1 61E     -0.113000
     13 C15         0.8520   -0.7690    0.6490 c1        1 61E     -0.087000
     14 C16        -0.5270   -0.6570    0.5060 c1        1 61E      0.047000
     15 N2         -0.9670   -1.7250   -0.2390 n1        1 61E     -0.184000
     16 C21        -2.2490   -2.2190   -0.1630 c2        1 61E     -0.072000
     17 C14         0.1460   -2.5190   -0.5670 c1        1 61E      0.059000
     18 C1          0.2800   -3.5970   -1.4870 c1        1 61E     -0.142000
     19 C13         1.2620   -1.9360   -0.0250 c1        1 61E      0.004000
     20 C4          2.5590   -2.4110   -0.3850 c1        1 61E     -0.077000
     21 C5          3.9490   -1.8640   -0.1050 c2        1 61E      0.368000
     22 O1          4.2090   -0.9990    0.6260 o         1 61E     -0.318000
     23 N1          4.9000   -2.6400   -0.8780 n         1 61E     -0.404000
     24 C6          4.1720   -3.5840   -1.6550 c2        1 61E      0.364000
     25 O2          4.6400   -4.3750   -2.4100 o         1 61E     -0.290000
     26 C3          2.6870   -3.4610   -1.2810 c2        1 61E     -0.134000
     27 C2          1.5350   -4.0580   -1.8370 c1        1 61E      0.058000
     28 C7          1.4840   -5.3610   -2.4150 c1        1 61E     -0.048000
     29 C12         1.5810   -6.4910   -1.6030 c1        1 61E     -0.114750
     30 C11         1.5940   -7.7620   -2.1780 c1        1 61E     -0.114750
     31 C10         1.5100   -7.9000   -3.5590 c1        1 61E     -0.114750
     32 C9          1.4140   -6.7770   -4.3620 c1        1 61E     -0.114750
     33 C8          1.4010   -5.5020   -3.7880 c1        1 61E     -0.039000
     34 CL1         1.4960   -4.1020   -4.8060 cl        1 61E     -0.008000
     35 H26        -0.9860    7.8230    1.0260 h1        1 61E      0.070500
     36 H26A       -2.3600    7.9370    0.2780 h1        1 61E      0.070500
     37 H26B       -2.0010    9.0050    1.4330 h1        1 61E      0.070500
     38 H25        -4.2020    7.1120    3.2310 h1        1 61E      0.070500
     39 H25A       -3.6980    8.6050    2.8090 h1        1 61E      0.070500
     40 H25B       -4.4060    7.6610    1.7130 h1        1 61E      0.070500
     41 H24        -3.6560    5.5900    1.4770 h1        1 61E      0.070500
     42 H24A       -2.3050    5.7590    0.6670 h1        1 61E      0.070500
     43 H23        -2.6650    4.5160    3.1980 hc        1 61E      0.100500
     44 H23A       -1.2150    5.1560    2.8230 hc        1 61E      0.100500
     45 H22        -1.1430    3.8160    0.8250 h1        1 61E      0.093500
     46 H22A       -2.5080    3.1020    1.3410 h1        1 61E      0.093500
     47 H18        -2.1470    0.5970    0.8760 ha        1 61E      0.158000
     48 HO3         2.2110    2.6790    2.1830 ho        1 61E      0.225000
     49 H17         2.4970    0.1390    1.4470 ha        1 61E      0.175000
     50 H21        -2.3040   -3.0450   -0.6580 ha        1 61E      0.091667
     51 H21A       -2.4780   -2.3810    0.7580 ha        1 61E      0.091667
     52 H21B       -2.8680   -1.5700   -0.5430 ha        1 61E      0.091667
     53 H1         -0.4900   -4.0160   -1.8350 ha        1 61E      0.153000
     54 HN1         5.7730   -2.5310   -0.8830 hn        1 61E      0.261000
     55 H12         1.6380   -6.3960   -0.6650 ha        1 61E      0.142250
     56 H11         1.6620   -8.5480   -1.6180 ha        1 61E      0.142250
     57 H10         1.5180   -8.8200   -3.9750 ha        1 61E      0.142250
     58 H9          1.3560   -6.8760   -5.3510 ha        1 61E      0.142250
@<TRIPOS>BOND
     1    1    2 1   
     2    1   35 1   
     3    1   36 1   
     4    1   37 1   
     5    2    3 1   
     6    2    4 1   
     7    3   38 1   
     8    3   39 1   
     9    3   40 1   
    10    4    5 1   
    11    4   41 1   
    12    4   42 1   
    13    5    6 1   
    14    5   43 1   
    15    5   44 1   
    16    6    7 1   
    17    6   45 1   
    18    6   46 1   
    19    7    8 1   
    20    8    9 1   
    21    8   10 1   
    22    9   14 1   
    23    9   47 1   
    24   10   12 1   
    25   11   48 1   
    26   12   13 1   
    27   12   49 1   
    28   15   17 1   
    29   16   50 1   
    30   16   51 1   
    31   16   52 1   
    32   17   19 1   
    33   18   27 1   
    34   18   53 1   
    35   20   21 1   
    36   20   26 1   
    37   21   22 1   
    38   21   23 1   
    39   23   24 1   
    40   23   54 1   
    41   24   25 1   
    42   24   26 1   
    43   26   27 1   
    44   28   33 1   
    45   29   30 1   
    46   29   55 1   
    47   30   56 1   
    48   31   32 1   
    49   31   57 1   
    50   32   58 1   
    51   33   34 1   
@<TRIPOS>SUBSTRUCTURE
     1 61E         1 TEMP              0 ****  ****    0 ROOT
