@<TRIPOS>MOLECULE
61K
   51    43     1     0     0
SMALL
bcc


@<TRIPOS>ATOM
      1 N1         -1.3540   -4.7770   -8.3530 n2        1 61K     -0.207000
      2 S1          1.5680    0.7890    8.5090 ss        1 61K      2.871000
      3 N2         -2.2030   -3.0460   -7.3130 n2        1 61K     -0.140000
      4 N3         -0.4610   -1.4360   -3.5700 n         1 61K     -0.369000
      5 N4         -0.2010    3.9250    0.3680 n         1 61K     -0.321000
      6 N5          1.1980    1.4630    1.6610 n1        1 61K      0.064000
      7 N6          0.6290   -0.2250    9.3850 n2        1 61K     -0.953000
      8 N8          0.4120    1.7890    2.7580 n2        1 61K     -0.242000
      9 OAB         0.7130    0.3500   -4.4490 o         1 61K     -0.362000
     10 OAC         1.7270    4.7700    0.5990 o         1 61K     -0.345000
     11 OAD         2.9600    0.4410    8.6250 o         1 61K     -0.939000
     12 OAE         1.5640    2.1130    9.0650 o         1 61K     -0.939000
     13 CAF         1.3010    0.1860    4.4600 c1        1 61K     -0.180000
     14 CAG         0.4760    2.3700    5.0360 c1        1 61K     -0.097500
     15 CAH         1.3970   -0.1330    5.8110 c1        1 61K      0.010000
     16 CAI         0.5720    2.0520    6.3870 c1        1 61K     -0.097500
     17 CAJ        -1.2740    1.3350   -2.1060 c1        1 61K     -0.061000
     18 CAK        -1.4720    2.3000   -1.1330 c1        1 61K     -0.177000
     19 CAL        -2.2490   -3.7660   -8.4580 c1        1 61K     -0.101000
     20 CAM        -0.7630   -4.6830   -7.1610 c1        1 61K     -0.155000
     21 CAN         0.9850    1.0690   -1.3700 c1        1 61K     -0.013000
     22 CAO        -0.2010   -2.2710   -4.7230 c3        1 61K     -0.029000
     23 CAP        -1.4930   -2.9640   -5.1550 c3        1 61K     -0.106000
     24 CAW         0.1180   -0.1120   -3.4910 c2        1 61K      0.340000
     25 CAX         0.8410    1.4350    4.0730 c1        1 61K      0.153000
     26 CAY        -0.0510    0.7210   -2.2250 c1        1 61K     -0.155000
     27 CAZ        -1.2920   -3.6030   -6.5120 c2        1 61K     -0.126000
     28 CBA         1.0320    0.8020    6.7740 c1        1 61K     -0.864000
     29 CBB         1.1020    3.8670    1.1180 c2        1 61K      0.333000
     30 CBC         1.5720    2.3930    0.8290 c2        1 61K     -0.147000
     31 CBD        -0.4090    2.6560   -0.2570 c2        1 61K      0.087000
     32 CBE         0.7800    2.0580   -0.3730 c2        1 61K     -0.083000
     33 HN3        -0.9530   -1.7610   -2.8710 hn        1 61K      0.218000
     34 HN4        -0.7550    4.6460    0.3130 hn        1 61K      0.262000
     35 HN6         1.0000   -0.9590    9.7860 hn        1 61K      0.242000
     36 HN6A       -0.2410   -0.0160    9.5420 hn        1 61K      0.242000
     37 HN8        -0.3970    2.1800    2.6360 hn        1 61K      0.260000
     38 HAF         1.5580   -0.4720    3.7820 ha        1 61K      0.164000
     39 HAG         0.1510    3.2510    4.7630 ha        1 61K      0.152500
     40 HAH         1.7190   -1.0070    6.0810 ha        1 61K      0.156000
     41 HAI         0.3160    2.7060    7.0610 ha        1 61K      0.152500
     42 HAJ        -2.0130    1.0870   -2.7140 ha        1 61K      0.144000
     43 HAK        -2.3380    2.7340   -1.0480 ha        1 61K      0.147000
     44 HAL        -2.8230   -3.5890   -9.2200 DU        1 61K      0.210333
     45 HAM        -0.0790   -5.2760   -6.8160 DU        1 61K      0.210333
     46 HAN         1.8520    0.6360   -1.4540 ha        1 61K      0.172000
     47 HAO         0.1330   -1.7150   -5.4610 h1        1 61K      0.112000
     48 HAOA        0.4700   -2.9460   -4.4930 h1        1 61K      0.112000
     49 HAP        -2.2140   -2.3070   -5.2070 hc        1 61K      0.093500
     50 HAPA       -1.7260   -3.6520   -4.5020 hc        1 61K      0.093500
     51 HN1        -1.1850   -5.4100   -8.9860 DU        1 61K      0.210333
@<TRIPOS>BOND
     1    1   19 1   
     2    1   20 1   
     3    2   11 1   
     4    2   12 1   
     5    3   19 1   
     6    3   27 1   
     7    4   22 1   
     8    4   24 1   
     9    4   33 1   
    10    5   29 1   
    11    5   31 1   
    12    5   34 1   
    13    6   30 1   
    14    7   35 1   
    15    7   36 1   
    16    8   25 1   
    17    8   37 1   
    18    9   24 1   
    19   10   29 1   
    20   13   25 1   
    21   13   38 1   
    22   14   16 1   
    23   14   39 1   
    24   15   28 1   
    25   15   40 1   
    26   16   41 1   
    27   17   26 1   
    28   17   42 1   
    29   18   31 1   
    30   18   43 1   
    31   20   27 1   
    32   21   32 1   
    33   21   46 1   
    34   22   23 1   
    35   22   47 1   
    36   22   48 1   
    37   23   27 1   
    38   23   49 1   
    39   23   50 1   
    40   24   26 1   
    41   29   30 1   
    42   30   32 1   
    43   31   32 1   
@<TRIPOS>SUBSTRUCTURE
     1 61K         1 TEMP              0 ****  ****    0 ROOT
