@<TRIPOS>MOLECULE
61K
   53    56     1     0     0
SMALL
bcc


@<TRIPOS>ATOM
      1 N1          1.1130    2.0560    1.4240 na        1 61K     -0.300900
      2 S1          8.0500  -10.8730   10.4290 sy        1 61K      1.502200
      3 N2          1.5000    1.3310    3.5420 nc        1 61K     -0.692000
      4 N3          0.2370   -2.4610    5.2590 n4        1 61K     -0.676800
      5 N4          4.1280   -1.5550   10.4890 n         1 61K     -0.445100
      6 N5          4.8610   -5.0560    9.7750 n2        1 61K     -0.329400
      7 N6          6.9390  -11.8520   11.6680 n4        1 61K     -0.786500
      8 N8          5.7310   -5.5350   10.6560 nh        1 61K     -0.426700
      9 OAB         1.4320   -4.4160    5.4750 o         1 61K     -0.444100
     10 OAC         5.6130   -2.8410   11.7910 o         1 61K     -0.554500
     11 OAD         9.2560  -10.9790   11.0860 o         1 61K     -0.567300
     12 OAE         7.7730  -11.5770    9.2760 o         1 61K     -0.567300
     13 CAF         7.2190   -7.2270   11.5330 ca        1 61K     -0.200000
     14 CAG         5.7890   -7.7940    9.6290 ca        1 61K     -0.200000
     15 CAH         7.7520   -8.4940   11.4940 ca        1 61K      0.049000
     16 CAI         6.3370   -9.0570    9.6200 ca        1 61K      0.049000
     17 CAJ         1.8180   -1.4090    7.5560 ca        1 61K     -0.019000
     18 CAK         2.4990   -0.9250    8.6680 ca        1 61K     -0.170000
     19 CAL         1.8360    2.2440    2.6100 cd        1 61K      0.423400
     20 CAM         0.2790    0.9630    1.6230 cd        1 61K     -0.192600
     21 CAN         2.8200   -3.6280    7.8200 ca        1 61K      0.034000
     22 CAO         0.8630   -1.5060    4.2890 c3        1 61K      0.105800
     23 CAW         1.2820   -3.3010    5.9640 c         1 61K      0.578700
     24 CAX         6.2240   -6.8350   10.5870 ca        1 61K      0.311600
     25 CAY         1.9610   -2.7390    7.1240 ca        1 61K     -0.249600
     26 CAZ         0.5240    0.5190    2.9410 cc        1 61K      0.229600
     27 CBA         7.3380   -9.4580   10.5410 ca        1 61K     -0.611500
     28 CBB         4.8340   -2.7280   10.8430 c         1 61K      0.602200
     29 CBC         4.4510   -3.8160    9.8410 cc        1 61K      0.345900
     30 CBD         3.3470   -1.7970    9.3650 ca        1 61K      0.157600
     31 CBE         3.4990   -3.1660    8.9220 ca        1 61K     -0.196900
     32 HN3        -0.3980   -3.0870    4.7450 hn        1 61K      0.458300
     33 HN4         4.1940   -0.6880   10.9670 hn        1 61K      0.377500
     34 HN6         6.4940  -12.6370   11.1960 hn        1 61K      0.454467
     35 HN6A        7.5070  -12.2290   12.4250 hn        1 61K      0.454467
     36 HN8         6.1140   -4.9400   11.3840 hn        1 61K      0.482800
     37 HAF         7.5810   -6.5110   12.2930 ha        1 61K      0.181000
     38 HAG         5.0210   -7.5320    8.8820 ha        1 61K      0.181000
     39 HAH         8.5480   -8.7640   12.2160 ha        1 61K      0.173000
     40 HAI         6.0020   -9.7810    8.8510 ha        1 61K      0.173000
     41 HAJ         1.1700   -0.6950    7.0200 ha        1 61K      0.148000
     42 HAK         2.3740    0.1220    8.9860 ha        1 61K      0.182000
     43 HAL         2.5740    3.0470    2.7350 h5        1 61K      0.082100
     44 HAM        -0.4050    0.5950    0.8580 h4        1 61K      0.195000
     45 HAN         2.9350   -4.6700    7.4710 ha        1 61K      0.181000
     46 HAO         1.6330   -0.9040    4.8550 hx        1 61K      0.120200
     47 HAOA        1.3910   -2.1150    3.5000 hx        1 61K      0.120200
     48 HAP        -0.7940   -1.1560    2.9050 hc        1 61K      0.068700
     49 HAPA       -0.8540   -0.1460    4.4170 hc        1 61K      0.068700
     50 HN1         1.1710    2.6040    0.6040 hn        1 61K      0.325700
     51 CAP        -0.1670   -0.5820    3.6390 c3        1 61K     -0.098700
     52 H32        -0.3120   -1.9370    5.9480 hn        1 61K      0.458300
     53 H63         6.2100  -11.2790   12.0780 hn        1 61K      0.454467
@<TRIPOS>BOND
     1    1   19 1   
     2    1   20 1   
     3    1   50 1   
     4    2    7 1   
     5    2   11 2   
     6    2   12 2   
     7    2   27 1   
     8    3   19 2   
     9    3   26 1   
    10    4   22 1   
    11    4   23 1   
    12    4   32 1   
    13    4   52 1   
    14    5   28 1   
    15    5   30 1   
    16    5   33 1   
    17    6    8 1   
    18    6   29 2   
    19    7   34 1   
    20    7   35 1   
    21    7   53 1   
    22    8   24 1   
    23    8   36 1   
    24    9   23 2   
    25   10   28 2   
    26   13   15 ar  
    27   13   24 ar  
    28   13   37 1   
    29   14   16 ar  
    30   14   24 ar  
    31   14   38 1   
    32   15   27 ar  
    33   15   39 1   
    34   16   27 ar  
    35   16   40 1   
    36   17   18 ar  
    37   17   25 ar  
    38   17   41 1   
    39   18   30 ar  
    40   18   42 1   
    41   19   43 1   
    42   20   26 2   
    43   20   44 1   
    44   21   25 ar  
    45   21   31 ar  
    46   21   45 1   
    47   22   46 1   
    48   22   47 1   
    49   22   51 1   
    50   23   25 1   
    51   26   51 1   
    52   28   29 1   
    53   29   31 1   
    54   30   31 ar  
    55   48   51 1   
    56   49   51 1   
@<TRIPOS>SUBSTRUCTURE
     1 61K         1 TEMP              0 ****  ****    0 ROOT
