@<TRIPOS>MOLECULE
61K
   51    54     1     0     0
SMALL
bcc


@<TRIPOS>ATOM
      1 N1          9.2720   -3.4140   -0.6920 na        1 61K     -0.320900
      2 S1         -7.0490   -2.6260   -0.0940 sy        1 61K      1.532200
      3 N2          8.8070   -1.9030    0.9410 nc        1 61K     -0.666000
      4 N3          4.8600    0.2540    0.6770 n         1 61K     -0.564900
      5 N4          0.1230    4.6290    0.1460 n         1 61K     -0.467100
      6 N5         -1.6980    1.4800    0.0020 n2        1 61K     -0.308400
      7 N6         -7.2910   -2.8830   -1.6570 n3        1 61K     -1.026700
      8 N8         -2.9950    1.6860    0.0120 nh        1 61K     -0.441700
      9 OAB         3.4160   -0.7090   -0.8240 o         1 61K     -0.605100
     10 OAC        -2.2230    4.5290    0.1500 o         1 61K     -0.620500
     11 OAD        -8.2340   -2.1120    0.4770 o         1 61K     -0.659800
     12 OAE        -6.4920   -3.7880    0.4810 o         1 61K     -0.659800
     13 CAF        -5.3030    0.9500    0.0150 ca        1 61K     -0.193500
     14 CAG        -3.5410   -0.7350   -0.0560 ca        1 61K     -0.193500
     15 CAH        -6.2500   -0.0610   -0.0170 ca        1 61K      0.011500
     16 CAI        -4.5170   -1.7220   -0.0860 ca        1 61K      0.011500
     17 CAJ         3.3720    2.7620    0.0270 ca        1 61K     -0.066000
     18 CAK         2.5400    3.8880    0.0840 ca        1 61K     -0.175000
     19 CAL         9.5520   -2.9770    0.6090 cd        1 61K      0.387400
     20 CAM         8.2930   -2.5640   -1.2000 cd        1 61K     -0.244600
     21 CAN         1.4550    1.2560   -0.0360 ca        1 61K     -0.011000
     22 CAO         5.8240   -0.8100    0.6300 c3        1 61K      0.090000
     23 CAW         3.7260    0.2670   -0.1090 c         1 61K      0.669700
     24 CAX        -3.9240    0.6230   -0.0090 ca        1 61K      0.234600
     25 CAY         2.8470    1.4710   -0.0260 ca        1 61K     -0.171600
     26 CAZ         8.0110   -1.6290   -0.1810 cc        1 61K      0.295600
     27 CBA        -5.8820   -1.4110   -0.0760 ca        1 61K     -0.419500
     28 CBB        -1.1180    3.9700    0.1180 c         1 61K      0.606200
     29 CBC        -0.8470    2.4760    0.0440 cc        1 61K      0.291900
     30 CBD         1.1630    3.6860    0.0900 ca        1 61K      0.078600
     31 CBE         0.6200    2.3510    0.0280 ca        1 61K     -0.164900
     32 HN3         5.1120    1.0750    1.1720 hn        1 61K      0.307500
     33 HN4         0.2500    5.6060    0.1860 hn        1 61K      0.348500
     34 HN6        -7.9740   -2.4070   -2.1910 hn        1 61K      0.446800
     35 HN6A       -6.7900   -3.5510   -2.1860 hn        1 61K      0.446800
     36 HN8        -3.3780    2.6200    0.0700 hn        1 61K      0.464800
     37 HAF        -5.6330    2.0000    0.0640 ha        1 61K      0.155500
     38 HAG        -2.4790   -1.0260   -0.0640 ha        1 61K      0.155500
     39 HAH        -7.3240    0.2020    0.0230 ha        1 61K      0.156500
     40 HAI        -4.2080   -2.7840   -0.0990 ha        1 61K      0.156500
     41 HAJ         4.4610    2.9230    0.0060 ha        1 61K      0.138000
     42 HAK         2.9730    4.8970    0.1210 ha        1 61K      0.146000
     43 HAL        10.2900   -3.4660    1.2530 h5        1 61K      0.061100
     44 HAM         7.8790   -2.6720   -2.2010 h4        1 61K      0.181000
     45 HAN         1.0590    0.2300   -0.1050 ha        1 61K      0.173000
     46 HAO         6.1820   -0.9990    1.6820 h1        1 61K      0.072200
     47 HAOA        5.3140   -1.7430    0.2530 h1        1 61K      0.072200
     48 HAP         6.7120   -0.3950   -1.3270 hc        1 61K      0.053700
     49 HAPA        7.5320    0.4390    0.0600 hc        1 61K      0.053700
     50 HN1         9.6800   -4.1780   -1.1590 hn        1 61K      0.301700
     51 CAP         7.0400   -0.5190   -0.2610 c3        1 61K     -0.119700
@<TRIPOS>BOND
     1    1   19 1   
     2    1   20 1   
     3    1   50 1   
     4    2    7 1   
     5    2   11 2   
     6    2   12 2   
     7    2   27 1   
     8    3   19 2   
     9    3   26 1   
    10    4   22 1   
    11    4   23 1   
    12    4   32 1   
    13    5   28 1   
    14    5   30 1   
    15    5   33 1   
    16    6    8 1   
    17    6   29 2   
    18    7   34 1   
    19    7   35 1   
    20    8   24 1   
    21    8   36 1   
    22    9   23 2   
    23   10   28 2   
    24   13   15 ar  
    25   13   24 ar  
    26   13   37 1   
    27   14   16 ar  
    28   14   24 ar  
    29   14   38 1   
    30   15   27 ar  
    31   15   39 1   
    32   16   27 ar  
    33   16   40 1   
    34   17   18 ar  
    35   17   25 ar  
    36   17   41 1   
    37   18   30 ar  
    38   18   42 1   
    39   19   43 1   
    40   20   26 2   
    41   20   44 1   
    42   21   25 ar  
    43   21   31 ar  
    44   21   45 1   
    45   22   46 1   
    46   22   47 1   
    47   22   51 1   
    48   23   25 1   
    49   26   51 1   
    50   28   29 1   
    51   29   31 1   
    52   30   31 ar  
    53   48   51 1   
    54   49   51 1   
@<TRIPOS>SUBSTRUCTURE
     1 61K         1 TEMP              0 ****  ****    0 ROOT
