@<TRIPOS>MOLECULE
61K
   54    56     1     0     0
SMALL
bcc


@<TRIPOS>ATOM
      1 N1         -1.2700    2.0180    3.9820 na        1 61K     -0.282900
      2 S1          6.5800  -10.7310   12.2390 sy        1 61K      1.456200
      3 N2         -0.2030    0.2220    4.8550 nc        1 61K     -0.809000
      4 N3          0.7550   -2.4350    4.7490 n4        1 61K     -0.674800
      5 N4          5.5550   -1.2320    9.1250 n         1 61K     -0.438500
      6 N5          5.7230   -4.8410    9.1580 ne        1 61K     -0.180600
      7 N6          8.3710  -10.8170   12.8000 n4        1 61K     -0.803500
      8 N8          6.4540   -5.7920    9.0020 nf        1 61K      0.053600
      9 OAB         1.7130   -4.4770    5.2400 o         1 61K     -0.426100
     10 OAC         7.0860   -2.5330   10.4050 o         1 61K     -0.420500
     11 OAD         5.9340  -10.5840   13.4430 o         1 61K     -0.528800
     12 OAE         6.5060  -11.8390   11.4300 o         1 61K     -0.528800
     13 CAF         6.1560   -6.9330   11.2260 ca        1 61K     -0.079000
     14 CAG         6.8000   -8.1780    9.2250 ca        1 61K     -0.079000
     15 CAH         6.2600   -8.1040   11.9730 ca        1 61K      0.002500
     16 CAI         6.8890   -9.3360    9.9960 ca        1 61K      0.002500
     17 CAJ         2.7930   -1.2430    6.6100 ca        1 61K      0.038000
     18 CAK         3.7070   -0.6910    7.5000 ca        1 61K     -0.169000
     19 CAL        -0.8270    1.3850    5.1440 cd        1 61K      0.446400
     20 CAM        -0.9110    1.2140    2.9070 cd        1 61K     -0.165600
     21 CAN         3.5500   -3.5130    7.1060 ca        1 61K      0.086000
     22 CAO         1.3080   -1.8750    3.4680 c3        1 61K      0.131800
     23 CAW         1.7580   -3.2710    5.4710 c         1 61K      0.559700
     24 CAX         6.4260   -6.9640    9.8430 ca        1 61K      0.106400
     25 CAY         2.7050   -2.6380    6.4050 ca        1 61K     -0.228600
     26 CAZ        -0.2490    0.0950    3.4570 cc        1 61K      0.222600
     27 CBA         6.6220   -9.3240   11.3760 ca        1 61K     -0.440500
     28 CBB         6.1910   -2.4000    9.5890 c         1 61K      0.696700
     29 CBC         5.4860   -3.5930    8.8320 cc        1 61K      0.329400
     30 CBD         4.5610   -1.5480    8.2090 ca        1 61K      0.213000
     31 CBE         4.4780   -2.9890    8.0050 ca        1 61K     -0.226000
     32 HN3        -0.0610   -3.0220    4.5170 hn        1 61K      0.491300
     33 HN4         5.8000   -0.3120    9.4270 hn        1 61K      0.411500
     34 HN6         8.4260  -10.8340   13.8230 hn        1 61K      0.474467
     35 HN6A        8.8100  -11.6820   12.4660 hn        1 61K      0.474467
     36 HN8         6.8240   -4.0380   12.2870 ha        1 61K      0.001500
     37 HAF         5.8800   -5.9930   11.7400 ha        1 61K      0.195500
     38 HAG         7.0200   -8.2300    8.1410 ha        1 61K      0.195500
     39 HAH         6.0230   -8.0680   13.0570 ha        1 61K      0.198500
     40 HAI         7.1540  -10.2880    9.4910 ha        1 61K      0.198500
     41 HAJ         2.1370   -0.5390    6.0600 ha        1 61K      0.194000
     42 HAK         3.7580    0.4040    7.6410 ha        1 61K      0.207000
     43 HAL        -0.9880    1.8000    6.1480 h5        1 61K      0.085100
     44 HAM        -1.1400    1.4750    1.8710 h4        1 61K      0.214000
     45 HAN         3.4740   -4.6050    6.9380 ha        1 61K      0.190000
     46 HAO         1.6560   -2.7410    2.8350 hx        1 61K      0.104200
     47 HAOA        2.1890   -1.2250    3.7350 hx        1 61K      0.104200
     48 HAP         0.7810   -0.6940    1.7610 hc        1 61K      0.101700
     49 HAPA       -0.5820   -1.7170    2.3790 hc        1 61K      0.101700
     50 HN1        -1.7630    2.8780    3.9310 hn        1 61K      0.340700
     51 CAP         0.2740   -1.0590    2.7010 c3        1 61K     -0.115700
     52 H32         0.4220   -1.6430    5.3410 hn        1 61K      0.491300
     53 H63         8.9500  -10.0440   12.4800 hn        1 61K      0.474467
     54 H82         7.1800   -3.5810   12.6400 ha        1 61K      0.001500
@<TRIPOS>BOND
     1    1   19 1   
     2    1   20 1   
     3    1   50 1   
     4    2    7 1   
     5    2   11 2   
     6    2   12 2   
     7    2   27 1   
     8    3   19 2   
     9    3   26 1   
    10    4   22 1   
    11    4   23 1   
    12    4   32 1   
    13    4   52 1   
    14    5   28 1   
    15    5   30 2   
    16    5   33 1   
    17    6    8 2   
    18    6   29 1   
    19    7   34 1   
    20    7   35 1   
    21    7   53 1   
    22    8   24 1   
    23    9   23 2   
    24   10   28 2   
    25   13   15 ar  
    26   13   24 ar  
    27   13   37 1   
    28   14   16 ar  
    29   14   24 ar  
    30   14   38 1   
    31   15   27 ar  
    32   15   39 1   
    33   16   27 ar  
    34   16   40 1   
    35   17   18 ar  
    36   17   25 ar  
    37   17   41 1   
    38   18   30 ar  
    39   18   42 1   
    40   19   43 1   
    41   20   26 2   
    42   20   44 1   
    43   21   25 ar  
    44   21   31 ar  
    45   21   45 1   
    46   22   46 1   
    47   22   47 1   
    48   22   51 1   
    49   23   25 1   
    50   26   51 1   
    51   28   29 1   
    52   29   31 2   
    53   30   31 ar  
    54   36   54 1   
    55   48   51 1   
    56   49   51 1   
@<TRIPOS>SUBSTRUCTURE
     1 61K         1 TEMP              0 ****  ****    0 ROOT
