@<TRIPOS>MOLECULE
61K
   53    56     1     0     0
SMALL
bcc


@<TRIPOS>ATOM
      1 N1          1.1210    2.0110    1.4030 na        1 61K     -0.300900
      2 S1          8.0900  -10.8640   10.4640 sy        1 61K      1.502200
      3 N2          1.4970    1.2900    3.5240 nc        1 61K     -0.692000
      4 N3          0.2550   -2.5100    5.2340 ny        1 61K     -0.676800
      5 N4          4.1210   -1.5660   10.4760 ns        1 61K     -0.445100
      6 N5          4.8740   -5.0660    9.7770 n2        1 61K     -0.329400
      7 N6          6.9790  -11.8450   11.7020 nz        1 61K     -0.786500
      8 N8          5.7440   -5.5370   10.6630 nu        1 61K     -0.426700
      9 OAB         1.4610   -4.4580    5.4600 o         1 61K     -0.444100
     10 OAC         5.6070   -2.8400   11.7880 o         1 61K     -0.554500
     11 OAD         7.8210  -11.5740    9.3140 o         1 61K     -0.567300
     12 OAE         9.2940  -10.9630   11.1280 o         1 61K     -0.567300
     13 CAF         7.2360   -7.2190   11.5530 ca        1 61K     -0.200000
     14 CAG         5.8170   -7.8000    9.6450 ca        1 61K     -0.200000
     15 CAH         7.7750   -8.4830   11.5210 ca        1 61K      0.049000
     16 CAI         6.3720   -9.0600    9.6420 ca        1 61K      0.049000
     17 CAJ         1.8220   -1.4430    7.5330 ca        1 61K     -0.019000
     18 CAK         2.4960   -0.9520    8.6460 ca        1 61K     -0.170000
     19 CAL         1.8320    2.2060    2.5950 cd        1 61K      0.423400
     20 CAM         0.2950    0.9110    1.5950 cd        1 61K     -0.192600
     21 CAN         2.8340   -3.6550    7.8090 ca        1 61K      0.034000
     22 CAO         0.8790   -1.5550    4.2640 c3        1 61K      0.105800
     23 CAW         1.3020   -3.3420    5.9450 c         1 61K      0.578700
     24 CAX         6.2430   -6.8360   10.6010 ca        1 61K      0.311600
     25 CAY         1.9740   -2.7730    7.1060 ca        1 61K     -0.249600
     26 CAZ         0.5330    0.4690    2.9150 cc        1 61K      0.229600
     27 CBA         7.3700   -9.4530   10.5690 ca        1 61K     -0.611500
     28 CBB         4.8310   -2.7350   10.8370 c         1 61K      0.602200
     29 CBC         4.4580   -3.8280    9.8370 cc        1 61K      0.345900
     30 CBD         3.3450   -1.8160    9.3500 ca        1 61K      0.157600
     31 CBE         3.5060   -3.1860    8.9120 ca        1 61K     -0.196900
     32 HN3        -0.2990   -1.9880    5.9200 hn        1 61K      0.458300
     33 HN4         4.1800   -0.6980   10.9520 hn        1 61K      0.377500
     34 HN6         6.5400  -12.6340   11.2310 hn        1 61K      0.454467
     35 HN6A        7.5450  -12.2160   12.4630 hn        1 61K      0.454467
     36 HN8         6.1200   -4.9390   11.3910 hn        1 61K      0.482800
     37 HAF         7.5910   -6.4990   12.3120 ha        1 61K      0.181000
     38 HAG         5.0510   -7.5450    8.8930 ha        1 61K      0.181000
     39 HAH         8.5700   -8.7470   12.2470 ha        1 61K      0.173000
     40 HAI         6.0430   -9.7890    8.8740 ha        1 61K      0.173000
     41 HAJ         1.1730   -0.7340    6.9920 ha        1 61K      0.148000
     42 HAK         2.3640    0.0970    8.9600 ha        1 61K      0.182000
     43 HAL         2.5620    3.0160    2.7260 h5        1 61K      0.082100
     44 HAM        -0.3780    0.5360    0.8240 h4        1 61K      0.195000
     45 HAN         2.9570   -4.6980    7.4640 ha        1 61K      0.181000
     46 HAO         1.6440   -0.9480    4.8310 hx        1 61K      0.120200
     47 HAOA        1.4130   -2.1630    3.4780 hx        1 61K      0.120200
     48 HAP        -0.8490   -0.2080    4.3810 hc        1 61K      0.069200
     49 HAPA       -0.7720   -1.2160    2.8690 hc        1 61K      0.069200
     50 HN1         1.1810    2.5590    0.5830 hn        1 61K      0.325700
     51 CAP        -0.1540   -0.6380    3.6070 c3        1 61K     -0.098700
     52 H32        -0.3740   -3.1420    4.7200 hn        1 61K      0.458300
     53 H63         6.2450  -11.2740   12.1070 hn        1 61K      0.454467
@<TRIPOS>BOND
     1    1   19 1   
     2    1   20 1   
     3    1   50 1   
     4    2    7 1   
     5    2   11 2   
     6    2   12 2   
     7    2   27 1   
     8    3   19 2   
     9    3   26 1   
    10    4   22 1   
    11    4   23 1   
    12    4   32 1   
    13    4   52 1   
    14    5   28 1   
    15    5   30 1   
    16    5   33 1   
    17    6    8 1   
    18    6   29 2   
    19    7   34 1   
    20    7   35 1   
    21    7   53 1   
    22    8   24 1   
    23    8   36 1   
    24    9   23 2   
    25   10   28 2   
    26   13   15 ar  
    27   13   24 ar  
    28   13   37 1   
    29   14   16 ar  
    30   14   24 ar  
    31   14   38 1   
    32   15   27 ar  
    33   15   39 1   
    34   16   27 ar  
    35   16   40 1   
    36   17   18 ar  
    37   17   25 ar  
    38   17   41 1   
    39   18   30 ar  
    40   18   42 1   
    41   19   43 1   
    42   20   26 2   
    43   20   44 1   
    44   21   25 ar  
    45   21   31 ar  
    46   21   45 1   
    47   22   46 1   
    48   22   47 1   
    49   22   51 1   
    50   23   25 1   
    51   26   51 1   
    52   28   29 1   
    53   29   31 1   
    54   30   31 ar  
    55   48   51 1   
    56   49   51 1   
@<TRIPOS>SUBSTRUCTURE
     1 61K         1 TEMP              0 ****  ****    0 ROOT
