@<TRIPOS>MOLECULE
61N
   21    15     1     0     0
SMALL
bcc


@<TRIPOS>ATOM
      1 O20        -2.5450   -1.0340    2.5480 o         1 61N     -0.561000
      2 C11        -2.3030    0.0610    1.9760 c1        1 61N      0.355000
      3 O21        -2.6850    1.1420    2.4970 o         1 61N     -0.561000
      4 C6         -1.5390    0.0790    0.6700 c1        1 61N     -0.001500
      5 C10        -0.1610    0.0430    0.3860 c1        1 61N     -0.048000
      6 C5          0.7750    0.0170    1.4370 c2        1 61N     -0.040000
      7 C4          2.1350   -0.0220    1.1550 c1        1 61N     -0.241000
      8 C3          2.5720   -0.0350   -0.1660 c1        1 61N     -0.001500
      9 O2          3.9380    0.0450   -0.4910 o         1 61N     -0.275000
     10 C2          1.6490   -0.0100   -1.2040 c1        1 61N     -0.163500
     11 C1          0.2710    0.0300   -0.9190 c1        1 61N     -0.015000
     12 C8         -0.6650    0.0520   -1.9700 c1        1 61N     -0.145500
     13 C7         -2.0250    0.0880   -1.6880 c1        1 61N     -0.145500
     14 C9         -2.4620    0.1010   -0.3680 c1        1 61N     -0.163500
     15 H2          0.4690    0.0270    2.3640 ha        1 61N      0.196000
     16 H3          2.7830   -0.0390    1.8840 ha        1 61N      0.116000
     17 H4          4.2900   -0.7710   -0.4960 ho        1 61N      0.204000
     18 H5          1.9560   -0.0370   -2.1300 ha        1 61N      0.138000
     19 H6         -0.3590    0.0580   -2.8970 ha        1 61N      0.107000
     20 H7         -2.6740    0.0970   -2.4170 ha        1 61N      0.107000
     21 H8         -3.4180    0.1060   -0.1700 ha        1 61N      0.138000
@<TRIPOS>BOND
     1    1    2 1   
     2    2    3 1   
     3    4   14 1   
     4    5    6 1   
     5    5   11 1   
     6    6    7 1   
     7    6   15 1   
     8    7   16 1   
     9    8   10 1   
    10    9   17 1   
    11   10   18 1   
    12   12   13 1   
    13   12   19 1   
    14   13   20 1   
    15   14   21 1   
@<TRIPOS>SUBSTRUCTURE
     1 61N         1 TEMP              0 ****  ****    0 ROOT
