@<TRIPOS>MOLECULE
61N
   21    22     1     0     0
SMALL
bcc


@<TRIPOS>ATOM
      1 O20        -3.4820   -0.7470    0.6580 o         1 61N     -0.826300
      2 C11        -2.4190   -0.9350    0.0040 c         1 61N      0.906200
      3 O21        -2.1670   -1.9950   -0.6370 o         1 61N     -0.826300
      4 C6         -1.4070    0.2080   -0.0180 ca        1 61N     -0.081600
      5 C10         0.0020   -0.0060   -0.0430 ca        1 61N     -0.048000
      6 C5          0.5650   -1.3150   -0.0660 ca        1 61N     -0.040000
      7 C4          1.9230   -1.5030   -0.0770 ca        1 61N     -0.241000
      8 C3          2.7890   -0.3750   -0.0670 ca        1 61N      0.103100
      9 O2          4.1650   -0.5260   -0.0740 oh        1 61N     -0.521100
     10 C2          2.2890    0.9090   -0.0520 ca        1 61N     -0.182000
     11 C1          0.8810    1.1130   -0.0410 ca        1 61N     -0.015000
     12 C8          0.3410    2.4250   -0.0310 ca        1 61N     -0.172000
     13 C7         -1.0220    2.6100   -0.0120 ca        1 61N     -0.119000
     14 C9         -1.8930    1.5020    0.0000 ca        1 61N     -0.145000
     15 H2         -0.1360   -2.1740   -0.0950 ha        1 61N      0.196000
     16 H3          2.3540   -2.5130   -0.0970 ha        1 61N      0.116000
     17 H4          4.3470   -1.4750   -0.0970 ho        1 61N      0.405000
     18 H5          2.9640    1.7740   -0.0480 ha        1 61N      0.128000
     19 H6          1.0290    3.2810   -0.0370 ha        1 61N      0.108000
     20 H7         -1.4440    3.6250   -0.0020 ha        1 61N      0.106000
     21 H8         -2.9830    1.6570    0.0430 ha        1 61N      0.148000
@<TRIPOS>BOND
     1    1    2 1   
     2    2    3 1   
     3    2    4 1   
     4    4    5 ar  
     5    4   14 ar  
     6    5    6 ar  
     7    5   11 ar  
     8    6    7 ar  
     9    6   15 1   
    10    7    8 ar  
    11    7   16 1   
    12    8    9 1   
    13    8   10 ar  
    14    9   17 1   
    15   10   11 ar  
    16   10   18 1   
    17   11   12 ar  
    18   12   13 ar  
    19   12   19 1   
    20   13   14 ar  
    21   13   20 1   
    22   14   21 1   
@<TRIPOS>SUBSTRUCTURE
     1 61N         1 TEMP              0 ****  ****    0 ROOT
