@<TRIPOS>MOLECULE
61N
   21    22     1     0     0
SMALL
bcc


@<TRIPOS>ATOM
      1 O20         0.2020    0.5870    0.0170 o         1 61N     -0.826300
      2 C11         1.3260    0.0130    0.0300 c         1 61N      0.906200
      3 O21         1.8150   -0.5500    1.0510 o         1 61N     -0.826300
      4 C6          2.1090   -0.0090   -1.2800 ca        1 61N     -0.081600
      5 C10         3.5310    0.0670   -1.3340 ca        1 61N     -0.048000
      6 C5          4.3260    0.1530   -0.1540 ca        1 61N     -0.040000
      7 C4          5.6930    0.2380   -0.2240 ca        1 61N     -0.241000
      8 C3          6.3320    0.2390   -1.4940 ca        1 61N      0.103100
      9 O2          7.7100    0.3280   -1.6030 oh        1 61N     -0.521100
     10 C2          5.6040    0.1510   -2.6610 ca        1 61N     -0.182000
     11 C1          4.1870    0.0610   -2.5970 ca        1 61N     -0.015000
     12 C8          3.4140   -0.0360   -3.7830 ca        1 61N     -0.172000
     13 C7          2.0430   -0.1140   -3.7100 ca        1 61N     -0.119000
     14 C9          1.3930   -0.0940   -2.4590 ca        1 61N     -0.145000
     15 H2          3.7990    0.1280    0.8210 ha        1 61N      0.196000
     16 H3          6.3030    0.3020    0.6870 ha        1 61N      0.116000
     17 H4          8.0650    0.3690   -0.7060 ho        1 61N      0.405000
     18 H5          6.1070    0.1490   -3.6370 ha        1 61N      0.128000
     19 H6          3.9320   -0.0470   -4.7520 ha        1 61N      0.108000
     20 H7          1.4410   -0.1880   -4.6270 ha        1 61N      0.106000
     21 H8          0.2930   -0.1280   -2.4090 ha        1 61N      0.148000
@<TRIPOS>BOND
     1    1    2 1   
     2    2    3 1   
     3    2    4 1   
     4    4    5 ar  
     5    4   14 ar  
     6    5    6 ar  
     7    5   11 ar  
     8    6    7 ar  
     9    6   15 1   
    10    7    8 ar  
    11    7   16 1   
    12    8    9 1   
    13    8   10 ar  
    14    9   17 1   
    15   10   11 ar  
    16   10   18 1   
    17   11   12 ar  
    18   12   13 ar  
    19   12   19 1   
    20   13   14 ar  
    21   13   20 1   
    22   14   21 1   
@<TRIPOS>SUBSTRUCTURE
     1 61N         1 TEMP              0 ****  ****    0 ROOT
