@<TRIPOS>MOLECULE
61X
   47    48     1     0     0
SMALL
bcc


@<TRIPOS>ATOM
      1 C1         -0.9860   -0.7200    0.7880 c3        1 61X     -0.956000
      2 F1         -4.5660   -5.0420   -0.1170 f         1 61X     -0.160333
      3 N1         -2.3540   -7.1150    2.4430 n2        1 61X      0.020000
      4 O1          0.5860    0.0290   -1.0410 o         1 61X     -0.936000
      5 S1          0.4800   -0.9300   -0.0250 s6        1 61X      2.855000
      6 C2          1.5710   -0.5790    1.2080 c2        1 61X     -0.841000
      7 F2         -3.1390   -4.6330   -1.6950 f         1 61X     -0.160333
      8 O2          0.6250   -2.2790   -0.3900 o         1 61X     -0.936000
      9 C3          1.8050    0.8890    1.5020 c3        1 61X     -0.092000
     10 F3         -3.0230   -3.5470    0.1780 f         1 61X     -0.160333
     11 C4          3.1690    1.0760    2.0990 c2        1 61X     -0.077000
     12 C5          3.5080    0.0940    2.9200 c1        1 61X     -0.170000
     13 C6          3.0450   -1.1560    3.0460 c2        1 61X      0.048000
     14 C7          2.2190   -1.5540    1.8920 c2        1 61X      0.026000
     15 C8          3.0470   -3.2990    3.9760 c2        1 61X     -0.298000
     16 C9          4.1840   -3.9410    3.2490 c3        1 61X     -0.094000
     17 C10         3.9550   -5.4050    3.0940 c2        1 61X     -0.091000
     18 C11         2.8770   -5.9550    3.5780 c1        1 61X     -0.229000
     19 C12         1.7940   -6.4820    4.1040 c2        1 61X      0.033000
     20 C13         2.0220   -3.9700    4.5330 c1        1 61X      0.200000
     21 C14         0.5210   -6.6370    3.4240 c2        1 61X     -0.109000
     22 C15        -0.5330   -7.2150    4.0770 c2        1 61X     -0.051000
     23 C16        -1.8430   -7.5280    3.5740 c2        1 61X     -0.177000
     24 C17        -2.5750   -6.3690    1.5210 c1        1 61X     -0.044000
     25 C18         0.3450   -6.1830    2.0590 c2        1 61X     -0.091000
     26 C19         0.8500   -6.7570    0.9460 c2        1 61X     -0.137000
     27 C20         0.0700   -6.7580   -0.2810 c2        1 61X     -0.032000
     28 C21        -1.1360   -6.2240   -0.2850 c1        1 61X     -0.077000
     29 C22        -2.3070   -5.8760    0.2220 c2        1 61X     -0.058000
     30 C23        -3.2320   -4.8040   -0.3370 c3        1 61X      0.497000
     31 H1         -0.8950   -0.5270    1.8840 h1        1 61X      0.165000
     32 H1A        -1.5760    0.1360    0.3700 h1        1 61X      0.165000
     33 H1B        -1.6440   -1.6260    0.6900 h1        1 61X      0.165000
     34 H3          0.9790    1.2610    2.1660 hc        1 61X      0.127000
     35 H4          1.7690    1.4730    0.5390 hc        1 61X      0.127000
     36 H5          3.8140    1.8900    1.7540 ha        1 61X      0.161000
     37 H7          2.0700   -2.6290    1.6880 ha        1 61X      0.172000
     38 H9          4.3030   -3.4630    2.2380 hc        1 61X      0.115000
     39 H10         5.1360   -3.7620    3.8210 hc        1 61X      0.115000
     40 H11         4.7360   -5.9740    2.5660 ha        1 61X      0.153000
     41 H13         1.8270   -6.8330    5.1560 ha        1 61X      0.149000
     42 H15        -0.3830   -7.5600    5.1180 ha        1 61X      0.143000
     43 H16        -2.4810   -8.2010    4.1760 h4        1 61X      0.169000
     44 H19        -0.3960   -5.3630    1.9560 ha        1 61X      0.138000
     45 H20         1.7310   -7.4160    0.9590 ha        1 61X      0.151000
     46 H21         0.4430   -7.3590   -1.1280 ha        1 61X      0.174000
     47 O3          3.1600   -1.9140    4.1890 os        1 61X     -0.090000
@<TRIPOS>BOND
     1    1    5 1   
     2    1   31 1   
     3    1   32 1   
     4    1   33 1   
     5    2   30 1   
     6    3   23 1   
     7    3   24 1   
     8    4    5 1   
     9    5    6 1   
    10    5    8 1   
    11    6    9 1   
    12    6   14 1   
    13    7   30 1   
    14    9   11 1   
    15    9   34 1   
    16    9   35 1   
    17   10   30 1   
    18   11   12 1   
    19   11   36 1   
    20   12   13 1   
    21   13   14 1   
    22   13   47 1   
    23   14   37 1   
    24   15   16 1   
    25   15   20 1   
    26   15   47 1   
    27   16   17 1   
    28   16   38 1   
    29   16   39 1   
    30   17   18 1   
    31   17   40 1   
    32   18   19 1   
    33   19   21 1   
    34   19   41 1   
    35   21   22 1   
    36   21   25 1   
    37   22   23 1   
    38   22   42 1   
    39   23   43 1   
    40   24   29 1   
    41   25   26 1   
    42   25   44 1   
    43   26   27 1   
    44   26   45 1   
    45   27   28 1   
    46   27   46 1   
    47   28   29 1   
    48   29   30 1   
@<TRIPOS>SUBSTRUCTURE
     1 61X         1 TEMP              0 ****  ****    0 ROOT
