@<TRIPOS>MOLECULE
61X
   47    49     1     0     0
SMALL
bcc


@<TRIPOS>ATOM
      1 C1         -1.2890    0.3820    2.1090 c3        1 61X     -0.940000
      2 F1         -4.5620   -6.6640    0.3300 f         1 61X     -0.165000
      3 N1         -1.8950   -5.3190    0.4480 n2        1 61X     -0.161000
      4 O1          0.2180    0.8020    0.1260 o         1 61X     -0.949500
      5 S1          0.0160   -0.1210    1.1600 s6        1 61X      2.891000
      6 C2          1.2460   -0.0310    2.2550 c2        1 61X     -0.927000
      7 F2         -4.4110   -8.5830   -0.6380 f         1 61X     -0.165000
      8 O2         -0.1780   -1.4680    0.7930 o         1 61X     -0.949500
      9 C3          1.9110    1.2690    2.6510 c3        1 61X     -0.110000
     10 F3         -3.5430   -6.8420   -1.5810 f         1 61X     -0.165000
     11 C4          2.9900    0.8410    3.6030 c2        1 61X      0.025000
     12 C5          2.9750   -0.5270    3.7340 c2        1 61X     -0.244000
     13 C6          3.8650   -1.2480    4.5980 c1        1 61X      0.060000
     14 C7          1.8880   -1.0530    2.9000 c2        1 61X      0.067000
     15 C8          3.6720   -3.4950    3.7400 c2        1 61X     -0.407000
     16 C9          4.6180   -3.7810    2.6240 c3        1 61X     -0.070000
     17 C10         4.1780   -4.9630    1.8310 c2        1 61X     -0.094000
     18 C11         3.0350   -5.5440    2.0690 c1        1 61X     -0.186000
     19 C12         1.9030   -6.1440    2.3480 c2        1 61X     -0.024000
     20 C13         2.5660   -4.1840    4.0190 c1        1 61X      0.177000
     21 C14         0.6330   -5.8550    1.6990 c2        1 61X     -0.028000
     22 C15         0.3430   -4.6470    1.1620 c2        1 61X     -0.166000
     23 C16        -0.9800   -4.4050    0.5980 c2        1 61X      0.034000
     24 C17        -1.5920   -6.6380    0.8090 c2        1 61X      0.102000
     25 C18        -0.4220   -6.9210    1.7350 c3        1 61X     -0.095000
     26 C19         0.0810   -8.3170    1.6480 c2        1 61X     -0.097000
     27 C20        -0.6640   -9.2990    1.0990 c2        1 61X     -0.178000
     28 C21        -1.9270   -9.0500    0.4690 c1        1 61X     -0.049000
     29 C22        -2.3570   -7.7040    0.3720 c2        1 61X     -0.225000
     30 C23        -3.6770   -7.4590   -0.3600 c3        1 61X      0.492000
     31 H1         -1.5600   -0.3520    2.9080 h1        1 61X      0.157000
     32 H1A        -1.1160    1.3600    2.6210 h1        1 61X      0.157000
     33 H1B        -2.2110    0.5170    1.4870 h1        1 61X      0.157000
     34 H3          1.1930    1.9660    3.1570 hc        1 61X      0.149000
     35 H4          2.3410    1.7890    1.7540 hc        1 61X      0.149000
     36 H5          3.6670    1.5460    4.0900 ha        1 61X      0.172000
     37 H7          1.6550   -2.1230    2.8240 ha        1 61X      0.173000
     38 H9          4.6980   -2.8840    1.9510 hc        1 61X      0.117000
     39 H10         5.6410   -3.9770    3.0520 hc        1 61X      0.117000
     40 H11         4.8730   -5.3200    1.0530 ha        1 61X      0.163000
     41 H13         1.8870   -6.9260    3.1330 ha        1 61X      0.158000
     42 H15         1.0560   -3.8080    1.1410 ha        1 61X      0.167000
     43 H16        -1.2200   -3.3680    0.2730 h4        1 61X      0.214000
     44 H19        -0.8850   -6.8510    2.7850 hc        1 61X      0.180000
     45 H20         1.0640   -8.5160    2.1030 ha        1 61X      0.136000
     46 H21        -0.3100  -10.3440    1.0900 ha        1 61X      0.157000
     47 O3          4.1610   -2.4800    4.6340 os        1 61X      0.023000
@<TRIPOS>BOND
     1    1    5 1   
     2    1   31 1   
     3    1   32 1   
     4    1   33 1   
     5    2   30 1   
     6    3   23 1   
     7    3   24 1   
     8    4    5 1   
     9    5    6 1   
    10    5    8 1   
    11    6    9 1   
    12    6   14 1   
    13    7   30 1   
    14    9   11 1   
    15    9   34 1   
    16    9   35 1   
    17   10   30 1   
    18   11   12 1   
    19   11   36 1   
    20   12   13 1   
    21   12   14 1   
    22   13   47 1   
    23   14   37 1   
    24   15   16 1   
    25   15   20 1   
    26   15   47 1   
    27   16   17 1   
    28   16   38 1   
    29   16   39 1   
    30   17   18 1   
    31   17   40 1   
    32   18   19 1   
    33   19   21 1   
    34   19   41 1   
    35   21   22 1   
    36   21   25 1   
    37   22   23 1   
    38   22   42 1   
    39   23   43 1   
    40   24   25 1   
    41   24   29 1   
    42   25   26 1   
    43   25   44 1   
    44   26   27 1   
    45   26   45 1   
    46   27   28 1   
    47   27   46 1   
    48   28   29 1   
    49   29   30 1   
@<TRIPOS>SUBSTRUCTURE
     1 61X         1 TEMP              0 ****  ****    0 ROOT
