@<TRIPOS>MOLECULE
61X
   47    50     1     0     0
SMALL
bcc


@<TRIPOS>ATOM
      1 C1          4.8270   -3.4500   -0.7520 c3        1 61X     -0.360300
      2 F1         -7.2870    0.9650    0.3670 f         1 61X     -0.234300
      3 N1         -4.6840    1.8200   -0.8280 nb        1 61X     -0.652000
      4 O1          6.5730   -2.6650    0.8950 o         1 61X     -0.655800
      5 S1          5.2500   -2.4070    0.5100 sy        1 61X      1.395300
      6 C2          5.1650   -0.9340   -0.2950 ca        1 61X     -0.356500
      7 F2         -7.4120   -1.1910    0.3910 f         1 61X     -0.234300
      8 O2          4.2610   -2.4650    1.5020 o         1 61X     -0.655800
      9 C3          6.3020   -0.3820   -0.8970 ca        1 61X     -0.039000
     10 F3         -6.8230   -0.1820   -1.4240 f         1 61X     -0.234300
     11 C4          6.2410    0.8490   -1.5510 ca        1 61X     -0.133000
     12 C5          5.0440    1.5560   -1.6100 ca        1 61X     -0.080000
     13 C6          3.9030    1.0050   -1.0010 ca        1 61X      0.084100
     14 C7          3.9580   -0.2280   -0.3490 ca        1 61X     -0.072000
     15 C8          1.7840    1.6440   -0.1530 ca        1 61X      0.093100
     16 C9          2.1330    1.6700    1.2020 ca        1 61X     -0.156000
     17 C10         1.1170    1.6940    2.1560 ca        1 61X     -0.103000
     18 C11        -0.2210    1.6920    1.7660 ca        1 61X     -0.130000
     19 C12        -0.5630    1.6670    0.4070 cp        1 61X     -0.038000
     20 C13         0.4440    1.6430   -0.5650 ca        1 61X     -0.122000
     21 C14        -1.9670    1.6950   -0.0120 cp        1 61X      0.016000
     22 C15        -2.4270    2.7200   -0.8110 ca        1 61X     -0.238300
     23 C16        -3.8040    2.7350   -1.1900 ca        1 61X      0.429200
     24 C17        -4.2430    0.7760   -0.0370 ca        1 61X      0.427600
     25 C18        -2.8830    0.6700    0.3940 ca        1 61X     -0.142300
     26 C19        -2.4870   -0.4390    1.1850 ca        1 61X     -0.081000
     27 C20        -3.3960   -1.4010    1.5520 ca        1 61X     -0.141000
     28 C21        -4.7440   -1.3010    1.1440 ca        1 61X     -0.063000
     29 C22        -5.1650   -0.2450    0.3690 ca        1 61X     -0.209600
     30 C23        -6.6260   -0.1560   -0.0670 c3        1 61X      0.700200
     31 H1          4.7740   -4.5110   -0.3970 h1        1 61X      0.116367
     32 H1A         3.8290   -3.2210   -1.1980 h1        1 61X      0.116367
     33 H1B         5.5620   -3.4410   -1.5940 h1        1 61X      0.116367
     34 H3          7.2620   -0.9240   -0.8350 ha        1 61X      0.160000
     35 H4          7.1460    1.2670   -2.0190 ha        1 61X      0.148000
     36 H5          4.9740    2.5260   -2.1230 ha        1 61X      0.158000
     37 H7          3.0570   -0.6370    0.1420 ha        1 61X      0.168000
     38 H9          3.1910    1.6670    1.5030 ha        1 61X      0.153000
     39 H10         1.3770    1.7160    3.2250 ha        1 61X      0.146000
     40 H11        -1.0160    1.7180    2.5280 ha        1 61X      0.146000
     41 H13         0.1980    1.6310   -1.6370 ha        1 61X      0.158000
     42 H15        -1.7610    3.5230   -1.1550 ha        1 61X      0.154000
     43 H16        -4.1880    3.5560   -1.8260 h4        1 61X      0.032100
     44 H19        -1.4320   -0.5170    1.4980 ha        1 61X      0.151000
     45 H20        -3.0870   -2.2620    2.1650 ha        1 61X      0.147000
     46 H21        -5.4580   -2.0840    1.4530 ha        1 61X      0.158000
     47 O3          2.7250    1.7240   -1.1790 os        1 61X     -0.247200
@<TRIPOS>BOND
     1    1    5 1   
     2    1   31 1   
     3    1   32 1   
     4    1   33 1   
     5    2   30 1   
     6    3   23 ar  
     7    3   24 ar  
     8    4    5 2   
     9    5    6 1   
    10    5    8 2   
    11    6    9 ar  
    12    6   14 ar  
    13    7   30 1   
    14    9   11 ar  
    15    9   34 1   
    16   10   30 1   
    17   11   12 ar  
    18   11   35 1   
    19   12   13 ar  
    20   12   36 1   
    21   13   14 ar  
    22   13   47 1   
    23   14   37 1   
    24   15   16 ar  
    25   15   20 ar  
    26   15   47 1   
    27   16   17 ar  
    28   16   38 1   
    29   17   18 ar  
    30   17   39 1   
    31   18   19 ar  
    32   18   40 1   
    33   19   20 ar  
    34   19   21 1   
    35   20   41 1   
    36   21   22 ar  
    37   21   25 ar  
    38   22   23 ar  
    39   22   42 1   
    40   23   43 1   
    41   24   25 ar  
    42   24   29 ar  
    43   25   26 ar  
    44   26   27 ar  
    45   26   44 1   
    46   27   28 ar  
    47   27   45 1   
    48   28   29 ar  
    49   28   46 1   
    50   29   30 1   
@<TRIPOS>SUBSTRUCTURE
     1 61X         1 TEMP              0 ****  ****    0 ROOT
