@<TRIPOS>MOLECULE
61X
   47    40     1     0     0
SMALL
bcc


@<TRIPOS>ATOM
      1 C1          0.7590    7.9230   -1.2690 c3        1 61X     -0.939000
      2 F1         -3.5210   -6.6170   -0.1780 f         1 61X     -0.162667
      3 N1         -2.6570   -4.4290   -0.5860 n1        1 61X     -0.126000
      4 O1         -0.0510    6.2740   -3.1900 o         1 61X     -0.542900
      5 S1         -0.0170    6.4040   -1.7600 s4        1 61X      2.075800
      6 C2          0.8060    5.0210   -1.0060 c1        1 61X     -0.802000
      7 F2         -4.0540   -7.0910    1.8890 f         1 61X     -0.162667
      8 O2         -1.4190    6.4100   -1.4470 o         1 61X     -0.542900
      9 C3          2.1140    5.0610   -1.4630 c2        1 61X     -0.038000
     10 F3         -2.1810   -7.8390    1.0430 f         1 61X     -0.162667
     11 O3          0.8740    1.9650    1.0600 os        1 61X     -0.156000
     12 C4          2.9990    4.0500   -1.1190 c1        1 61X     -0.134000
     13 C5          2.5760    3.0000   -0.3180 c1        1 61X     -0.079000
     14 C6          1.2680    2.9610    0.1400 c2        1 61X      0.037000
     15 C7          0.3820    3.9720   -0.2050 c2        1 61X     -0.070000
     16 C8          0.9930    0.6930    0.4570 c2        1 61X      0.051000
     17 C9          2.2040    0.2980   -0.0890 c2        1 61X     -0.160000
     18 C10         2.3630   -0.9960   -0.5630 c1        1 61X     -0.101000
     19 C11         1.3090   -1.8950   -0.4900 c1        1 61X     -0.132000
     20 C12         0.0980   -1.5020    0.0560 c1        1 61X     -0.036000
     21 C13        -0.0610   -0.2080    0.5300 c1        1 61X     -0.124000
     22 C14        -0.9300   -2.4260    0.2030 c1        1 61X      0.017000
     23 C15        -1.5240   -2.3720   -1.0280 c1        1 61X     -0.103250
     24 C16        -2.3950   -3.3840   -1.4250 c1        1 61X     -0.103250
     25 C17        -2.0560   -4.4860    0.6610 c1        1 61X      0.035000
     26 C18        -1.1960   -3.4880    1.0550 c1        1 61X     -0.076000
     27 C19        -0.5900   -3.5440    2.3250 c1        1 61X     -0.080000
     28 C20        -0.8610   -4.6060    3.1790 c1        1 61X     -0.103250
     29 C21        -1.7320   -5.6160    2.7790 c1        1 61X     -0.103250
     30 C22        -2.3300   -5.5620    1.5270 c1        1 61X     -0.137000
     31 C23        -3.0420   -6.8140    1.0570 c3        1 61X      0.479000
     32 H1          1.7230    7.8680   -1.4400 h1        1 61X      0.155667
     33 H1A         0.3780    8.6660   -1.7830 h1        1 61X      0.155667
     34 H1B         0.6050    8.0750   -0.3130 h1        1 61X      0.155667
     35 H3          2.4120    5.8000   -2.0270 ha        1 61X      0.161000
     36 H4          3.9200    4.0780   -1.4410 ha        1 61X      0.149000
     37 H5          3.1980    2.2910   -0.0760 ha        1 61X      0.158000
     38 H7         -0.5320    3.9570    0.1380 ha        1 61X      0.167000
     39 H9          2.9430    0.9280   -0.1410 ha        1 61X      0.153000
     40 H10         3.2160   -1.2730   -0.9480 ha        1 61X      0.146000
     41 H11         1.4210   -2.8060   -0.8240 ha        1 61X      0.146000
     42 H13        -0.9140    0.0700    0.9150 ha        1 61X      0.158000
     43 H15        -1.3380   -1.6260   -1.6280 ha        1 61X      0.156500
     44 H16        -2.8190   -3.3460   -2.3030 ha        1 61X      0.156500
     45 H19         0.0210   -2.8360    2.6060 ha        1 61X      0.150000
     46 H20        -0.4400   -4.6440    4.0590 ha        1 61X      0.156500
     47 H21        -1.9220   -6.3620    3.3800 ha        1 61X      0.156500
@<TRIPOS>BOND
     1    1    5 1   
     2    1   32 1   
     3    1   33 1   
     4    1   34 1   
     5    2   31 1   
     6    3   25 1   
     7    4    5 1   
     8    5    8 1   
     9    6    9 1   
    10    6   15 1   
    11    7   31 1   
    12    9   12 1   
    13    9   35 1   
    14   10   31 1   
    15   11   14 1   
    16   11   16 1   
    17   12   36 1   
    18   13   14 1   
    19   13   37 1   
    20   14   15 1   
    21   15   38 1   
    22   16   17 1   
    23   16   21 1   
    24   17   18 1   
    25   17   39 1   
    26   18   40 1   
    27   19   20 1   
    28   19   41 1   
    29   21   42 1   
    30   22   26 1   
    31   23   24 1   
    32   23   43 1   
    33   24   44 1   
    34   25   30 1   
    35   26   27 1   
    36   27   45 1   
    37   28   29 1   
    38   28   46 1   
    39   29   47 1   
    40   30   31 1   
@<TRIPOS>SUBSTRUCTURE
     1 61X         1 TEMP              0 ****  ****    0 ROOT
