@<TRIPOS>MOLECULE
620
   38    40     1     0     0
SMALL
bcc


@<TRIPOS>ATOM
      1 CAR        -0.1710   -1.0760    0.4360 ca        1 620     -0.111500
      2 CAU         1.2110   -1.1840    0.2860 ca        1 620     -0.130500
      3 CAV         2.0580   -0.2940    0.9460 ca        1 620     -0.123000
      4 CAT         1.5220    0.7030    1.7620 ca        1 620     -0.130500
      5 CAS         0.1420    0.8100    1.9200 ca        1 620     -0.111500
      6 CAN        -0.7110   -0.0780    1.2530 ca        1 620     -0.097300
      7 CAM        -2.1860    0.0860    1.4050 c3        1 620      0.175700
      8 OAH        -2.7840   -1.2160    1.2930 os        1 620     -0.324900
      9 CAJ        -4.1560   -1.2580    1.4340 ca        1 620      0.133100
     10 CAK        -4.7070   -2.5510    1.3670 ca        1 620     -0.155000
     11 CAP        -4.9770   -0.1400    1.6240 ca        1 620     -0.196000
     12 CAO        -6.3540   -0.3240    1.7480 ca        1 620     -0.093000
     13 CAQ        -6.9110   -1.5990    1.6870 ca        1 620     -0.146000
     14 CAL        -6.0860   -2.7120    1.4920 ca        1 620     -0.068300
     15 CAI        -6.6840   -4.0830    1.3910 c3        1 620      0.169100
     16 NAF        -6.3480   -4.8950    2.5850 nh        1 620     -0.608500
     17 NAA        -6.5420   -6.2460    2.4550 na        1 620      0.005800
     18 NAC        -6.0750   -7.1180    1.4930 nc        1 620     -0.218800
     19 NAE        -6.5990   -8.2530    1.7130 nd        1 620     -0.020000
     20 NAD        -7.4330   -8.2860    2.7510 nd        1 620     -0.436000
     21 CAB        -7.4520   -7.0050    3.2850 cc        1 620      0.654400
     22 NAG        -8.0620   -6.5390    4.4300 nh        1 620     -0.904500
     23 H1         -0.8440   -1.7800   -0.0780 ha        1 620      0.138500
     24 H2          1.6310   -1.9730   -0.3540 ha        1 620      0.134000
     25 H3          3.1480   -0.3790    0.8250 ha        1 620      0.133000
     26 H4          2.1890    1.4030    2.2850 ha        1 620      0.134000
     27 H5         -0.2770    1.5920    2.5700 ha        1 620      0.138500
     28 H6         -2.5880    0.7450    0.5880 h1        1 620      0.049200
     29 H7         -2.4430    0.5260    2.4060 h1        1 620      0.049200
     30 H8         -4.0420   -3.4120    1.2050 ha        1 620      0.153000
     31 H9         -4.5580    0.8740    1.6750 ha        1 620      0.141000
     32 H10        -7.0050    0.5510    1.8970 ha        1 620      0.137000
     33 H11        -7.9980   -1.7300    1.7910 ha        1 620      0.137000
     34 H12        -7.8080   -4.0140    1.3500 h1        1 620      0.069700
     35 H13        -6.3340   -4.5490    0.4230 h1        1 620      0.069700
     36 H14        -5.3630   -4.7450    2.8020 hn        1 620      0.384800
     37 H15        -8.8010   -7.1110    4.7740 hn        1 620      0.434800
     38 H16        -8.2040   -5.5550    4.4870 hn        1 620      0.434800
@<TRIPOS>BOND
     1    1    2 ar  
     2    1    6 ar  
     3    1   23 1   
     4    2    3 ar  
     5    2   24 1   
     6    3    4 ar  
     7    3   25 1   
     8    4    5 ar  
     9    4   26 1   
    10    5    6 ar  
    11    5   27 1   
    12    6    7 1   
    13    7    8 1   
    14    7   28 1   
    15    7   29 1   
    16    8    9 1   
    17    9   10 ar  
    18    9   11 ar  
    19   10   14 ar  
    20   10   30 1   
    21   11   12 ar  
    22   11   31 1   
    23   12   13 ar  
    24   12   32 1   
    25   13   14 ar  
    26   13   33 1   
    27   14   15 1   
    28   15   16 1   
    29   15   34 1   
    30   15   35 1   
    31   16   17 1   
    32   16   36 1   
    33   17   18 1   
    34   17   21 1   
    35   18   19 2   
    36   19   20 1   
    37   20   21 2   
    38   21   22 1   
    39   22   37 1   
    40   22   38 1   
@<TRIPOS>SUBSTRUCTURE
     1 620         1 TEMP              0 ****  ****    0 ROOT
