@<TRIPOS>MOLECULE
620
   38    40     1     0     0
SMALL
bcc


@<TRIPOS>ATOM
      1 CAR        -0.1700   -1.0770    0.4370 ca        1 620     -0.111500
      2 CAU         1.2120   -1.1860    0.2860 ca        1 620     -0.130500
      3 CAV         2.0610   -0.3000    0.9500 ca        1 620     -0.123000
      4 CAT         1.5260    0.6940    1.7700 ca        1 620     -0.130500
      5 CAS         0.1460    0.8030    1.9280 ca        1 620     -0.111500
      6 CAN        -0.7080   -0.0810    1.2580 ca        1 620     -0.097300
      7 CAM        -2.1830    0.0840    1.4100 c3        1 620      0.175700
      8 OAH        -2.7830   -1.2160    1.2940 os        1 620     -0.324900
      9 CAJ        -4.1550   -1.2570    1.4370 ca        1 620      0.133100
     10 CAK        -4.7070   -2.5500    1.3660 ca        1 620     -0.155000
     11 CAP        -4.9750   -0.1380    1.6300 ca        1 620     -0.196000
     12 CAO        -6.3520   -0.3210    1.7540 ca        1 620     -0.093000
     13 CAQ        -6.9100   -1.5950    1.6910 ca        1 620     -0.146000
     14 CAL        -6.0860   -2.7080    1.4920 ca        1 620     -0.068300
     15 CAI        -6.6860   -4.0790    1.3880 c3        1 620      0.169100
     16 NAF        -6.3510   -4.8940    2.5790 nu        1 620     -0.608500
     17 NAA        -6.5460   -6.2450    2.4470 na        1 620      0.005800
     18 NAC        -6.0810   -7.1150    1.4820 nc        1 620     -0.218800
     19 NAE        -6.6070   -8.2500    1.7000 nd        1 620     -0.020000
     20 NAD        -7.4410   -8.2830    2.7390 nd        1 620     -0.436000
     21 CAB        -7.4570   -7.0040    3.2750 cc        1 620      0.654400
     22 NAG        -8.0660   -6.5400    4.4220 nv        1 620     -0.904500
     23 H1         -0.8440   -1.7770   -0.0800 ha        1 620      0.138500
     24 H2          1.6310   -1.9730   -0.3570 ha        1 620      0.134000
     25 H3          3.1510   -0.3860    0.8280 ha        1 620      0.133000
     26 H4          2.1940    1.3920    2.2960 ha        1 620      0.134000
     27 H5         -0.2720    1.5830    2.5820 ha        1 620      0.138500
     28 H6         -2.4390    0.5210    2.4130 h1        1 620      0.049200
     29 H7         -2.5840    0.7470    0.5950 h1        1 620      0.049200
     30 H8         -4.0430   -3.4110    1.2020 ha        1 620      0.153000
     31 H9         -4.5530    0.8750    1.6830 ha        1 620      0.141000
     32 H10        -7.0020    0.5550    1.9060 ha        1 620      0.137000
     33 H11        -7.9970   -1.7250    1.7950 ha        1 620      0.137000
     34 H12        -6.3380   -4.5430    0.4190 h1        1 620      0.069700
     35 H13        -7.8100   -4.0080    1.3480 h1        1 620      0.069700
     36 H14        -5.3660   -4.7460    2.7960 hn        1 620      0.384800
     37 H15        -8.2060   -5.5560    4.4820 hn        1 620      0.434800
     38 H16        -8.8050   -7.1120    4.7660 hn        1 620      0.434800
@<TRIPOS>BOND
     1    1    2 ar  
     2    1    6 ar  
     3    1   23 1   
     4    2    3 ar  
     5    2   24 1   
     6    3    4 ar  
     7    3   25 1   
     8    4    5 ar  
     9    4   26 1   
    10    5    6 ar  
    11    5   27 1   
    12    6    7 1   
    13    7    8 1   
    14    7   28 1   
    15    7   29 1   
    16    8    9 1   
    17    9   10 ar  
    18    9   11 ar  
    19   10   14 ar  
    20   10   30 1   
    21   11   12 ar  
    22   11   31 1   
    23   12   13 ar  
    24   12   32 1   
    25   13   14 ar  
    26   13   33 1   
    27   14   15 1   
    28   15   16 1   
    29   15   34 1   
    30   15   35 1   
    31   16   17 1   
    32   16   36 1   
    33   17   18 1   
    34   17   21 1   
    35   18   19 2   
    36   19   20 1   
    37   20   21 2   
    38   21   22 1   
    39   22   37 1   
    40   22   38 1   
@<TRIPOS>SUBSTRUCTURE
     1 620         1 TEMP              0 ****  ****    0 ROOT
