@<TRIPOS>MOLECULE
621
   51    45     1     0     0
SMALL
bcc


@<TRIPOS>ATOM
      1 CAT      -244.5140   32.1040    0.1290 c2        1 621      0.465000
      2 OAV      -244.8330   31.2640    0.8610 o         1 621      0.077000
      3 CAU      -243.9230   33.0490    0.2380 c2        1 621     -0.224000
      4 NAS      -246.7040   33.0930    0.0230 n2        1 621     -0.451000
      5 CAQ      1678.0500    0.5370  255.0630 c1        1 621      0.403000
      6 CAP      -131.0230 -123.6440 -399.7240 c2        1 621      0.113000
      7 OAR      -130.0100 -124.1060 -398.9080 os        1 621     -0.334000
      8 NAM      -131.8930 -122.7840 -399.3200 n2        1 621     -0.240000
      9 CAK      -131.9330 -122.2640 -397.9920 c3        1 621     -0.055000
     10 CAJ      -130.8730 -121.1980 -397.6880 c2        1 621      0.282000
     11 OAL      -131.4150 -120.1230 -397.0850 os        1 621     -0.111000
     12 CAN      -129.0000 -124.9030 -399.5470 c3        1 621      0.109000
     13 OAO      -128.1470 -123.9490 -400.0950 oh        1 621     -0.346000
     14 C        -127.2500 -120.8070 -397.2960 c2        1 621      0.105000
     15 N        -129.5820 -121.3090 -397.9860 n3        1 621     -0.228000
     16 CA       -128.6240 -120.2540 -397.6680 c3        1 621     -0.042000
     17 CB       -129.1400 -119.3300 -396.5530 c3        1 621     -0.154000
     18 CG       -130.5760 -119.0260 -396.7370 c2        1 621     -0.067000
     19 CD1       -31.5390 -124.2840 -234.9380 c3        1 621     -0.266000
     20 CD2      -131.2080 -117.8630 -396.5550 c2        1 621     -0.121000
     21 OXT      -125.6290 -122.3590 -398.2060 oh        1 621     -0.091000
     22 HAU      -244.0190   34.0940    0.6550 ha        1 621      0.203000
     23 HAUA     -244.4390   33.0170    0.2350 h4        1 621      0.204000
     24 HAUB     -242.8280   32.8060    0.0990 ha        1 621      0.203000
     25 HNAS     -247.2800   32.5330    0.6230 hn        1 621      0.175000
     26 HAQ      1677.9040    0.5800  254.7160 ha        1 621      0.199000
     27 HAQA     -247.0860   33.0730    0.0970 DU        1 621      0.173000
     28 HNAM     1678.5390    0.3410  256.0390 ha        1 621      0.199000
     29 HAK      1677.7070    0.6900  254.4350 DU        1 621      0.199000
     30 HAN      -129.4110 -125.5210 -400.3880 h2        1 621      0.132500
     31 HANA     -131.8180 -123.0530 -397.1870 h1        1 621      0.161500
     32 HOAO     -127.5250 -123.6520 -399.4100 ho        1 621      0.240000
     33 HN       -129.2160 -122.1540 -398.4170 hn        1 621      0.322000
     34 HA       -128.5580 -125.5150 -398.7180 h2        1 621      0.132500
     35 HB       -128.9760 -119.8140 -395.5500 hc        1 621      0.151000
     36 HBA      -128.4740 -119.6460 -398.6180 h1        1 621      0.161000
     37 HG       -128.5320 -118.3850 -396.5650 hc        1 621      0.151000
     38 HAC      -127.5150 -121.3110 -400.1160 ha        1 621      0.004500
     39 HACA     -127.3640 -121.7090 -400.6460 ha        1 621      0.004500
     40 HD1       -32.0240 -125.2830 -234.9900 hc        1 621      0.066000
     41 HD1A      -30.7040 -124.2390 -235.6700 hc        1 621      0.066000
     42 HD1B      -31.1420 -124.1180 -233.9120 hc        1 621      0.066000
     43 HD2       -32.2850 -123.4960 -235.1780 hc        1 621      0.066000
     44 HD2A     -130.6580 -116.9640 -396.2400 ha        1 621      0.167500
     45 HD2B     -132.2940 -117.7510 -396.6950 ha        1 621      0.167500
     46 HXT      -124.9560 -121.7130 -397.8810 ho        1 621      0.228000
     47 O        -126.5490 -120.2710 -396.4380 o         1 621     -0.206000
     48 HAS2     -246.7120   34.0380    0.3560 hn        1 621      0.175000
     49 HAM2     -131.0760 -124.0380 -400.7610 h5        1 621      0.208000
     50 H2       -132.9450 -121.7690 -397.8730 h1        1 621      0.161500
     51 CAC      -126.8570 -122.0740 -398.0050 c1        1 621     -0.010000
@<TRIPOS>BOND
     1    1    2 1   
     2    1    3 1   
     3    1   23 1   
     4    3   22 1   
     5    3   24 1   
     6    4   25 1   
     7    4   48 1   
     8    5   28 1   
     9    5   29 1   
    10    6    7 1   
    11    6    8 1   
    12    6   49 1   
    13    7   12 1   
    14    8    9 1   
    15    9   10 1   
    16    9   31 1   
    17    9   50 1   
    18   10   11 1   
    19   10   15 1   
    20   11   18 1   
    21   12   13 1   
    22   12   30 1   
    23   12   34 1   
    24   13   32 1   
    25   14   16 1   
    26   14   47 1   
    27   14   51 1   
    28   15   16 1   
    29   15   33 1   
    30   16   17 1   
    31   16   36 1   
    32   17   18 1   
    33   17   35 1   
    34   17   37 1   
    35   18   20 1   
    36   19   40 1   
    37   19   41 1   
    38   19   42 1   
    39   19   43 1   
    40   20   44 1   
    41   20   45 1   
    42   21   46 1   
    43   21   51 1   
    44   26   29 1   
    45   38   39 1   
@<TRIPOS>SUBSTRUCTURE
     1 621         1 TEMP              0 ****  ****    0 ROOT
