@<TRIPOS>MOLECULE
621
   51    47     1     0     0
SMALL
bcc


@<TRIPOS>ATOM
      1 CAT       557.9160 -154.8790    0.6360 c1        1 621      0.445000
      2 OAV       559.0470 -155.0680    0.4980 o         1 621      0.130000
      3 CAU       556.5260 -154.6470    0.8040 c2        1 621     -0.249000
      4 NAS      -185.0120  236.8950   14.7310 n4        1 621      0.048000
      5 CAQ      -184.9520  236.0340   15.8810 c2        1 621     -0.484000
      6 CAP      -183.9560  236.1180   16.8450 c2        1 621      0.351000
      7 OAR      -183.0030  237.1100   16.6190 os        1 621     -0.281000
      8 NAM      -183.8760  235.3220   17.9340 n3        1 621     -0.349000
      9 CAK       -23.4240  -59.1820 -289.1630 c3        1 621     -0.272000
     10 CAJ       -22.3430  -59.1270 -290.2320 c3        1 621      0.082000
     11 OAL       -21.0350  -59.0970 -289.7060 os        1 621     -0.186000
     12 CAN      -181.9840  237.2400   17.5500 c1        1 621      0.152000
     13 OAO      -181.2690  238.2380   17.0610 oh        1 621     -0.253000
     14 C         -21.9990  -62.7360 -291.5080 c2        1 621      0.220000
     15 N         -22.4760  -60.2890 -291.2240 n4        1 621     -0.080000
     16 CA        -21.4830  -61.3920 -290.9840 c3        1 621     -0.124000
     17 CB        -21.1180  -61.5300 -289.5010 c3        1 621     -0.145000
     18 CG        -20.6840  -60.2240 -288.9390 c2        1 621     -0.063000
     19 CD1       -48.8660 -169.3140   21.7460 c3        1 621     -0.266000
     20 CD2       -19.9420  -60.0290 -287.8450 c2        1 621     -0.147000
     21 OXT       -19.6880  -63.2840 -291.4830 oh        1 621     -0.346000
     22 HAU       555.9280 -155.5160    0.3910 ha        1 621      0.224000
     23 HAUA      556.2140 -153.7040    0.2590 ha        1 621      0.224000
     24 HAUB      556.2760 -154.5280    0.9030 DU        1 621      0.224000
     25 HNAS     -185.8960  237.4160   14.7420 hn        1 621      0.249333
     26 HAQ      -185.7630  235.2930   15.9430 hx        1 621      0.207000
     27 HAQA     -184.9680  236.3270   13.8780 hn        1 621      0.249333
     28 HNAM     -184.5610  234.6190   18.0840 hn        1 621      0.277000
     29 HAK       -23.2730  -58.3010 -288.4860 hc        1 621      0.128333
     30 HAN       -24.4430  -59.1100 -289.6140 hc        1 621      0.128333
     31 HANA      -23.3530  -60.1100 -288.5460 hc        1 621      0.128333
     32 HOAO     -180.5160  238.4020   17.6640 ho        1 621      0.308000
     33 HN        -23.4270  -60.6790 -291.1560 hn        1 621      0.254500
     34 HA        -22.3400  -59.9370 -292.1750 hn        1 621      0.254500
     35 HB        -21.9870  -61.9330 -288.9150 hc        1 621      0.144500
     36 HBA       -20.5360  -61.1240 -291.5540 hx        1 621      0.194000
     37 HG        -20.2780  -62.2800 -289.4330 hc        1 621      0.144500
     38 HAC       -21.0830  -64.2610 -292.7180 h1        1 621      0.132500
     39 HACA      -21.1830  -64.6380 -290.9240 h1        1 621      0.132500
     40 HD1       -49.0860 -169.3810   20.6580 hc        1 621      0.066000
     41 HD1A      -49.7250 -168.8400   22.2690 hc        1 621      0.066000
     42 HD1B      -48.7010 -170.3340   22.1550 hc        1 621      0.066000
     43 HD2       -47.9530 -168.7000   21.9020 hc        1 621      0.066000
     44 HD2A      -19.5450  -60.8740 -287.2670 ha        1 621      0.157500
     45 HD2B      -19.6770  -59.0230 -287.4890 ha        1 621      0.157500
     46 HXT       -19.0490  -63.9570 -291.7560 ho        1 621      0.247000
     47 O         -23.1930  -62.8950 -291.7630 o         1 621     -0.260000
     48 HAS2     -184.2300  237.5620   14.7310 hn        1 621      0.249333
     49 HAM2     -183.1340  235.4350   18.5900 hn        1 621      0.277000
     50 H2        -22.4110  -58.1650 -290.8350 hx        1 621      0.176000
     51 CAC       -20.9790  -63.8300 -291.6830 c3        1 621     -0.058000
@<TRIPOS>BOND
     1    1    2 1   
     2    1    3 1   
     3    3   22 1   
     4    3   23 1   
     5    4    5 1   
     6    4   25 1   
     7    4   27 1   
     8    4   48 1   
     9    5    6 1   
    10    5   26 1   
    11    6    7 1   
    12    6    8 1   
    13    7   12 1   
    14    8   28 1   
    15    8   49 1   
    16    9   10 1   
    17    9   29 1   
    18    9   30 1   
    19    9   31 1   
    20   10   11 1   
    21   10   15 1   
    22   10   50 1   
    23   11   18 1   
    24   12   13 1   
    25   13   32 1   
    26   14   16 1   
    27   14   47 1   
    28   14   51 1   
    29   15   16 1   
    30   15   33 1   
    31   15   34 1   
    32   16   17 1   
    33   16   36 1   
    34   17   18 1   
    35   17   35 1   
    36   17   37 1   
    37   18   20 1   
    38   19   40 1   
    39   19   41 1   
    40   19   42 1   
    41   19   43 1   
    42   20   44 1   
    43   20   45 1   
    44   21   46 1   
    45   21   51 1   
    46   38   51 1   
    47   39   51 1   
@<TRIPOS>SUBSTRUCTURE
     1 621         1 TEMP              0 ****  ****    0 ROOT
