@<TRIPOS>MOLECULE
621
   48    43     1     0     0
SMALL
bcc


@<TRIPOS>ATOM
      1 CAT         0.8410   -0.7270    6.7460 c1        1 621      0.295000
      2 OAV         1.7870    0.0340    6.7410 o         1 621     -0.361000
      3 CAU         0.5070   -1.5120    7.9960 c3        1 621     -0.242000
      4 NAS         0.0460   -0.8780    5.5800 n2        1 621     -0.355000
      5 CAQ         0.3080   -0.0790    4.4330 c3        1 621     -0.052000
      6 CAP        -0.1520   -0.8120    3.1930 c1        1 621      0.275000
      7 OAR        -0.1440   -2.0260    3.1670 o         1 621     -0.391000
      8 NAM        -0.5870   -0.0810    2.0570 n2        1 621     -0.354000
      9 CAK        -1.0350   -0.7690    0.8980 c3        1 621      0.009000
     10 CAJ        -0.8120    0.0970   -0.3210 c1        1 621      0.294000
     11 OAL        -1.2940    1.2100   -0.3710 o         1 621     -0.385000
     12 CAN        -2.5100   -1.0780    1.0340 c3        1 621     -0.027000
     13 OAO        -2.6740   -2.4160    1.4480 oh        1 621     -0.338000
     14 C          -1.0500   -0.2540   -3.6030 c1        1 621      0.180000
     15 N          -0.0730   -0.4070   -1.4230 n2        1 621     -0.363000
     16 O          -1.0420   -1.4420   -3.8590 o         1 621     -0.285000
     17 CA         -0.0340    0.3190   -2.6420 c3        1 621     -0.013000
     18 CB          1.3490    0.2130   -3.2470 c3        1 621     -0.170000
     19 CG          1.8450    1.5950   -3.6190 c3        1 621     -0.107000
     20 CAC        -2.0970    0.6460   -4.2230 c2        1 621     -0.069000
     21 CD1         3.1820    1.8450   -2.9580 c3        1 621     -0.213500
     22 CD2         1.9980    1.6880   -5.1210 c3        1 621     -0.213500
     23 OXT        -2.9720   -0.1270   -5.0150 oh        1 621     -0.317000
     24 HAU        -0.3890   -1.2650    8.3060 hc        1 621      0.109333
     25 HAUA        1.1630   -1.3070    8.6950 hc        1 621      0.109333
     26 HAUB        0.5310   -2.4710    7.7950 hc        1 621      0.109333
     27 HNAS       -0.6350   -1.4840    5.5680 hn        1 621      0.232000
     28 HAQ         1.2690    0.0980    4.3710 h1        1 621      0.130000
     29 HAQA       -0.1760    0.7700    4.5090 h1        1 621      0.130000
     30 HNAM       -0.5880    0.8310    2.0750 hn        1 621      0.240000
     31 HAK        -0.5350   -1.6040    0.8010 h1        1 621      0.137000
     32 HAN        -2.9510   -0.9470    0.1690 h1        1 621      0.094000
     33 HANA       -2.9090   -0.4790    1.6980 h1        1 621      0.094000
     34 HOAO       -3.5410   -2.6050    1.5040 ho        1 621      0.212000
     35 HN          0.3630   -1.2050   -1.3520 hn        1 621      0.265000
     36 HA         -0.2420    1.2580   -2.4690 h1        1 621      0.137000
     37 HB          1.9600   -0.1880   -2.5970 hc        1 621      0.102000
     38 HBA         1.3120   -0.3470   -4.0480 hc        1 621      0.102000
     39 HG          1.2020    2.2630   -3.3150 hc        1 621      0.085000
     40 HAC        -2.6060    1.0900   -3.5140 h4        1 621      0.114500
     41 HACA       -1.6590    1.3200   -4.7820 h4        1 621      0.114500
     42 HD1         3.0930    1.7360   -1.9880 hc        1 621      0.078333
     43 HD1A        3.4800    2.7570   -3.1590 hc        1 621      0.078333
     44 HD1B        3.8410    1.2040   -3.3000 hc        1 621      0.078333
     45 HD2         1.1140    1.6630   -5.5420 hc        1 621      0.078333
     46 HD2A        2.5340    0.9330   -5.4420 hc        1 621      0.078333
     47 HD2B        2.4470    2.5280   -5.3520 hc        1 621      0.078333
     48 HXT        -3.4640    0.4110   -5.5240 ho        1 621      0.218000
@<TRIPOS>BOND
     1    1    2 1   
     2    1    3 1   
     3    3   24 1   
     4    3   25 1   
     5    3   26 1   
     6    4    5 1   
     7    4   27 1   
     8    5    6 1   
     9    5   28 1   
    10    5   29 1   
    11    6    7 1   
    12    8    9 1   
    13    8   30 1   
    14    9   10 1   
    15    9   12 1   
    16    9   31 1   
    17   10   11 1   
    18   12   13 1   
    19   12   32 1   
    20   12   33 1   
    21   13   34 1   
    22   14   16 1   
    23   14   17 1   
    24   15   17 1   
    25   15   35 1   
    26   17   18 1   
    27   17   36 1   
    28   18   19 1   
    29   18   37 1   
    30   18   38 1   
    31   19   21 1   
    32   19   22 1   
    33   19   39 1   
    34   20   23 1   
    35   20   40 1   
    36   20   41 1   
    37   21   42 1   
    38   21   43 1   
    39   21   44 1   
    40   22   45 1   
    41   22   46 1   
    42   22   47 1   
    43   23   48 1   
@<TRIPOS>SUBSTRUCTURE
     1 621         1 TEMP              0 ****  ****    0 ROOT
