@<TRIPOS>MOLECULE
621
   48    47     1     0     0
SMALL
bcc


@<TRIPOS>ATOM
      1 CAT         6.2910   -0.3260    0.2870 c         1 621      0.651100
      2 OAV         6.3430   -1.3510    0.9940 o         1 621     -0.600100
      3 CAU         7.4440    0.0960   -0.5880 c3        1 621     -0.174100
      4 NAS         5.1840    0.5200    0.3270 n         1 621     -0.544900
      5 CAQ         3.9650    0.1140    0.9590 c3        1 621      0.012000
      6 CAP         2.8230   -0.1710   -0.0320 c         1 621      0.631100
      7 OAR         2.8340    0.2790   -1.1960 o         1 621     -0.620100
      8 NAM         1.7950   -0.9760    0.4240 n         1 621     -0.534900
      9 CAK         0.5710   -1.1280   -0.3180 c3        1 621      0.032700
     10 CAJ        -0.5960   -0.3280    0.3150 c         1 621      0.652100
     11 OAL        -0.5010    0.2110    1.4350 o         1 621     -0.607100
     12 CAN         0.1520   -2.6110   -0.4380 c3        1 621      0.122400
     13 OAO        -0.2220   -3.0640    0.8490 oh        1 621     -0.598800
     14 C          -4.1010   -0.6090    0.1270 c         1 621      0.516100
     15 N          -1.7380   -0.2050   -0.4500 n         1 621     -0.555900
     16 CA         -2.9450    0.3920    0.0640 c3        1 621      0.008700
     17 CB         -3.4390    1.5930   -0.7640 c3        1 621     -0.081400
     18 CG         -2.4520    2.7470   -0.8110 c3        1 621     -0.063700
     19 CAC        -5.0570   -0.4160    1.2770 c3        1 621      0.033400
     20 CD1        -3.0260    3.8620   -1.6650 c3        1 621     -0.097100
     21 CD2        -2.1150    3.2630    0.5720 c3        1 621     -0.097100
     22 OXT        -6.3000   -1.0480    1.0650 oh        1 621     -0.585800
     23 HAU         7.1270    0.1330   -1.6580 hc        1 621      0.069367
     24 HAUA        7.8180    1.1040   -0.2830 hc        1 621      0.069367
     25 HAUB        8.2700   -0.6470   -0.4770 hc        1 621      0.069367
     26 HNAS        5.0800    1.1710   -0.4210 hn        1 621      0.316500
     27 HAQ         3.6070    0.9580    1.6190 h1        1 621      0.091700
     28 HAQA        4.1630   -0.7910    1.6040 h1        1 621      0.091700
     29 HNAM        1.7280   -1.1710    1.3990 hn        1 621      0.332500
     30 HAK         0.7450   -0.7390   -1.3690 h1        1 621      0.111700
     31 HAN        -0.7190   -2.6970   -1.1430 h1        1 621      0.041200
     32 HANA        1.0070   -3.2190   -0.8390 h1        1 621      0.041200
     33 HOAO       -0.3350   -4.0200    0.7870 ho        1 621      0.411000
     34 HN         -1.8240   -0.7170   -1.2960 hn        1 621      0.320500
     35 HA         -2.7370    0.7500    1.1210 h1        1 621      0.108700
     36 HB         -3.6640    1.2580   -1.8110 hc        1 621      0.052200
     37 HBA        -4.4010    1.9460   -0.3050 hc        1 621      0.052200
     38 HG         -1.5000    2.3890   -1.2970 hc        1 621      0.056700
     39 HAC        -5.3000    0.6720    1.4180 h1        1 621      0.075200
     40 HACA       -4.5740   -0.8170    2.2110 h1        1 621      0.075200
     41 HD1        -3.9610    4.2650   -1.2070 hc        1 621      0.038367
     42 HD1A       -2.2890    4.6960   -1.7550 hc        1 621      0.038367
     43 HD1B       -3.2650    3.4870   -2.6890 hc        1 621      0.038367
     44 HD2        -3.0460    3.4930    1.1450 hc        1 621      0.038367
     45 HD2A       -1.5200    2.5060    1.1400 hc        1 621      0.038367
     46 HD2B       -1.5090    4.1980    0.4950 hc        1 621      0.038367
     47 HXT        -6.1270   -1.9130    0.6680 ho        1 621      0.419000
     48 O          -4.2510   -1.5230   -0.6900 o         1 621     -0.533100
@<TRIPOS>BOND
     1    1    2 2   
     2    1    3 1   
     3    1    4 1   
     4    3   23 1   
     5    3   24 1   
     6    3   25 1   
     7    4    5 1   
     8    4   26 1   
     9    5    6 1   
    10    5   27 1   
    11    5   28 1   
    12    6    7 2   
    13    6    8 1   
    14    8    9 1   
    15    8   29 1   
    16    9   10 1   
    17    9   12 1   
    18    9   30 1   
    19   10   11 2   
    20   10   15 1   
    21   12   13 1   
    22   12   31 1   
    23   12   32 1   
    24   13   33 1   
    25   14   16 1   
    26   14   19 1   
    27   14   48 2   
    28   15   16 1   
    29   15   34 1   
    30   16   17 1   
    31   16   35 1   
    32   17   18 1   
    33   17   36 1   
    34   17   37 1   
    35   18   20 1   
    36   18   21 1   
    37   18   38 1   
    38   19   22 1   
    39   19   39 1   
    40   19   40 1   
    41   20   41 1   
    42   20   42 1   
    43   20   43 1   
    44   21   44 1   
    45   21   45 1   
    46   21   46 1   
    47   22   47 1   
@<TRIPOS>SUBSTRUCTURE
     1 621         1 TEMP              0 ****  ****    0 ROOT
