@<TRIPOS>MOLECULE
621
   51    49     1     0     0
SMALL
bcc


@<TRIPOS>ATOM
      1 CAT       454.6340  150.3420    0.5230 c1        1 621      0.445000
      2 OAV       455.5990  150.5240    0.1320 o         1 621      0.130000
      3 CAU       453.4480  150.1180    0.7760 c3        1 621     -0.249000
      4 NAS       -64.4230  -20.3550 -178.1760 n8        1 621     -0.354000
      5 CAQ       -63.0720  -20.3410 -178.1860 c2        1 621      0.066000
      6 CAP       -62.2840  -20.1370 -179.2970 c2        1 621     -0.232000
      7 OAR       -62.8860  -19.9430 -180.5470 os        1 621     -0.275000
      8 NAM       -60.8650  -20.1360 -179.3450 n8        1 621     -0.325000
      9 CAK       -59.7040  -22.5790 -180.6720 cx        1 621     -0.006000
     10 CAJ       -59.7170  -21.5440 -181.7540 cx        1 621     -0.031000
     11 OAL       -59.5160  -22.9310 -182.0640 os        1 621     -0.318000
     12 CAN       -63.0410  -18.5810 -180.9260 c3        1 621      0.082000
     13 OAO       -61.7900  -18.2410 -181.4820 oh        1 621     -0.392000
     14 C         -62.1690  -20.1180 -184.3200 c2        1 621      0.215000
     15 N         -60.9720  -20.9520 -182.2630 ny        1 621     -0.038000
     16 CA        -61.0790  -21.0590 -183.7550 c3        1 621     -0.120000
     17 CB        -61.4060  -22.4760 -184.2490 c3        1 621     -0.242000
     18 CG        -60.2820  -23.3520 -184.6160 c2        1 621      0.355000
     19 CD1       -60.4760  -24.7880 -184.5390 c3        1 621     -0.321000
     20 CD2       -59.0220  -22.8170 -185.1060 c3        1 621     -0.321000
     21 OXT       -60.9750  -20.4890 -186.3410 oh        1 621     -0.389000
     22 HAU       453.1130  151.0750    0.2720 hc        1 621      0.224000
     23 HAUA      453.6270  149.3340    0.9780 hc        1 621      0.224000
     24 HAUB      452.6160  149.7570    0.4550 hc        1 621      0.224000
     25 HNAS      -64.9150  -20.5380 -177.3350 hn        1 621      0.247000
     26 HAQ       -62.5840  -20.5490 -177.2090 h4        1 621      0.164000
     27 HAQA      -64.9390  -20.1720 -179.0010 hn        1 621      0.247000
     28 HNAM      -60.5020  -20.7670 -178.6550 hn        1 621      0.157000
     29 HAK       -60.5170  -19.2130 -179.1440 hn        1 621      0.157000
     30 HAN       -63.7860  -18.5920 -181.7710 h2        1 621      0.135500
     31 HANA      -60.6450  -22.9550 -180.2250 h1        1 621      0.173500
     32 HOAO      -61.2840  -17.7380 -180.8320 ho        1 621      0.232000
     33 HN        -61.8010  -21.3700 -181.8030 hn        1 621      0.304500
     34 HA        -60.9990  -19.9380 -181.9750 hn        1 621      0.304500
     35 HB        -62.1100  -22.9990 -183.5370 hc        1 621      0.200000
     36 HBA       -60.0880  -20.7130 -184.1840 hx        1 621      0.173000
     37 HG        -61.9900  -22.3660 -185.2310 hc        1 621      0.200000
     38 HAC       -61.5620  -18.5790 -185.6910 h1        1 621      0.149500
     39 HACA      -62.9070  -19.6720 -186.3010 h1        1 621      0.149500
     40 HD1       -61.5490  -25.1000 -184.4410 hc        1 621      0.189333
     41 HD1A      -60.0040  -25.3370 -185.4030 hc        1 621      0.189333
     42 HD1B      -59.9290  -25.1560 -183.6090 hc        1 621      0.189333
     43 HD2       -58.3980  -23.5850 -185.6390 hc        1 621      0.189333
     44 HD2A      -58.4110  -22.4460 -184.2270 hc        1 621      0.189333
     45 HD2B      -59.1850  -21.9360 -185.7930 hc        1 621      0.189333
     46 HXT       -60.8310  -20.1490 -187.2370 ho        1 621      0.263000
     47 O         -63.1420  -19.8010 -183.6480 o         1 621     -0.199000
     48 HAS2      -63.3400  -17.9220 -180.0750 h2        1 621      0.135500
     49 HAM2      -58.8000  -22.6870 -180.0380 h1        1 621      0.173500
     50 H2        -58.8410  -20.8770 -181.9390 hx        1 621      0.207000
     51 CAC       -61.9360  -19.6410 -185.7300 c3        1 621     -0.063000
@<TRIPOS>BOND
     1    1    2 1   
     2    1    3 1   
     3    3   22 1   
     4    3   23 1   
     5    3   24 1   
     6    4    5 1   
     7    4   25 1   
     8    4   27 1   
     9    5    6 1   
    10    5   26 1   
    11    6    7 1   
    12    6    8 1   
    13    7   12 1   
    14    8   28 1   
    15    8   29 1   
    16    9   10 1   
    17    9   11 1   
    18    9   31 1   
    19    9   49 1   
    20   10   11 1   
    21   10   15 1   
    22   10   50 1   
    23   12   13 1   
    24   12   30 1   
    25   12   48 1   
    26   13   32 1   
    27   14   16 1   
    28   14   47 1   
    29   14   51 1   
    30   15   16 1   
    31   15   33 1   
    32   15   34 1   
    33   16   17 1   
    34   16   36 1   
    35   17   18 1   
    36   17   35 1   
    37   17   37 1   
    38   18   19 1   
    39   18   20 1   
    40   19   40 1   
    41   19   41 1   
    42   19   42 1   
    43   20   43 1   
    44   20   44 1   
    45   20   45 1   
    46   21   46 1   
    47   21   51 1   
    48   38   51 1   
    49   39   51 1   
@<TRIPOS>SUBSTRUCTURE
     1 621         1 TEMP              0 ****  ****    0 ROOT
