@<TRIPOS>MOLECULE
623
   49    51     1     0     0
SMALL
bcc


@<TRIPOS>ATOM
      1 C1         -0.9820    0.4460    1.6500 ca        1 623      0.106900
      2 F1         -1.5780    0.7610    0.4860 f         1 623     -0.062400
      3 C2          0.3660    0.0070    1.6810 ca        1 623      0.037700
      4 C3          0.9320   -0.3240    2.9380 ca        1 623      0.106900
      5 F3          2.2120   -0.7250    3.0340 f         1 623     -0.062400
      6 C4          0.1460   -0.2280    4.1170 ca        1 623      0.175300
      7 N5         -1.1540    0.2130    4.0630 na        1 623     -0.102100
      8 C6         -1.7190    0.5570    2.8580 ca        1 623      0.175300
      9 C7          1.1540   -0.1090    0.4410 c3        1 623     -0.105800
     10 O1          0.6060   -0.4000    5.4030 os        1 623     -0.221200
     11 O2         -3.0610    0.8500    2.9530 os        1 623     -0.221200
     12 C21        -3.5180    2.0650    2.4050 ca        1 623      0.071600
     13 C22        -4.7980    1.9960    1.8360 ca        1 623     -0.070500
     14 C23        -5.3970    3.1930    1.4240 ca        1 623     -0.217900
     15 C24        -4.7220    4.4130    1.5570 ca        1 623     -0.084000
     16 C25        -3.4400    4.4460    2.1100 ca        1 623     -0.075000
     17 C26        -2.8270    3.2720    2.5480 ca        1 623     -0.111000
     18 C27        -6.7960    3.1610    0.9310 ce        1 623      0.568800
     19 N21        -7.8760    2.8180    1.5170 n2        1 623     -0.671100
     20 N22        -6.9300    3.6240   -0.4940 n4        1 623     -0.819600
     21 C11         1.2090   -1.6290    5.7370 ca        1 623      0.071600
     22 C12         0.6980   -2.8640    5.3250 ca        1 623     -0.111000
     23 C13         1.2690   -4.0270    5.8410 ca        1 623     -0.075000
     24 C14         2.3180   -3.9540    6.7600 ca        1 623     -0.084000
     25 C15         2.8140   -2.7080    7.1610 ca        1 623     -0.217900
     26 C16         2.2730   -1.5240    6.6430 ca        1 623     -0.070500
     27 C17         3.8590   -2.6190    8.2110 ce        1 623      0.568800
     28 N11         3.8160   -2.1220    9.3850 n2        1 623     -0.671100
     29 N12         5.1660   -3.2360    7.7970 n4        1 623     -0.819600
     30 HN5        -1.6980    0.2860    4.9150 hn        1 623      0.371700
     31 H51         0.8080    0.6280   -0.3310 hc        1 623      0.112367
     32 H52         2.2460    0.0560    0.6370 hc        1 623      0.112367
     33 H53         1.0330   -1.1410    0.0090 hc        1 623      0.112367
     34 H22        -5.3130    1.0260    1.7470 ha        1 623      0.182000
     35 H24        -5.2000    5.3610    1.2580 ha        1 623      0.167000
     36 H25        -2.9140    5.4120    2.2180 ha        1 623      0.191000
     37 H26        -1.8250    3.3050    3.0020 ha        1 623      0.162000
     38 H21        -7.8540    2.5140    2.4700 hn        1 623      0.498400
     39 H221       -6.4420    2.9620   -1.1060 hn        1 623      0.479800
     40 H222       -6.5000    4.5520   -0.5800 hn        1 623      0.479800
     41 H12        -0.1430   -2.9250    4.6170 ha        1 623      0.162000
     42 H13         0.8770   -5.0140    5.5330 ha        1 623      0.191000
     43 H14         2.7230   -4.8890    7.1850 ha        1 623      0.167000
     44 H16         2.6440   -0.5320    6.9490 ha        1 623      0.182000
     45 HN11        2.9700   -1.7090    9.7230 hn        1 623      0.498400
     46 H121        4.9930   -4.2000    7.4890 hn        1 623      0.479800
     47 H122        5.5580   -2.6950    7.0190 hn        1 623      0.479800
     48 H223       -7.9210    3.6820   -0.7820 hn        1 623      0.479800
     49 H123        5.8450   -3.2460    8.5750 hn        1 623      0.479800
@<TRIPOS>BOND
     1    1    2 1   
     2    1    3 ar  
     3    1    8 ar  
     4    3    4 ar  
     5    3    9 1   
     6    4    5 1   
     7    4    6 ar  
     8    6    7 2   
     9    6   10 1   
    10    7    8 1   
    11    7   30 1   
    12    8   11 1   
    13    9   31 1   
    14    9   32 1   
    15    9   33 1   
    16   10   21 1   
    17   11   12 1   
    18   12   13 ar  
    19   12   17 ar  
    20   13   14 ar  
    21   13   34 1   
    22   14   15 ar  
    23   14   18 1   
    24   15   16 ar  
    25   15   35 1   
    26   16   17 ar  
    27   16   36 1   
    28   17   37 1   
    29   18   19 2   
    30   18   20 1   
    31   19   38 1   
    32   20   39 1   
    33   20   40 1   
    34   20   48 1   
    35   21   22 ar  
    36   21   26 ar  
    37   22   23 ar  
    38   22   41 1   
    39   23   24 ar  
    40   23   42 1   
    41   24   25 ar  
    42   24   43 1   
    43   25   26 ar  
    44   25   27 1   
    45   26   44 1   
    46   27   28 2   
    47   27   29 1   
    48   28   45 1   
    49   29   46 1   
    50   29   47 1   
    51   29   49 1   
@<TRIPOS>SUBSTRUCTURE
     1 623         1 TEMP              0 ****  ****    0 ROOT
