@<TRIPOS>MOLECULE
623
   49    51     1     0     0
SMALL
bcc


@<TRIPOS>ATOM
      1 C1         -0.9780    0.4610    1.6480 ca        1 623      0.107400
      2 F1         -1.5720    0.7840    0.4860 f         1 623     -0.062400
      3 C2          0.3710    0.0230    1.6780 ca        1 623      0.037700
      4 C3          0.9350   -0.3170    2.9340 ca        1 623      0.107400
      5 F3          2.2150   -0.7180    3.0300 f         1 623     -0.062400
      6 C4          0.1470   -0.2280    4.1120 ca        1 623      0.174800
      7 N5         -1.1530    0.2130    4.0590 na        1 623     -0.102100
      8 C6         -1.7170    0.5640    2.8560 ca        1 623      0.174800
      9 C7          1.1610   -0.0850    0.4380 c3        1 623     -0.105800
     10 O1          0.6050   -0.4090    5.3980 os        1 623     -0.221200
     11 O2         -3.0590    0.8560    2.9510 os        1 623     -0.221200
     12 C21        -3.5160    2.0750    2.4100 ca        1 623      0.071600
     13 C22        -4.7950    2.0100    1.8400 ca        1 623     -0.070500
     14 C23        -5.3940    3.2090    1.4350 ca        1 623     -0.217900
     15 C24        -4.7190    4.4280    1.5760 ca        1 623     -0.084000
     16 C25        -3.4380    4.4580    2.1300 ca        1 623     -0.075000
     17 C26        -2.8250    3.2800    2.5610 ca        1 623     -0.111000
     18 C27        -6.7930    3.1800    0.9400 ce        1 623      0.568800
     19 N21        -7.8730    2.8340    1.5240 n2        1 623     -0.671100
     20 N22        -6.9260    3.6520   -0.4810 n4        1 623     -0.819600
     21 C11         1.2060   -1.6400    5.7250 ca        1 623      0.071600
     22 C12         0.6970   -2.8720    5.3030 ca        1 623     -0.111000
     23 C13         1.2670   -4.0390    5.8120 ca        1 623     -0.075000
     24 C14         2.3130   -3.9720    6.7350 ca        1 623     -0.084000
     25 C15         2.8080   -2.7280    7.1460 ca        1 623     -0.217900
     26 C16         2.2690   -1.5410    6.6350 ca        1 623     -0.070500
     27 C17         3.8500   -2.6470    8.1990 ce        1 623      0.568800
     28 N11         3.8030   -2.1580    9.3770 n2        1 623     -0.671100
     29 N12         5.1590   -3.2600    7.7840 n4        1 623     -0.819600
     30 HN5        -1.6990    0.2810    4.9110 hn        1 623      0.371700
     31 H51         2.2520    0.0790    0.6370 hc        1 623      0.112367
     32 H52         1.0400   -1.1140    0.0000 hc        1 623      0.112367
     33 H53         0.8150    0.6560   -0.3290 hc        1 623      0.112367
     34 H22        -5.3100    1.0400    1.7450 ha        1 623      0.182000
     35 H24        -5.1980    5.3780    1.2820 ha        1 623      0.167000
     36 H25        -2.9120    5.4230    2.2440 ha        1 623      0.191000
     37 H26        -1.8230    3.3110    3.0160 ha        1 623      0.162000
     38 H21        -7.8510    2.5240    2.4750 hn        1 623      0.498400
     39 H221       -7.9160    3.7110   -0.7710 hn        1 623      0.479800
     40 H222       -6.4370    2.9940   -1.0970 hn        1 623      0.479800
     41 H12        -0.1420   -2.9280    4.5920 ha        1 623      0.162000
     42 H13         0.8760   -5.0230    5.4960 ha        1 623      0.191000
     43 H14         2.7180   -4.9090    7.1540 ha        1 623      0.167000
     44 H16         2.6380   -0.5510    6.9490 ha        1 623      0.182000
     45 HN11        2.9560   -1.7490    9.7160 hn        1 623      0.498400
     46 H121        4.9870   -4.2210    7.4690 hn        1 623      0.479800
     47 H122        5.5520   -2.7120    7.0110 hn        1 623      0.479800
     48 H223       -6.4970    4.5800   -0.5620 hn        1 623      0.479800
     49 H123        5.8360   -3.2750    8.5640 hn        1 623      0.479800
@<TRIPOS>BOND
     1    1    2 1   
     2    1    3 ar  
     3    1    8 ar  
     4    3    4 ar  
     5    3    9 1   
     6    4    5 1   
     7    4    6 ar  
     8    6    7 2   
     9    6   10 1   
    10    7    8 1   
    11    7   30 1   
    12    8   11 1   
    13    9   31 1   
    14    9   32 1   
    15    9   33 1   
    16   10   21 1   
    17   11   12 1   
    18   12   13 ar  
    19   12   17 ar  
    20   13   14 ar  
    21   13   34 1   
    22   14   15 ar  
    23   14   18 1   
    24   15   16 ar  
    25   15   35 1   
    26   16   17 ar  
    27   16   36 1   
    28   17   37 1   
    29   18   19 2   
    30   18   20 1   
    31   19   38 1   
    32   20   39 1   
    33   20   40 1   
    34   20   48 1   
    35   21   22 ar  
    36   21   26 ar  
    37   22   23 ar  
    38   22   41 1   
    39   23   24 ar  
    40   23   42 1   
    41   24   25 ar  
    42   24   43 1   
    43   25   26 ar  
    44   25   27 1   
    45   26   44 1   
    46   27   28 2   
    47   27   29 1   
    48   28   45 1   
    49   29   46 1   
    50   29   47 1   
    51   29   49 1   
@<TRIPOS>SUBSTRUCTURE
     1 623         1 TEMP              0 ****  ****    0 ROOT
