@<TRIPOS>MOLECULE
623
   47    49     1     0     0
SMALL
bcc


@<TRIPOS>ATOM
      1 C1         -0.8610    3.4390    0.9190 ca        1 623      0.078900
      2 F1         -1.6920    4.0540    1.7790 f         1 623     -0.066900
      3 C2         -0.0120    4.1730    0.0610 ca        1 623      0.025700
      4 C3          0.8400    3.4630   -0.8150 ca        1 623      0.078900
      5 F3          1.6740    4.1030   -1.6550 f         1 623     -0.066900
      6 C4          0.8260    2.0370   -0.8150 ca        1 623      0.203800
      7 N5         -0.0070    1.3380    0.0260 na        1 623     -0.169100
      8 C6         -0.8410    2.0130    0.8850 ca        1 623      0.203800
      9 C7         -0.0220    5.6490    0.0720 c3        1 623     -0.089800
     10 O1          1.6740    1.4250   -1.6970 os        1 623     -0.178200
     11 O2         -1.6870    1.3770    1.7520 os        1 623     -0.178200
     12 C21        -1.7540   -0.0290    1.6900 ca        1 623     -0.006900
     13 C22        -2.3270   -0.6500    0.5760 ca        1 623     -0.112000
     14 C23        -2.4730   -2.0400    0.5970 ca        1 623     -0.119900
     15 C24        -2.0740   -2.7740    1.7210 ca        1 623     -0.077000
     16 C25        -1.5280   -2.1240    2.8290 ca        1 623     -0.106000
     17 C26        -1.3530   -0.7400    2.8260 ca        1 623     -0.078000
     18 C27        -3.0200   -2.7310   -0.6190 ce        1 623      0.666800
     19 N21        -2.5050   -2.4050   -1.7680 n2        1 623     -0.857100
     20 N22        -3.9840   -3.7110   -0.3480 nh        1 623     -0.962300
     21 C11         1.7490    0.0180   -1.6680 ca        1 623     -0.006900
     22 C12         1.3530   -0.6680   -2.8210 ca        1 623     -0.078000
     23 C13         1.5350   -2.0510   -2.8550 ca        1 623     -0.106000
     24 C14         2.0830   -2.7230   -1.7620 ca        1 623     -0.077000
     25 C15         2.4770   -2.0130   -0.6210 ca        1 623     -0.119900
     26 C16         2.3230   -0.6250   -0.5670 ca        1 623     -0.112000
     27 C17         3.0270   -2.7290    0.5790 ce        1 623      0.666800
     28 N11         2.5090   -2.4330    1.7350 n2        1 623     -0.857100
     29 N12         3.9970   -3.6970    0.2870 nh        1 623     -0.962300
     30 HN5        -0.0050    0.3230    0.0130 hn        1 623      0.367700
     31 H51        -0.2990    6.0400    1.0850 hc        1 623      0.095700
     32 H52         0.9800    6.0580   -0.2190 hc        1 623      0.095700
     33 H53        -0.7800    6.0240   -0.6670 hc        1 623      0.095700
     34 H22        -2.6600   -0.0600   -0.2920 ha        1 623      0.164500
     35 H24        -2.1790   -3.8720    1.7300 ha        1 623      0.168000
     36 H25        -1.2220   -2.7080    3.7120 ha        1 623      0.166000
     37 H26        -0.9230   -0.2170    3.6940 ha        1 623      0.169000
     38 H21        -2.8680   -2.8710   -2.5710 hn        1 623      0.399400
     39 H221       -4.4550   -3.6540    0.5230 hn        1 623      0.418800
     40 H222       -4.5240   -4.0550   -1.1070 hn        1 623      0.418800
     41 H12         0.9210   -0.1270   -3.6770 ha        1 623      0.169000
     42 H13         1.2320   -2.6160   -3.7520 ha        1 623      0.166000
     43 H14         2.1940   -3.8200   -1.7960 ha        1 623      0.168000
     44 H16         2.6530   -0.0540    0.3140 ha        1 623      0.164500
     45 HN11        2.8730   -2.9160    2.5270 hn        1 623      0.399400
     46 H121        4.4680   -3.6170   -0.5820 hn        1 623      0.418800
     47 H122        4.5380   -4.0560    1.0380 hn        1 623      0.418800
@<TRIPOS>BOND
     1    1    2 1   
     2    1    3 ar  
     3    1    8 ar  
     4    3    4 ar  
     5    3    9 1   
     6    4    5 1   
     7    4    6 ar  
     8    6    7 2   
     9    6   10 1   
    10    7    8 1   
    11    7   30 1   
    12    8   11 1   
    13    9   31 1   
    14    9   32 1   
    15    9   33 1   
    16   10   21 1   
    17   11   12 1   
    18   12   13 ar  
    19   12   17 ar  
    20   13   14 ar  
    21   13   34 1   
    22   14   15 ar  
    23   14   18 1   
    24   15   16 ar  
    25   15   35 1   
    26   16   17 ar  
    27   16   36 1   
    28   17   37 1   
    29   18   19 2   
    30   18   20 1   
    31   19   38 1   
    32   20   39 1   
    33   20   40 1   
    34   21   22 ar  
    35   21   26 ar  
    36   22   23 ar  
    37   22   41 1   
    38   23   24 ar  
    39   23   42 1   
    40   24   25 ar  
    41   24   43 1   
    42   25   26 ar  
    43   25   27 1   
    44   26   44 1   
    45   27   28 2   
    46   27   29 1   
    47   28   45 1   
    48   29   46 1   
    49   29   47 1   
@<TRIPOS>SUBSTRUCTURE
     1 623         1 TEMP              0 ****  ****    0 ROOT
