@<TRIPOS>MOLECULE
623
   47    40     1     0     0
SMALL
bcc


@<TRIPOS>ATOM
      1 C1          0.1330   -0.0770   -2.5660 c1        1 623      0.051000
      2 F1         -0.5050   -0.1670   -3.7580 f         1 623     -0.029000
      3 C2          1.4990   -0.0410   -2.5230 c2        1 623      0.035000
      4 C3          2.1470   -0.0320   -1.3100 c1        1 623      0.051000
      5 F3          3.4840    0.1020   -1.2640 f         1 623     -0.029000
      6 C4          1.4160   -0.0580   -0.1350 c2        1 623      0.178000
      7 N5          0.0380   -0.0940   -0.1810 n2        1 623     -0.171000
      8 C6         -0.6030   -0.1030   -1.3750 c1        1 623      0.177000
      9 C7          2.3300   -0.0380   -3.8570 c3        1 623     -0.217000
     10 O1          2.0870    0.1170    1.1270 os        1 623     -0.088000
     11 O2         -2.0670   -0.1960   -1.4200 os        1 623     -0.089000
     12 C21        -2.6110    1.0850   -1.6130 c2        1 623     -0.044000
     13 C22        -3.7760    1.4570   -0.9240 c2        1 623     -0.140000
     14 C23        -4.4060    2.6740   -1.2160 c1        1 623     -0.098000
     15 C24        -3.8790    3.5150   -2.1870 c1        1 623     -0.084500
     16 C25        -2.7030    3.1400   -2.8820 c1        1 623     -0.084500
     17 C26        -2.0780    1.9270   -2.5900 c1        1 623     -0.083000
     18 C27        -5.7040    3.0540   -0.5040 c2        1 623      0.133000
     19 N21        -5.6600    3.7280    0.6150 n1        1 623     -0.307000
     20 N22        -7.0210    2.6550   -1.0860 n3        1 623     -0.334000
     21 C11         2.5380   -1.1380    1.6040 c2        1 623     -0.055000
     22 C12         2.9030   -2.1390    0.7000 c2        1 623     -0.088000
     23 C13         3.4030   -3.3420    1.1630 c1        1 623     -0.107000
     24 C14         3.5440   -3.5600    2.5250 c1        1 623     -0.077000
     25 C15         3.1810   -2.5640    3.4320 c1        1 623     -0.094000
     26 C16         2.6770   -1.3510    2.9660 c1        1 623     -0.121000
     27 C17         3.3200   -2.8110    4.9520 c2        1 623      0.095000
     28 N11         2.2770   -3.3440    5.6550 n1        1 623     -0.268000
     29 N12         4.5550   -2.4710    5.6320 n3        1 623     -0.326000
     30 HN5        -0.4340   -0.1110    0.5780 hn        1 623      0.306000
     31 H51         1.8830    0.5390   -4.5230 hc        1 623      0.137333
     32 H52         3.2360    0.3080   -3.6770 hc        1 623      0.137333
     33 H53         2.3940   -0.9570   -4.2070 hc        1 623      0.137333
     34 H22        -4.1530    0.8570   -0.2300 ha        1 623      0.157000
     35 H24        -4.3280    4.3800   -2.3930 ha        1 623      0.175500
     36 H25        -2.3310    3.7260   -3.5620 ha        1 623      0.175500
     37 H26        -1.2670    1.6680   -3.0680 ha        1 623      0.171000
     38 H21        -4.8410    3.9750    0.9770 DU        1 623      0.147000
     39 H221       -7.7860    2.8990   -0.6780 hn        1 623      0.218000
     40 H222       -7.0500    2.1300   -1.8170 hn        1 623      0.218000
     41 H12         2.8060   -1.9900   -0.2540 ha        1 623      0.170000
     42 H13         3.6610   -4.0480    0.5210 ha        1 623      0.172000
     43 H14         3.8950   -4.4040    2.8470 ha        1 623      0.173000
     44 H16         2.4210   -0.6470    3.6030 ha        1 623      0.169000
     45 HN11        1.4840   -3.5590    5.2200 DU        1 623      0.147000
     46 H121        5.2620   -2.1050    5.1540 hn        1 623      0.200500
     47 H122        4.6260   -2.5870    6.5330 hn        1 623      0.200500
@<TRIPOS>BOND
     1    1    3 1   
     2    1    8 1   
     3    3    4 1   
     4    3    9 1   
     5    4    6 1   
     6    6    7 1   
     7    6   10 1   
     8    7   30 1   
     9    8   11 1   
    10    9   31 1   
    11    9   32 1   
    12    9   33 1   
    13   10   21 1   
    14   11   12 1   
    15   12   13 1   
    16   12   17 1   
    17   13   14 1   
    18   13   34 1   
    19   14   18 1   
    20   15   16 1   
    21   15   35 1   
    22   16   36 1   
    23   17   37 1   
    24   18   19 1   
    25   18   20 1   
    26   20   39 1   
    27   20   40 1   
    28   21   22 1   
    29   21   26 1   
    30   22   23 1   
    31   22   41 1   
    32   23   42 1   
    33   24   25 1   
    34   24   43 1   
    35   25   27 1   
    36   26   44 1   
    37   27   28 1   
    38   27   29 1   
    39   29   46 1   
    40   29   47 1   
@<TRIPOS>SUBSTRUCTURE
     1 623         1 TEMP              0 ****  ****    0 ROOT
