@<TRIPOS>MOLECULE
623
   49    51     1     0     0
SMALL
bcc


@<TRIPOS>ATOM
      1 C1         -0.9800    0.4590    1.6510 ca        1 623      0.106900
      2 F1         -1.5730    0.7830    0.4890 f         1 623     -0.062400
      3 C2          0.3680    0.0160    1.6800 ca        1 623      0.037700
      4 C3          0.9320   -0.3260    2.9360 ca        1 623      0.106900
      5 F3          2.2100   -0.7310    3.0300 f         1 623     -0.062400
      6 C4          0.1450   -0.2340    4.1150 ca        1 623      0.175300
      7 N5         -1.1540    0.2110    4.0620 na        1 623     -0.102100
      8 C6         -1.7170    0.5640    2.8600 ca        1 623      0.175300
      9 C7          1.1560   -0.0940    0.4400 c3        1 623     -0.105800
     10 O1          0.6040   -0.4170    5.4000 os        1 623     -0.221200
     11 O2         -3.0580    0.8610    2.9560 os        1 623     -0.221200
     12 C21        -3.5110    2.0810    2.4160 ca        1 623      0.071600
     13 C22        -4.7910    2.0200    1.8460 ca        1 623     -0.070500
     14 C23        -5.3860    3.2220    1.4420 ca        1 623     -0.217900
     15 C24        -4.7070    4.4380    1.5820 ca        1 623     -0.084000
     16 C25        -3.4250    4.4640    2.1350 ca        1 623     -0.075000
     17 C26        -2.8160    3.2840    2.5660 ca        1 623     -0.111000
     18 C27        -6.7850    3.1970    0.9470 ce        1 623      0.568800
     19 N21        -7.8660    2.8540    1.5320 n2        1 623     -0.671100
     20 N22        -6.9170    3.6700   -0.4740 nz        1 623     -0.819600
     21 C11         1.2020   -1.6500    5.7260 ca        1 623      0.071600
     22 C12         0.6880   -2.8800    5.3050 ca        1 623     -0.111000
     23 C13         1.2550   -4.0490    5.8130 ca        1 623     -0.075000
     24 C14         2.3030   -3.9850    6.7350 ca        1 623     -0.084000
     25 C15         2.8020   -2.7430    7.1450 ca        1 623     -0.217900
     26 C16         2.2660   -1.5540    6.6350 ca        1 623     -0.070500
     27 C17         3.8460   -2.6640    8.1970 ce        1 623      0.568800
     28 N11         3.8030   -2.1750    9.3740 n2        1 623     -0.671100
     29 N12         5.1520   -3.2820    7.7790 nz        1 623     -0.819600
     30 HN5        -1.6980    0.2810    4.9150 hn        1 623      0.371700
     31 H51         0.8120    0.6480   -0.3270 hc        1 623      0.112367
     32 H52         2.2480    0.0660    0.6380 hc        1 623      0.112367
     33 H53         1.0310   -1.1230    0.0020 hc        1 623      0.112367
     34 H22        -5.3090    1.0520    1.7500 ha        1 623      0.182000
     35 H24        -5.1820    5.3900    1.2890 ha        1 623      0.167000
     36 H25        -2.8960    5.4270    2.2500 ha        1 623      0.191000
     37 H26        -1.8140    3.3120    3.0210 ha        1 623      0.162000
     38 H21        -7.8450    2.5450    2.4820 hn        1 623      0.498400
     39 H221       -6.4310    3.0100   -1.0910 hn        1 623      0.479800
     40 H222       -6.4840    4.5960   -0.5550 hn        1 623      0.479800
     41 H12        -0.1520   -2.9340    4.5950 ha        1 623      0.162000
     42 H13         0.8610   -5.0320    5.4980 ha        1 623      0.191000
     43 H14         2.7050   -4.9230    7.1530 ha        1 623      0.167000
     44 H16         2.6390   -0.5650    6.9480 ha        1 623      0.182000
     45 HN11        2.9580   -1.7630    9.7140 hn        1 623      0.498400
     46 H121        4.9770   -4.2430    7.4650 hn        1 623      0.479800
     47 H122        5.5460   -2.7350    7.0060 hn        1 623      0.479800
     48 H223       -7.9070    3.7330   -0.7630 hn        1 623      0.479800
     49 H123        5.8300   -3.3000    8.5590 hn        1 623      0.479800
@<TRIPOS>BOND
     1    1    2 1   
     2    1    3 ar  
     3    1    8 ar  
     4    3    4 ar  
     5    3    9 1   
     6    4    5 1   
     7    4    6 ar  
     8    6    7 2   
     9    6   10 1   
    10    7    8 1   
    11    7   30 1   
    12    8   11 1   
    13    9   31 1   
    14    9   32 1   
    15    9   33 1   
    16   10   21 1   
    17   11   12 1   
    18   12   13 ar  
    19   12   17 ar  
    20   13   14 ar  
    21   13   34 1   
    22   14   15 ar  
    23   14   18 1   
    24   15   16 ar  
    25   15   35 1   
    26   16   17 ar  
    27   16   36 1   
    28   17   37 1   
    29   18   19 2   
    30   18   20 1   
    31   19   38 1   
    32   20   39 1   
    33   20   40 1   
    34   20   48 1   
    35   21   22 ar  
    36   21   26 ar  
    37   22   23 ar  
    38   22   41 1   
    39   23   24 ar  
    40   23   42 1   
    41   24   25 ar  
    42   24   43 1   
    43   25   26 ar  
    44   25   27 1   
    45   26   44 1   
    46   27   28 2   
    47   27   29 1   
    48   28   45 1   
    49   29   46 1   
    50   29   47 1   
    51   29   49 1   
@<TRIPOS>SUBSTRUCTURE
     1 623         1 TEMP              0 ****  ****    0 ROOT
