@<TRIPOS>MOLECULE
624
   70    72     1     0     0
SMALL
bcc


@<TRIPOS>ATOM
      1 CX          1.3350   -0.9440    1.2360 c         1 624      0.518600
      2 CY          2.6780   -0.4070    0.6730 c3        1 624      0.037500
      3 CZ          0.3300   -1.3330    0.2740 cc        1 624      0.117900
      4 OX          1.1790   -0.9760    2.4630 o         1 624     -0.532100
      5 N02         3.4750    0.2510    1.7740 n4        1 624     -0.685800
      6 C06         3.4550   -1.5550    0.0010 c3        1 624     -0.083400
      7 C07         3.7830   -1.2620   -1.4590 c3        1 624     -0.107400
      8 C08         4.0430   -2.5910   -2.1810 c3        1 624      0.105800
      9 N09         4.3640   -2.3930   -3.6450 n4        1 624     -0.786000
     10 C10         4.6550   -3.6950   -4.3670 c2        1 624      0.613100
     11 N11         5.0900   -3.5210   -5.7990 n4        1 624     -0.821600
     12 NP2         4.5770   -4.8850   -3.9330 n2        1 624     -0.575100
     13 C18         2.8780    1.5820    2.2440 c         1 624      0.540100
     14 O19         2.6940    2.4120    1.3760 o         1 624     -0.385100
     15 C20         2.5950    1.6550    3.7480 c3        1 624      0.039000
     16 N21         2.5190    2.9990    4.2530 n         1 624     -0.383300
     17 C22         3.7440    3.6830    4.5030 c         1 624      0.706700
     18 C23         3.6430    4.9850    5.1820 cc        1 624     -0.245200
     19 C24         2.3830    5.5000    5.4570 cd        1 624      0.250600
     20 N25         1.2350    4.8230    5.1600 nd        1 624     -0.566300
     21 C26         1.2950    3.6120    4.6070 cc        1 624      0.633500
     22 O27         4.8120    3.1580    4.1320 o         1 624     -0.637500
     23 N28         4.8860    5.6420    5.5460 n4        1 624     -0.623800
     24 C30         4.9030    7.1520    5.3020 c3        1 624      0.143500
     25 C31         4.6550    7.9140    6.5950 c3        1 624     -0.143100
     26 C32         6.2350    7.5690    4.6940 c3        1 624     -0.143100
     27 C33         0.0270    2.8760    4.3740 ca        1 624     -0.227900
     28 C34        -0.3750    1.8850    5.2800 ca        1 624     -0.096000
     29 C35        -1.6210    1.2870    5.1330 ca        1 624     -0.107000
     30 C36        -2.4730    1.6670    4.0830 ca        1 624      0.048400
     31 C37        -2.0620    2.6640    3.1780 ca        1 624     -0.001600
     32 C38        -0.8170    3.2830    3.3380 ca        1 624     -0.074000
     33 CL1        -3.9800    0.9330    3.9430 cl        1 624      0.015600
     34 CL2        -3.0610    3.1590    1.9110 cl        1 624     -0.003400
     35 N45         0.5570   -1.4050   -1.0790 nd        1 624     -0.678000
     36 C46        -0.5940   -1.7520   -1.6990 cd        1 624      0.337200
     37 C47        -1.6960   -1.9520   -0.8270 cc        1 624     -0.269400
     38 S48        -1.2690   -1.7070    0.7120 ss        1 624      0.363700
     39 HY          2.4330    0.4070   -0.0780 hx        1 624      0.148700
     40 H02         4.4310    0.4250    1.4450 hn        1 624      0.469300
     41 H061        2.8180   -2.4820    0.0650 hc        1 624      0.092700
     42 H062        4.4070   -1.7880    0.5500 hc        1 624      0.092700
     43 H071        2.9240   -0.7230   -1.9450 hc        1 624      0.095200
     44 H072        4.6880   -0.6020   -1.5190 hc        1 624      0.095200
     45 H081        3.1130   -3.2320   -2.1140 hx        1 624      0.128200
     46 H082        4.9170   -3.1200   -1.7000 hx        1 624      0.128200
     47 H09         3.5550   -1.9280   -4.0890 hn        1 624      0.484300
     48 H111        4.3600   -3.0480   -6.3550 hn        1 624      0.519800
     49 H112        5.2530   -4.4650   -6.2260 hn        1 624      0.519800
     50 HP2         4.3060   -5.1730   -3.0110 hn        1 624      0.545400
     51 H201        3.4220    1.1150    4.3040 h1        1 624      0.145200
     52 H202        1.6110    1.1080    3.9150 h1        1 624      0.145200
     53 H24         2.2140    6.4870    5.9470 h4        1 624      0.226000
     54 H28         5.6510    5.2090    5.0040 hn        1 624      0.467800
     55 H30         4.0740    7.3650    4.5630 hx        1 624      0.104700
     56 H311        4.6060    9.0080    6.3510 hc        1 624      0.088533
     57 H312        5.4870    7.7660    7.3280 hc        1 624      0.088533
     58 H313        3.6890    7.6260    7.0750 hc        1 624      0.088533
     59 H321        7.0860    7.3860    5.3950 hc        1 624      0.088533
     60 H322        6.1920    8.6710    4.4890 hc        1 624      0.088533
     61 H323        6.4320    7.0460    3.7260 hc        1 624      0.088533
     62 H34         0.2650    1.6050    6.1330 ha        1 624      0.158000
     63 H35        -1.9560    0.5290    5.8640 ha        1 624      0.189000
     64 H38        -0.5250    4.1070    2.6650 ha        1 624      0.170000
     65 H46        -0.6450   -1.8460   -2.7920 h4        1 624      0.064100
     66 H47        -2.6950   -2.2310   -1.1880 h4        1 624      0.240000
     67 H022        3.5080   -0.3940    2.5760 hn        1 624      0.469300
     68 H092        5.1800   -1.7650   -3.7110 hn        1 624      0.484300
     69 H113        5.9790   -2.9970   -5.8550 hn        1 624      0.519800
     70 H282        5.0650    5.4680    6.5460 hn        1 624      0.467800
@<TRIPOS>BOND
     1    1    2 1   
     2    1    3 1   
     3    1    4 2   
     4    2    5 1   
     5    2    6 1   
     6    2   39 1   
     7    3   35 2   
     8    3   38 1   
     9    5   13 1   
    10    5   40 1   
    11    5   67 1   
    12    6    7 1   
    13    6   41 1   
    14    6   42 1   
    15    7    8 1   
    16    7   43 1   
    17    7   44 1   
    18    8    9 1   
    19    8   45 1   
    20    8   46 1   
    21    9   10 1   
    22    9   47 1   
    23    9   68 1   
    24   10   11 1   
    25   10   12 2   
    26   11   48 1   
    27   11   49 1   
    28   11   69 1   
    29   12   50 1   
    30   13   14 2   
    31   13   15 1   
    32   15   16 1   
    33   15   51 1   
    34   15   52 1   
    35   16   17 1   
    36   16   21 1   
    37   17   18 1   
    38   17   22 2   
    39   18   19 2   
    40   18   23 1   
    41   19   20 1   
    42   19   53 1   
    43   20   21 2   
    44   21   27 1   
    45   23   24 1   
    46   23   54 1   
    47   23   70 1   
    48   24   25 1   
    49   24   26 1   
    50   24   55 1   
    51   25   56 1   
    52   25   57 1   
    53   25   58 1   
    54   26   59 1   
    55   26   60 1   
    56   26   61 1   
    57   27   28 ar  
    58   27   32 ar  
    59   28   29 ar  
    60   28   62 1   
    61   29   30 ar  
    62   29   63 1   
    63   30   31 ar  
    64   30   33 1   
    65   31   32 ar  
    66   31   34 1   
    67   32   64 1   
    68   35   36 1   
    69   36   37 2   
    70   36   65 1   
    71   37   38 1   
    72   37   66 1   
@<TRIPOS>SUBSTRUCTURE
     1 624         1 TEMP              0 ****  ****    0 ROOT
