@<TRIPOS>MOLECULE
624
   66    61     1     0     0
SMALL
bcc


@<TRIPOS>ATOM
      1 CX          0.2540    0.8760   -3.2940 c1        1 624      0.293000
      2 CY         -0.7950    0.6790   -2.2480 c2        1 624      0.000000
      3 CZ          0.8150   -0.3330   -4.0530 c2        1 624     -0.390000
      4 OX          0.7200    1.9650   -3.4750 o         1 624     -0.276000
      5 N02        -0.2140    0.8430   -0.9510 n         1 624     -0.369000
      6 C06        -1.8990    1.7040   -2.4410 c3        1 624     -0.173000
      7 C07        -2.9940    1.1200   -3.3930 c3        1 624     -0.166000
      8 C08        -4.3120    1.8370   -3.1520 c3        1 624     -0.069000
      9 N09        -5.2060    1.6140   -4.2970 n3        1 624     -0.308000
     10 C10        -6.6000    1.7980   -4.1510 c2        1 624      0.129000
     11 N11        -7.3640    0.8570   -3.4280 n3        1 624     -0.346000
     12 NP2        -7.1880    2.8490   -4.6930 n1        1 624     -0.291000
     13 C18         0.2360   -0.3050   -0.2170 c2        1 624      0.289000
     14 O19         0.9510   -1.1130   -0.7460 o         1 624     -0.360000
     15 C20        -0.2100   -0.5110    1.2480 c3        1 624     -0.059000
     16 N21         0.9750   -0.7050    2.1000 n         1 624     -0.251000
     17 C22         2.2240   -0.1300    1.7210 c2        1 624      0.307000
     18 C23         3.2750    0.0750    2.7410 c2        1 624     -0.036000
     19 C24         3.0640   -0.4180    4.1140 c1        1 624     -0.128000
     20 N25         1.8560   -1.1210    4.4430 n1        1 624     -0.140000
     21 C26         0.8270   -1.3220    3.4280 c2        1 624      0.110000
     22 O27         2.3920    0.2790    0.5690 o         1 624     -0.384000
     23 N28         4.5780    0.6240    2.3500 n3        1 624     -0.272000
     24 C30         5.3160    1.4970    3.2760 c3        1 624      0.006000
     25 C31         5.5640    2.8770    2.6000 c3        1 624     -0.225000
     26 C32         6.6620    0.8460    3.6250 c3        1 624     -0.225000
     27 C33        -0.3310   -2.3030    3.6970 c2        1 624     -0.044000
     28 C34        -0.1570   -3.6610    3.4540 c2        1 624     -0.074000
     29 C35        -1.1290   -4.5670    3.8550 c1        1 624     -0.114000
     30 C36        -2.2750   -4.1150    4.4980 c1        1 624     -0.055000
     31 C37        -2.4450   -2.7650    4.7370 c1        1 624     -0.055000
     32 C38        -1.4710   -1.8580    4.3360 c1        1 624     -0.096000
     33 CL1        -3.4960   -5.2440    4.9920 cl        1 624      0.018500
     34 CL2        -3.8460   -2.2070    5.5780 cl        1 624      0.018500
     35 N45         0.6550   -1.7480   -4.2210 n2        1 624     -0.077000
     36 C46         1.6070   -2.2210   -5.3750 c1        1 624     -0.138000
     37 C47         2.3190   -1.0700   -5.8750 c1        1 624     -0.476000
     38 S48         1.8580    0.1500   -5.0760 ss        1 624      0.627000
     39 HY         -1.1770   -0.2400   -2.3290 h4        1 624      0.161000
     40 H02        -0.1320    1.6840   -0.5850 hn        1 624      0.258000
     41 H061       -1.5200    2.5260   -2.8400 hc        1 624      0.097500
     42 H062       -2.3020    1.9180   -1.5710 hc        1 624      0.097500
     43 H071       -3.1060    0.1660   -3.2160 hc        1 624      0.101000
     44 H072       -2.7240    1.2470   -4.3080 hc        1 624      0.101000
     45 H081       -4.7250    1.4930   -2.3480 h1        1 624      0.071000
     46 H082       -4.1470    2.7970   -3.0490 h1        1 624      0.071000
     47 H09        -4.8630    1.3070   -5.0960 hn        1 624      0.181000
     48 H111       -8.2080    0.6500   -3.7020 hn        1 624      0.187000
     49 H112       -6.9920    0.4120   -2.7310 hn        1 624      0.187000
     50 HP2        -6.6990    3.4500   -5.1550 DU        1 624      0.180333
     51 H201       -0.7100    0.2830    1.5550 h1        1 624      0.141000
     52 H202       -0.7860   -1.3020    1.3060 h1        1 624      0.141000
     53 H24         3.7720   -0.2820    4.8120 ha        1 624      0.176000
     54 H28         4.8960    0.4850    1.5040 hn        1 624      0.224000
     55 H30         4.7900    1.6240    4.0990 h1        1 624      0.086000
     56 H311        4.7090    3.3160    2.4360 hc        1 624      0.084500
     57 H312        6.1130    3.4400    3.1910 hc        1 624      0.084500
     58 H313        6.0320    2.7440    1.7460 hc        1 624      0.084500
     59 H321        7.1630    1.4330    4.2340 hc        1 624      0.084500
     60 H322        6.5030   -0.0200    4.0620 hc        1 624      0.084500
     61 H323        7.1780    0.7080    2.8090 hc        1 624      0.084500
     62 H34         0.6380   -3.9730    3.0090 ha        1 624      0.154000
     63 H35        -1.0070   -5.5170    3.6850 ha        1 624      0.159000
     64 H38        -1.5930   -0.9030    4.5070 ha        1 624      0.158000
     65 H46         1.7020   -3.1450   -5.7030 DU        1 624      0.180333
     66 H47         2.9780   -1.0700   -6.5960 DU        1 624      0.180333
@<TRIPOS>BOND
     1    1    3 1   
     2    1    4 1   
     3    2    5 1   
     4    2    6 1   
     5    2   39 1   
     6    3   35 1   
     7    3   38 1   
     8    5   13 1   
     9    5   40 1   
    10    6    7 1   
    11    6   41 1   
    12    6   42 1   
    13    7    8 1   
    14    7   43 1   
    15    7   44 1   
    16    8    9 1   
    17    8   45 1   
    18    8   46 1   
    19    9   10 1   
    20    9   47 1   
    21   10   11 1   
    22   10   12 1   
    23   11   48 1   
    24   11   49 1   
    25   13   14 1   
    26   13   15 1   
    27   15   16 1   
    28   15   51 1   
    29   15   52 1   
    30   16   17 1   
    31   16   21 1   
    32   17   18 1   
    33   17   22 1   
    34   18   19 1   
    35   18   23 1   
    36   19   53 1   
    37   20   21 1   
    38   21   27 1   
    39   23   24 1   
    40   23   54 1   
    41   24   25 1   
    42   24   26 1   
    43   24   55 1   
    44   25   56 1   
    45   25   57 1   
    46   25   58 1   
    47   26   59 1   
    48   26   60 1   
    49   26   61 1   
    50   27   28 1   
    51   27   32 1   
    52   28   29 1   
    53   28   62 1   
    54   29   63 1   
    55   30   31 1   
    56   30   33 1   
    57   31   34 1   
    58   32   64 1   
    59   35   36 1   
    60   36   37 1   
    61   37   38 1   
@<TRIPOS>SUBSTRUCTURE
     1 624         1 TEMP              0 ****  ****    0 ROOT
