@<TRIPOS>MOLECULE
624
   70    72     1     0     0
SMALL
bcc


@<TRIPOS>ATOM
      1 CX          1.3620   -0.9750    1.2650 c         1 624      0.518600
      2 CY          2.6910   -0.4250    0.6830 c3        1 624      0.037500
      3 CZ          0.3510   -1.3850    0.3170 cc        1 624      0.117900
      4 OX          1.2200   -1.0000    2.4940 o         1 624     -0.532100
      5 N02         3.4910    0.2520    1.7710 ny        1 624     -0.685800
      6 C06         3.4760   -1.5680    0.0120 c3        1 624     -0.083400
      7 C07         3.7850   -1.2830   -1.4540 c3        1 624     -0.107400
      8 C08         4.0550   -2.6140   -2.1670 c3        1 624      0.105800
      9 N09         4.3580   -2.4240   -3.6360 ny        1 624     -0.786000
     10 C10         4.6590   -3.7270   -4.3510 c2        1 624      0.613100
     11 N11         5.0770   -3.5590   -5.7890 nz        1 624     -0.821600
     12 NP2         4.6010   -4.9150   -3.9070 n2        1 624     -0.575100
     13 C18         2.8810    1.5790    2.2370 c         1 624      0.540100
     14 O19         2.6750    2.3990    1.3640 o         1 624     -0.385100
     15 C20         2.6140    1.6600    3.7430 c3        1 624      0.039000
     16 N21         2.5250    3.0070    4.2380 n         1 624     -0.383300
     17 C22         3.7430    3.7110    4.4660 c         1 624      0.706700
     18 C23         3.6310    5.0180    5.1360 cc        1 624     -0.245200
     19 C24         2.3660    5.5160    5.4220 cd        1 624      0.250600
     20 N25         1.2250    4.8200    5.1450 nd        1 624     -0.566300
     21 C26         1.2960    3.6050    4.6020 cc        1 624      0.633500
     22 O27         4.8130    3.1990    4.0870 o         1 624     -0.637500
     23 N28         4.8680    5.6960    5.4790 ny        1 624     -0.623800
     24 C30         4.8600    7.2040    5.2220 c3        1 624      0.143500
     25 C31         4.6160    7.9730    6.5110 c3        1 624     -0.143100
     26 C32         6.1780    7.6350    4.5940 c3        1 624     -0.143100
     27 C33         0.0360    2.8490    4.3920 ca        1 624     -0.227900
     28 C34        -0.3380    1.8580    5.3100 ca        1 624     -0.096000
     29 C35        -1.5770    1.2410    5.1830 ca        1 624     -0.107000
     30 C36        -2.4490    1.6000    4.1430 ca        1 624      0.048400
     31 C37        -2.0660    2.5970    3.2250 ca        1 624     -0.001600
     32 C38        -0.8270    3.2350    3.3640 ca        1 624     -0.073000
     33 Cl1        -3.9460    0.8430    4.0280 cl        1 624      0.015600
     34 Cl2        -3.0880    3.0670    1.9680 cl        1 624     -0.003400
     35 N45         0.5660   -1.4650   -1.0380 nd        1 624     -0.678000
     36 C46        -0.5870   -1.8330   -1.6430 cd        1 624      0.337200
     37 C47        -1.6770   -2.0400   -0.7570 cc        1 624     -0.269400
     38 S48        -1.2370   -1.7770    0.7740 ss        1 624      0.363700
     39 HY          2.4270    0.3800   -0.0710 hx        1 624      0.148700
     40 H02         3.5410   -0.3860    2.5780 hn        1 624      0.469300
     41 H061        4.4380   -1.7840    0.5530 hc        1 624      0.092700
     42 H062        2.8530   -2.5030    0.0900 hc        1 624      0.092700
     43 H071        2.9140   -0.7590   -1.9350 hc        1 624      0.095200
     44 H072        4.6810   -0.6110   -1.5280 hc        1 624      0.095200
     45 H081        3.1340   -3.2670   -2.0860 hx        1 624      0.128200
     46 H082        4.9410   -3.1280   -1.6920 hx        1 624      0.128200
     47 H09         3.5390   -1.9720   -4.0760 hn        1 624      0.484300
     48 H111        5.2470   -4.5040   -6.2100 hn        1 624      0.519800
     49 H112        5.9570   -3.0240   -5.8590 hn        1 624      0.519800
     50 HP2         4.3430   -5.1990   -2.9800 hn        1 624      0.545400
     51 H201        3.4550    1.1370    4.2940 h1        1 624      0.145200
     52 H202        1.6400    1.1000    3.9260 h1        1 624      0.145200
     53 H24         2.1890    6.5050    5.9050 h4        1 624      0.226000
     54 H28         5.6330    5.2690    4.9310 hn        1 624      0.467800
     55 H30         4.0180    7.3980    4.4920 hx        1 624      0.104700
     56 H311        4.5490    9.0640    6.2590 hc        1 624      0.088533
     57 H312        3.6600    7.6750    7.0060 hc        1 624      0.088533
     58 H313        5.4590    7.8440    7.2350 hc        1 624      0.088533
     59 H321        6.1160    8.7340    4.3800 hc        1 624      0.088533
     60 H322        6.3710    7.1070    3.6280 hc        1 624      0.088533
     61 H323        7.0400    7.4700    5.2860 hc        1 624      0.088533
     62 H34         0.3170    1.5940    6.1550 ha        1 624      0.158000
     63 H35        -1.8910    0.4830    5.9240 ha        1 624      0.189000
     64 H38        -0.5570    4.0590    2.6810 ha        1 624      0.170000
     65 H46        -0.6480   -1.9350   -2.7340 h4        1 624      0.064100
     66 H47        -2.6760   -2.3350   -1.1070 h4        1 624      0.240000
     67 H022        4.4410    0.4370    1.4300 hn        1 624      0.469300
     68 H092        5.1650   -1.7850   -3.7160 hn        1 624      0.484300
     69 H113        4.3340   -3.1000   -6.3410 hn        1 624      0.519800
     70 H282        5.0610    5.5330    6.4780 hn        1 624      0.467800
@<TRIPOS>BOND
     1    1    2 1   
     2    1    3 1   
     3    1    4 2   
     4    2    5 1   
     5    2    6 1   
     6    2   39 1   
     7    3   35 2   
     8    3   38 1   
     9    5   13 1   
    10    5   40 1   
    11    5   67 1   
    12    6    7 1   
    13    6   41 1   
    14    6   42 1   
    15    7    8 1   
    16    7   43 1   
    17    7   44 1   
    18    8    9 1   
    19    8   45 1   
    20    8   46 1   
    21    9   10 1   
    22    9   47 1   
    23    9   68 1   
    24   10   11 1   
    25   10   12 2   
    26   11   48 1   
    27   11   49 1   
    28   11   69 1   
    29   12   50 1   
    30   13   14 2   
    31   13   15 1   
    32   15   16 1   
    33   15   51 1   
    34   15   52 1   
    35   16   17 1   
    36   16   21 1   
    37   17   18 1   
    38   17   22 2   
    39   18   19 2   
    40   18   23 1   
    41   19   20 1   
    42   19   53 1   
    43   20   21 2   
    44   21   27 1   
    45   23   24 1   
    46   23   54 1   
    47   23   70 1   
    48   24   25 1   
    49   24   26 1   
    50   24   55 1   
    51   25   56 1   
    52   25   57 1   
    53   25   58 1   
    54   26   59 1   
    55   26   60 1   
    56   26   61 1   
    57   27   28 ar  
    58   27   32 ar  
    59   28   29 ar  
    60   28   62 1   
    61   29   30 ar  
    62   29   63 1   
    63   30   31 ar  
    64   30   33 1   
    65   31   32 ar  
    66   31   34 1   
    67   32   64 1   
    68   35   36 1   
    69   36   37 2   
    70   36   65 1   
    71   37   38 1   
    72   37   66 1   
@<TRIPOS>SUBSTRUCTURE
     1 624         1 TEMP              0 ****  ****    0 ROOT
