@<TRIPOS>MOLECULE
624
   70    72     1     0     0
SMALL
bcc


@<TRIPOS>ATOM
      1 CX          1.3550   -0.9710    1.2680 c         1 624      0.518600
      2 CY          2.6900   -0.4300    0.6910 c3        1 624      0.037500
      3 CZ          0.3480   -1.3820    0.3160 cc        1 624      0.117900
      4 OX          1.2050   -0.9890    2.4960 o         1 624     -0.532100
      5 N02         3.4860    0.2500    1.7800 n4        1 624     -0.685800
      6 C06         3.4740   -1.5790    0.0300 c3        1 624     -0.083400
      7 C07         3.7920   -1.3030   -1.4350 c3        1 624     -0.107400
      8 C08         4.0600   -2.6390   -2.1410 c3        1 624      0.105800
      9 N09         4.3720   -2.4580   -3.6090 n4        1 624     -0.786000
     10 C10         4.6720   -3.7650   -4.3150 c2        1 624      0.613100
     11 N11         5.0990   -3.6060   -5.7520 n4        1 624     -0.821600
     12 NP2         4.6090   -4.9510   -3.8650 n2        1 624     -0.575100
     13 C18         2.8790    1.5800    2.2360 c         1 624      0.540100
     14 O19         2.6810    2.3980    1.3580 o         1 624     -0.385100
     15 C20         2.6030    1.6700    3.7400 c3        1 624      0.039000
     16 N21         2.5170    3.0190    4.2290 n         1 624     -0.383300
     17 C22         3.7370    3.7190    4.4610 c         1 624      0.706700
     18 C23         3.6270    5.0290    5.1240 cc        1 624     -0.245200
     19 C24         2.3630    5.5350    5.4010 cd        1 624      0.250600
     20 N25         1.2200    4.8430    5.1200 nd        1 624     -0.566300
     21 C26         1.2890    3.6250    4.5830 cc        1 624      0.633500
     22 O27         4.8070    3.2000    4.0900 o         1 624     -0.637500
     23 N28         4.8650    5.7030    5.4720 n4        1 624     -0.623800
     24 C30         4.8640    7.2100    5.2110 c3        1 624      0.143500
     25 C31         4.6160    7.9840    6.4970 c3        1 624     -0.143100
     26 C32         6.1880    7.6340    4.5900 c3        1 624     -0.143100
     27 C33         0.0270    2.8730    4.3680 ca        1 624     -0.227900
     28 C34        -0.3570    1.8870    5.2880 ca        1 624     -0.096000
     29 C35        -1.5980    1.2750    5.1570 ca        1 624     -0.108000
     30 C36        -2.4620    1.6340    4.1110 ca        1 624      0.048400
     31 C37        -2.0700    2.6270    3.1920 ca        1 624     -0.000600
     32 C38        -0.8300    3.2600    3.3350 ca        1 624     -0.073000
     33 CL1        -3.9630    0.8830    3.9910 cl        1 624      0.015600
     34 CL2        -3.0840    3.0970    1.9280 cl        1 624     -0.003400
     35 N45         0.5700   -1.4700   -1.0370 nd        1 624     -0.678000
     36 C46        -0.5810   -1.8360   -1.6470 cd        1 624      0.337200
     37 C47        -1.6770   -2.0340   -0.7660 cc        1 624     -0.269400
     38 S48        -1.2450   -1.7650    0.7670 ss        1 624      0.363700
     39 HY          2.4340    0.3720   -0.0690 hx        1 624      0.148700
     40 H02         4.4380    0.4290    1.4440 hn        1 624      0.469300
     41 H061        4.4310   -1.7970    0.5770 hc        1 624      0.092700
     42 H062        2.8460   -2.5120    0.1100 hc        1 624      0.092700
     43 H071        4.6910   -0.6350   -1.5080 hc        1 624      0.095200
     44 H072        2.9250   -0.7780   -1.9240 hc        1 624      0.095200
     45 H081        4.9420   -3.1530   -1.6580 hx        1 624      0.128200
     46 H082        3.1380   -3.2880   -2.0610 hx        1 624      0.128200
     47 H09         5.1810   -1.8220   -3.6880 hn        1 624      0.484300
     48 H111        4.3610   -3.1480   -6.3100 hn        1 624      0.519800
     49 H112        5.2690   -4.5550   -6.1670 hn        1 624      0.519800
     50 HP2         4.3440   -5.2290   -2.9380 hn        1 624      0.545400
     51 H201        1.6260    1.1150    3.9210 h1        1 624      0.145200
     52 H202        3.4390    1.1460    4.2990 h1        1 624      0.145200
     53 H24         2.1870    6.5260    5.8780 h4        1 624      0.226000
     54 H28         5.6310    5.2720    4.9290 hn        1 624      0.467800
     55 H30         4.0280    7.4060    4.4750 hx        1 624      0.104700
     56 H311        5.4540    7.8540    7.2260 hc        1 624      0.088533
     57 H312        4.5540    9.0750    6.2400 hc        1 624      0.088533
     58 H313        3.6560    7.6910    6.9870 hc        1 624      0.088533
     59 H321        6.3840    7.1040    3.6260 hc        1 624      0.088533
     60 H322        7.0450    7.4680    5.2870 hc        1 624      0.088533
     61 H323        6.1310    8.7330    4.3730 hc        1 624      0.088533
     62 H34         0.2930    1.6230    6.1370 ha        1 624      0.157000
     63 H35        -1.9190    0.5210    5.8990 ha        1 624      0.189000
     64 H38        -0.5520    4.0800    2.6510 ha        1 624      0.170000
     65 H46        -0.6360   -1.9440   -2.7380 h4        1 624      0.064100
     66 H47        -2.6750   -2.3260   -1.1200 h4        1 624      0.240000
     67 H022        3.5300   -0.3850    2.5900 hn        1 624      0.469300
     68 H092        3.5560   -2.0060   -4.0550 hn        1 624      0.484300
     69 H113        5.9820   -3.0740   -5.8190 hn        1 624      0.519800
     70 H282        5.0530    5.5430    6.4730 hn        1 624      0.467800
@<TRIPOS>BOND
     1    1    2 1   
     2    1    3 1   
     3    1    4 2   
     4    2    5 1   
     5    2    6 1   
     6    2   39 1   
     7    3   35 2   
     8    3   38 1   
     9    5   13 1   
    10    5   40 1   
    11    5   67 1   
    12    6    7 1   
    13    6   41 1   
    14    6   42 1   
    15    7    8 1   
    16    7   43 1   
    17    7   44 1   
    18    8    9 1   
    19    8   45 1   
    20    8   46 1   
    21    9   10 1   
    22    9   47 1   
    23    9   68 1   
    24   10   11 1   
    25   10   12 2   
    26   11   48 1   
    27   11   49 1   
    28   11   69 1   
    29   12   50 1   
    30   13   14 2   
    31   13   15 1   
    32   15   16 1   
    33   15   51 1   
    34   15   52 1   
    35   16   17 1   
    36   16   21 1   
    37   17   18 1   
    38   17   22 2   
    39   18   19 2   
    40   18   23 1   
    41   19   20 1   
    42   19   53 1   
    43   20   21 2   
    44   21   27 1   
    45   23   24 1   
    46   23   54 1   
    47   23   70 1   
    48   24   25 1   
    49   24   26 1   
    50   24   55 1   
    51   25   56 1   
    52   25   57 1   
    53   25   58 1   
    54   26   59 1   
    55   26   60 1   
    56   26   61 1   
    57   27   28 ar  
    58   27   32 ar  
    59   28   29 ar  
    60   28   62 1   
    61   29   30 ar  
    62   29   63 1   
    63   30   31 ar  
    64   30   33 1   
    65   31   32 ar  
    66   31   34 1   
    67   32   64 1   
    68   35   36 1   
    69   36   37 2   
    70   36   65 1   
    71   37   38 1   
    72   37   66 1   
@<TRIPOS>SUBSTRUCTURE
     1 624         1 TEMP              0 ****  ****    0 ROOT
