@<TRIPOS>MOLECULE
624
   66    68     1     0     0
SMALL
bcc


@<TRIPOS>ATOM
      1 CX         -3.1180    1.3270    1.9760 c         1 624      0.481600
      2 CY         -2.4610    0.4560    0.8950 c3        1 624      0.029700
      3 CZ         -4.0610    2.3580    1.4920 cc        1 624      0.279900
      4 OX         -2.8750    1.1950    3.1780 o         1 624     -0.512100
      5 N02        -1.0790    0.1680    1.1960 n         1 624     -0.548900
      6 C06        -3.3190   -0.8160    0.7640 c3        1 624     -0.081400
      7 C07        -2.9240   -1.6340   -0.4440 c3        1 624     -0.116400
      8 C08        -3.8940   -2.8040   -0.6190 c3        1 624      0.165800
      9 N09        -3.6430   -3.6900   -1.7350 nh        1 624     -0.782200
     10 C10        -3.8950   -3.1120   -3.0450 c2        1 624      0.739100
     11 N11        -5.2720   -2.9630   -3.3880 nh        1 624     -0.933800
     12 NP2        -2.8910   -2.8880   -3.8540 n2        1 624     -0.867100
     13 C18        -0.0490    0.9200    0.6900 c         1 624      0.642100
     14 O19        -0.2290    1.8580   -0.1120 o         1 624     -0.610100
     15 C20         1.3810    0.5710    1.1510 c3        1 624      0.008000
     16 N21         1.8670   -0.6900    0.6450 n         1 624     -0.361300
     17 C22         1.4740   -1.8730    1.3020 c         1 624      0.673700
     18 C23         1.9490   -3.1640    0.7270 cc        1 624      0.008800
     19 C24         2.8040   -3.0980   -0.3600 cd        1 624      0.027600
     20 N25         3.2150   -1.9170   -0.9310 nd        1 624     -0.576300
     21 C26         2.7580   -0.7700   -0.4480 cc        1 624      0.501500
     22 O27         0.7650   -1.8050    2.3310 o         1 624     -0.662500
     23 N28         1.4110   -4.3350    1.2610 nh        1 624     -0.698000
     24 C30         2.1950   -5.5620    1.1910 c3        1 624      0.190500
     25 C31         3.5500   -5.4990    1.8980 c3        1 624     -0.114600
     26 C32         1.4030   -6.7450    1.7500 c3        1 624     -0.114600
     27 C33         3.2580    0.4840   -1.0790 ca        1 624     -0.139900
     28 C34         4.6360    0.7340   -1.0620 ca        1 624     -0.082000
     29 C35         5.1450    1.8630   -1.6960 ca        1 624     -0.129000
     30 C36         4.2840    2.7440   -2.3610 ca        1 624      0.031400
     31 C37         2.9040    2.4880   -2.3850 ca        1 624      0.014400
     32 C38         2.3910    1.3560   -1.7400 ca        1 624     -0.082000
     33 CL1         4.9360    4.1070   -3.1290 cl        1 624     -0.062400
     34 CL2         1.8360    3.5290   -3.1880 cl        1 624     -0.052400
     35 N45        -4.8920    2.1850    0.4490 nd        1 624     -0.613000
     36 C46        -5.6290    3.3320    0.2600 cd        1 624      0.327200
     37 C47        -5.3470    4.3660    1.1530 cc        1 624     -0.270400
     38 S48        -4.1800    3.9000    2.2310 ss        1 624      0.043700
     39 HY         -2.4880    1.0230   -0.0860 h1        1 624      0.114700
     40 H02        -0.8960   -0.5000    1.9150 hn        1 624      0.348500
     41 H061       -3.2290   -1.4350    1.6950 hc        1 624      0.062700
     42 H062       -4.3910   -0.4970    0.6690 hc        1 624      0.062700
     43 H071       -2.9350   -0.9890   -1.3620 hc        1 624      0.057700
     44 H072       -1.8800   -2.0230   -0.3230 hc        1 624      0.057700
     45 H081       -3.8520   -3.4490    0.3070 h1        1 624      0.053200
     46 H082       -4.9410   -2.3980   -0.7000 h1        1 624      0.053200
     47 H09        -2.7140   -4.0720   -1.6900 hn        1 624      0.401800
     48 H111       -5.4740   -2.1480   -3.9230 hn        1 624      0.395300
     49 H112       -5.9230   -3.1200   -2.6520 hn        1 624      0.395300
     50 HP2        -3.1270   -2.5870   -4.7740 hn        1 624      0.394400
     51 H201        1.3980    0.5370    2.2810 h1        1 624      0.100200
     52 H202        2.0500    1.4100    0.8030 h1        1 624      0.100200
     53 H24         3.2190   -3.9980   -0.8490 h4        1 624      0.176000
     54 H28         0.9860   -4.1910    2.1580 hn        1 624      0.414800
     55 H30         2.3830   -5.7590    0.0920 h1        1 624      0.061700
     56 H311        4.1710   -4.6660    1.4880 hc        1 624      0.045033
     57 H312        3.4210   -5.3430    2.9950 hc        1 624      0.045033
     58 H313        4.0950   -6.4600    1.7380 hc        1 624      0.045033
     59 H321        1.2160   -6.6210    2.8440 hc        1 624      0.045033
     60 H322        0.4230   -6.8530    1.2280 hc        1 624      0.045033
     61 H323        1.9960   -7.6780    1.5940 hc        1 624      0.045033
     62 H34         5.3200    0.0330   -0.5580 ha        1 624      0.153000
     63 H35         6.2280    2.0600   -1.6810 ha        1 624      0.156000
     64 H38         1.3020    1.1700   -1.7450 ha        1 624      0.181000
     65 H46        -6.3640    3.3630   -0.5530 h4        1 624      0.048100
     66 H47        -5.8260    5.3430    1.1400 h4        1 624      0.187000
@<TRIPOS>BOND
     1    1    2 1   
     2    1    3 1   
     3    1    4 2   
     4    2    5 1   
     5    2    6 1   
     6    2   39 1   
     7    3   35 2   
     8    3   38 1   
     9    5   13 1   
    10    5   40 1   
    11    6    7 1   
    12    6   41 1   
    13    6   42 1   
    14    7    8 1   
    15    7   43 1   
    16    7   44 1   
    17    8    9 1   
    18    8   45 1   
    19    8   46 1   
    20    9   10 1   
    21    9   47 1   
    22   10   11 1   
    23   10   12 2   
    24   11   48 1   
    25   11   49 1   
    26   12   50 1   
    27   13   14 2   
    28   13   15 1   
    29   15   16 1   
    30   15   51 1   
    31   15   52 1   
    32   16   17 1   
    33   16   21 1   
    34   17   18 1   
    35   17   22 2   
    36   18   19 2   
    37   18   23 1   
    38   19   20 1   
    39   19   53 1   
    40   20   21 2   
    41   21   27 1   
    42   23   24 1   
    43   23   54 1   
    44   24   25 1   
    45   24   26 1   
    46   24   55 1   
    47   25   56 1   
    48   25   57 1   
    49   25   58 1   
    50   26   59 1   
    51   26   60 1   
    52   26   61 1   
    53   27   28 ar  
    54   27   32 ar  
    55   28   29 ar  
    56   28   62 1   
    57   29   30 ar  
    58   29   63 1   
    59   30   31 ar  
    60   30   33 1   
    61   31   32 ar  
    62   31   34 1   
    63   32   64 1   
    64   35   36 1   
    65   36   37 2   
    66   36   65 1   
    67   37   38 1   
    68   37   66 1   
@<TRIPOS>SUBSTRUCTURE
     1 624         1 TEMP              0 ****  ****    0 ROOT
