@<TRIPOS>MOLECULE
625
   55    58     1     0     0
SMALL
bcc


@<TRIPOS>ATOM
      1 C1         -4.7950    0.0370   -0.5040 c1        1 625      0.208700
      2 N1         -5.8060    0.1940    0.0490 n1        1 625     -0.366800
      3 O1         -0.0150    0.3180   -0.1880 os        1 625     -0.328900
      4 CL1         9.7560    1.8550   -1.7750 cl        1 625     -0.090400
      5 C2         10.4100   -2.5390   -1.1110 ca        1 625     -0.134000
      6 N2          7.7960    0.9660    0.9900 nb        1 625     -0.701000
      7 C3         11.4650   -1.6360   -0.9860 ca        1 625     -0.117000
      8 N3          6.4260   -0.3970   -1.2350 na        1 625     -0.034100
      9 C4          6.3150    1.0290    3.3880 ca        1 625     -0.059000
     10 N4          9.2610    2.6490    1.8410 nh        1 625     -0.923500
     11 C5          9.1380   -2.0820   -1.4450 ca        1 625     -0.117000
     12 C6          3.6060    0.5870   -0.2100 ca        1 625     -0.089000
     13 C7          2.9290   -0.2860   -2.3620 ca        1 625     -0.089000
     14 C8          2.2790    0.6440    0.1940 ca        1 625     -0.181000
     15 C9          1.5920   -0.2350   -1.9740 ca        1 625     -0.181000
     16 C10        11.2490   -0.2770   -1.1950 ca        1 625     -0.131000
     17 C11         5.7710    0.4920   -3.2290 cc        1 625     -0.180000
     18 C12         7.1790    0.2710   -3.2830 cc        1 625     -0.171000
     19 C13         5.9840    0.1280    2.3750 ca        1 625     -0.296300
     20 C14         7.3790    1.9040    3.2120 ca        1 625     -0.295300
     21 C15         3.9480    0.1190   -1.4880 ca        1 625     -0.044000
     22 C16         8.8990   -0.7150   -1.6590 ca        1 625      0.004000
     23 C17         1.2680    0.2290   -0.6940 ca        1 625      0.125100
     24 C18         9.9700    0.1850   -1.5300 ca        1 625      0.055400
     25 C19         5.3220    0.0870   -1.9560 cd        1 625     -0.067300
     26 C20         7.5660   -0.2750   -2.0450 cd        1 625     -0.057300
     27 C21         6.7560    0.1360    1.1960 ca        1 625      0.417600
     28 C22         8.1230    1.8450    1.9920 ca        1 625      0.636200
     29 C23        -3.5440   -0.1620   -1.2000 c3        1 625     -0.020300
     30 C25        -2.3580    0.1910   -0.3230 c3        1 625     -0.085400
     31 C26        -1.0670   -0.0370   -1.0910 c3        1 625      0.128400
     32 H2         10.5820   -3.6130   -0.9490 ha        1 625      0.135000
     33 H3         12.4710   -1.9940   -0.7210 ha        1 625      0.136000
     34 H4          5.7330    1.0500    4.3210 ha        1 625      0.138000
     35 HN4         9.6430    2.6950    0.9200 hn        1 625      0.406800
     36 HN4A        9.1930    3.5300    2.2980 hn        1 625      0.406800
     37 H5          8.3090   -2.7970   -1.5570 ha        1 625      0.138000
     38 H6          4.3970    0.9240    0.4810 ha        1 625      0.144500
     39 H7          3.1920   -0.6470   -3.3690 ha        1 625      0.144500
     40 H8          2.0030    1.0120    1.1920 ha        1 625      0.143000
     41 H9          0.8130   -0.5590   -2.6770 ha        1 625      0.143000
     42 H10        12.0820    0.4360   -1.0950 ha        1 625      0.145000
     43 H11         5.1490    0.9050   -4.0180 ha        1 625      0.152000
     44 H12         7.8380    0.4790   -4.1200 ha        1 625      0.156000
     45 H13         5.1450   -0.5690    2.4920 ha        1 625      0.144000
     46 H14         7.6530    2.6190    3.9980 ha        1 625      0.144000
     47 H23        -3.5380    0.4740   -2.1290 hc        1 625      0.074200
     48 H23A       -3.4750   -1.2380   -1.5250 hc        1 625      0.074200
     49 H24         5.3750   -1.2800    0.3280 h1        1 625      0.077700
     50 H24A        7.1540   -1.7230    0.1980 h1        1 625      0.077700
     51 H25        -2.4160    1.2630    0.0000 hc        1 625      0.070700
     52 H25A       -2.3570   -0.4380    0.6050 hc        1 625      0.070700
     53 H26        -0.9580   -1.1130   -1.3890 h1        1 625      0.041700
     54 H26A       -1.0180    0.6140   -2.0040 h1        1 625      0.041700
     55 C24         6.4080   -0.8780    0.1150 c3        1 625     -0.015000
@<TRIPOS>BOND
     1    1    2 3   
     2    1   29 1   
     3    3   23 1   
     4    3   31 1   
     5    4   24 1   
     6    5    7 ar  
     7    5   11 ar  
     8    5   32 1   
     9    6   27 ar  
    10    6   28 ar  
    11    7   16 ar  
    12    7   33 1   
    13    8   25 1   
    14    8   26 1   
    15    8   55 1   
    16    9   19 ar  
    17    9   20 ar  
    18    9   34 1   
    19   10   28 1   
    20   10   35 1   
    21   10   36 1   
    22   11   22 ar  
    23   11   37 1   
    24   12   14 ar  
    25   12   21 ar  
    26   12   38 1   
    27   13   15 ar  
    28   13   21 ar  
    29   13   39 1   
    30   14   23 ar  
    31   14   40 1   
    32   15   23 ar  
    33   15   41 1   
    34   16   24 ar  
    35   16   42 1   
    36   17   18 1   
    37   17   25 2   
    38   17   43 1   
    39   18   26 2   
    40   18   44 1   
    41   19   27 ar  
    42   19   45 1   
    43   20   28 ar  
    44   20   46 1   
    45   21   25 1   
    46   22   24 ar  
    47   22   26 1   
    48   27   55 1   
    49   29   30 1   
    50   29   47 1   
    51   29   48 1   
    52   30   31 1   
    53   30   51 1   
    54   30   52 1   
    55   31   53 1   
    56   31   54 1   
    57   49   55 1   
    58   50   55 1   
@<TRIPOS>SUBSTRUCTURE
     1 625         1 TEMP              0 ****  ****    0 ROOT
