@<TRIPOS>MOLECULE
625
   55    58     1     0     0
SMALL
bcc


@<TRIPOS>ATOM
      1 C1         -4.8020    0.0880   -0.4270 c1        1 625      0.208700
      2 N1         -5.8040    0.2490    0.1390 n1        1 625     -0.366800
      3 O1         -0.0150    0.3060   -0.1590 os        1 625     -0.328900
      4 Cl1         9.7340    1.8120   -1.8380 cl        1 625     -0.082400
      5 C2         10.3860   -2.5820   -1.1740 ca        1 625     -0.135000
      6 N2          7.6400    1.0660    0.8940 nb        1 625     -0.701000
      7 C3         11.4440   -1.6800   -1.0590 ca        1 625     -0.119000
      8 N3          6.4040   -0.4400   -1.2810 na        1 625     -0.033100
      9 C4          6.4300    0.8370    3.4290 ca        1 625     -0.058000
     10 N4          8.7980    3.0240    1.6150 nv        1 625     -0.925500
     11 C5          9.1140   -2.1230   -1.5010 ca        1 625     -0.118000
     12 C6          3.6060    0.5590   -0.2270 ca        1 625     -0.087500
     13 C7          2.8970   -0.3060   -2.3720 ca        1 625     -0.087500
     14 C8          2.2840    0.6230    0.1940 ca        1 625     -0.180500
     15 C9          1.5660   -0.2490   -1.9670 ca        1 625     -0.180500
     16 C10        11.2280   -0.3210   -1.2700 ca        1 625     -0.136000
     17 C11         5.7390    0.4550   -3.2700 cc        1 625     -0.180000
     18 C12         7.1470    0.2300   -3.3320 cc        1 625     -0.167000
     19 C13         6.0930   -0.0450    2.4030 ca        1 625     -0.298300
     20 C14         7.3580    1.8430    3.1980 ca        1 625     -0.298300
     21 C15         3.9290    0.0920   -1.5100 ca        1 625     -0.046000
     22 C16         8.8750   -0.7570   -1.7160 ca        1 625      0.004000
     23 C17         1.2610    0.2140   -0.6820 ca        1 625      0.125100
     24 C18         9.9470    0.1420   -1.5950 ca        1 625      0.048400
     25 C19         5.2980    0.0520   -1.9940 cd        1 625     -0.062300
     26 C20         7.5410   -0.3160   -2.0970 cd        1 625     -0.060300
     27 C21         6.7290    0.1100    1.1540 ca        1 625      0.416600
     28 C22         7.9450    1.9510    1.8990 ca        1 625      0.638200
     29 C23        -3.5610   -0.1150   -1.1400 c3        1 625     -0.020300
     30 C25        -2.3610    0.2120   -0.2700 c3        1 625     -0.085400
     31 C26        -1.0810   -0.0260   -1.0550 c3        1 625      0.128400
     32 H2         10.5580   -3.6560   -1.0110 ha        1 625      0.135000
     33 H3         12.4520   -2.0400   -0.8030 ha        1 625      0.136000
     34 H4          5.9590    0.7380    4.4190 ha        1 625      0.137000
     35 HN4         9.2960    2.9740    0.7530 hn        1 625      0.408300
     36 HN4A        9.3450    3.3230    2.3900 hn        1 625      0.408300
     37 H5          8.2820   -2.8370   -1.6070 ha        1 625      0.139000
     38 H6          4.4070    0.8940    0.4530 ha        1 625      0.144500
     39 H7          3.1450   -0.6670   -3.3830 ha        1 625      0.144500
     40 H8          2.0240    0.9920    1.1950 ha        1 625      0.143000
     41 H9          0.7760   -0.5680   -2.6600 ha        1 625      0.143000
     42 H10        12.0640    0.3890   -1.1810 ha        1 625      0.144000
     43 H11         5.1140    0.8700   -4.0540 ha        1 625      0.152000
     44 H12         7.8000    0.4380   -4.1730 ha        1 625      0.156000
     45 H13         5.3550   -0.8410    2.5610 ha        1 625      0.143000
     46 H14         7.6270    2.5510    3.9920 ha        1 625      0.143000
     47 H23        -3.5580    0.5340   -2.0590 hc        1 625      0.074200
     48 H23A       -3.5080   -1.1870   -1.4800 hc        1 625      0.074200
     49 H24         7.1540   -1.7420    0.1610 h1        1 625      0.076700
     50 H24A        5.3680   -1.3230    0.2900 h1        1 625      0.076700
     51 H25        -2.3590   -0.4270    0.6510 hc        1 625      0.071200
     52 H25A       -2.4010    1.2810    0.0650 hc        1 625      0.071200
     53 H26        -1.0340    0.6330   -1.9620 h1        1 625      0.041200
     54 H26A       -0.9900   -1.1010   -1.3640 h1        1 625      0.041200
     55 C24         6.3950   -0.9080    0.0720 c3        1 625     -0.014000
@<TRIPOS>BOND
     1    1    2 3   
     2    1   29 1   
     3    3   23 1   
     4    3   31 1   
     5    4   24 1   
     6    5    7 ar  
     7    5   11 ar  
     8    5   32 1   
     9    6   27 ar  
    10    6   28 ar  
    11    7   16 ar  
    12    7   33 1   
    13    8   25 1   
    14    8   26 1   
    15    8   55 1   
    16    9   19 ar  
    17    9   20 ar  
    18    9   34 1   
    19   10   28 1   
    20   10   35 1   
    21   10   36 1   
    22   11   22 ar  
    23   11   37 1   
    24   12   14 ar  
    25   12   21 ar  
    26   12   38 1   
    27   13   15 ar  
    28   13   21 ar  
    29   13   39 1   
    30   14   23 ar  
    31   14   40 1   
    32   15   23 ar  
    33   15   41 1   
    34   16   24 ar  
    35   16   42 1   
    36   17   18 1   
    37   17   25 2   
    38   17   43 1   
    39   18   26 2   
    40   18   44 1   
    41   19   27 ar  
    42   19   45 1   
    43   20   28 ar  
    44   20   46 1   
    45   21   25 1   
    46   22   24 ar  
    47   22   26 1   
    48   27   55 1   
    49   29   30 1   
    50   29   47 1   
    51   29   48 1   
    52   30   31 1   
    53   30   51 1   
    54   30   52 1   
    55   31   53 1   
    56   31   54 1   
    57   49   55 1   
    58   50   55 1   
@<TRIPOS>SUBSTRUCTURE
     1 625         1 TEMP              0 ****  ****    0 ROOT
