@<TRIPOS>MOLECULE
625
   55    43     1     0     0
SMALL
bcc


@<TRIPOS>ATOM
      1 C1         -8.1060   -2.0470    5.0720 c1        1 625     -0.145000
      2 N1         -8.8380   -2.9050    5.3730 n1        1 625     -0.040000
      3 O1         -4.9730   -0.5720    1.6360 os        1 625     -0.207000
      4 CL1         2.3150    0.3620   -5.3300 cl        1 625     -0.010000
      5 C2          5.0530   -1.8030   -2.6460 c1        1 625     -0.124125
      6 N2          3.3210    2.5470   -1.2700 n1        1 625     -0.189000
      7 C3          5.2940   -1.0810   -3.8190 c1        1 625     -0.124125
      8 N3          0.9530   -0.0630   -0.9940 n2        1 625     -0.104000
      9 C4          4.3280    1.8400    1.2190 c1        1 625     -0.124125
     10 N4          5.2430    3.9170   -1.7710 n3        1 625     -0.320000
     11 C5          3.7820   -1.8070   -2.0770 c1        1 625     -0.124125
     12 C6         -1.1940   -0.5990    1.6770 c1        1 625     -0.082000
     13 C7         -2.2590   -0.1130   -0.4230 c1        1 625     -0.124125
     14 C8         -2.4420   -0.5530    2.3220 c1        1 625     -0.206000
     15 C9         -3.5050   -0.0680    0.2250 c1        1 625     -0.124125
     16 C10         4.2600   -0.3600   -4.4230 c1        1 625     -0.124125
     17 C11        -0.2430   -1.8890   -1.4390 c1        1 625     -0.174500
     18 C12         0.8610   -1.9000   -2.2390 c1        1 625     -0.174500
     19 C13         3.0900    1.3880    0.8220 c1        1 625     -0.124125
     20 C14         5.0680    2.6430    0.3820 c1        1 625     -0.227000
     21 C15        -1.1110   -0.3770    0.3020 c1        1 625     -0.051000
     22 C16         2.7440   -1.0860   -2.6790 c1        1 625     -0.008000
     23 C17        -3.5860   -0.2880    1.5930 c1        1 625      0.081000
     24 C18         2.9870   -0.3610   -3.8570 c1        1 625     -0.046000
     25 C19        -0.1920   -0.7500   -0.6620 c1        1 625     -0.047500
     26 C20         1.6020   -0.7650   -1.9600 c1        1 625     -0.047500
     27 C21         2.5820    1.7460   -0.4370 c1        1 625     -0.003000
     28 C22         4.5650    3.0010   -0.8700 c1        1 625      0.105000
     29 C23        -7.1290   -0.9010    4.6710 c2        1 625     -0.071000
     30 C24         1.0640    1.3660   -0.8260 c2        1 625      0.014000
     31 C25        -6.8680   -0.9530    3.1370 c3        1 625     -0.196000
     32 C26        -5.6320   -0.0460    2.7810 c3        1 625     -0.022000
     33 H2          5.8000   -2.3220   -2.2130 ha        1 625      0.143750
     34 H3          6.1880   -1.0790   -4.2170 ha        1 625      0.143750
     35 H4          4.6810    1.5900    2.0950 ha        1 625      0.143750
     36 HN4         4.8740    4.1160   -2.5850 hn        1 625      0.196500
     37 HN4A        6.0360    4.2710   -1.5390 hn        1 625      0.196500
     38 H5          3.6110   -2.3260   -1.2340 ha        1 625      0.143750
     39 H6         -0.4190   -0.7780    2.1700 ha        1 625      0.142000
     40 H7         -2.2030    0.0490   -1.4270 ha        1 625      0.143750
     41 H8         -2.5020   -0.7090    3.2950 ha        1 625      0.137000
     42 H9         -4.3380    0.1230   -0.3000 ha        1 625      0.143750
     43 H10         4.4320    0.1500   -5.2530 ha        1 625      0.143750
     44 H11        -0.9530   -2.5750   -1.4190 DU        1 625      0.154500
     45 H12         1.0930   -2.5970   -2.9030 DU        1 625      0.154500
     46 H13         2.5520    0.8040    1.4320 ha        1 625      0.143750
     47 H14         5.9440    2.9630    0.6640 ha        1 625      0.142000
     48 H23        -7.5290   -0.0290    4.9080 ha        1 625      0.112500
     49 H23A       -6.2580   -1.0160    5.1630 ha        1 625      0.112500
     50 H24         0.4480    1.6620   -0.0950 ha        1 625      0.126500
     51 H24A        0.8070    1.8340   -1.6980 ha        1 625      0.126500
     52 H25        -6.6830   -1.8740    2.8670 hc        1 625      0.109000
     53 H25A       -7.6840   -0.6170    2.6460 hc        1 625      0.109000
     54 H26        -4.9860   -0.0270    3.5610 h1        1 625      0.097500
     55 H26A       -5.9420    0.8670    2.5930 h1        1 625      0.097500
@<TRIPOS>BOND
     1    1    2 1   
     2    3   23 1   
     3    3   32 1   
     4    4   24 1   
     5    5   11 1   
     6    5   33 1   
     7    6   27 1   
     8    7   16 1   
     9    7   34 1   
    10    8   25 1   
    11    8   26 1   
    12    9   19 1   
    13    9   35 1   
    14   10   28 1   
    15   10   36 1   
    16   10   37 1   
    17   11   38 1   
    18   12   21 1   
    19   12   39 1   
    20   13   15 1   
    21   13   40 1   
    22   14   23 1   
    23   14   41 1   
    24   15   42 1   
    25   16   43 1   
    26   17   18 1   
    27   17   25 1   
    28   18   26 1   
    29   19   46 1   
    30   20   28 1   
    31   20   47 1   
    32   22   24 1   
    33   27   30 1   
    34   29   31 1   
    35   29   48 1   
    36   29   49 1   
    37   30   50 1   
    38   30   51 1   
    39   31   32 1   
    40   31   52 1   
    41   31   53 1   
    42   32   54 1   
    43   32   55 1   
@<TRIPOS>SUBSTRUCTURE
     1 625         1 TEMP              0 ****  ****    0 ROOT
