@<TRIPOS>MOLECULE
625
   56    59     1     0     0
SMALL
bcc


@<TRIPOS>ATOM
      1 C1         -4.8490   -0.2020   -0.5170 c1        1 625      0.201700
      2 N1         -5.8620   -0.0770    0.0390 n1        1 625     -0.350800
      3 O1         -0.0890    0.2830   -0.2060 os        1 625     -0.323900
      4 CL1         9.7690    1.9690   -1.4600 cl        1 625     -0.111400
      5 C2         10.3250   -2.4820   -1.0860 ca        1 625     -0.110000
      6 N2          7.8180    0.9780    0.9440 nb        1 625     -0.635000
      7 C3         11.4010   -1.6120   -0.9080 ca        1 625     -0.112000
      8 N3          6.3540   -0.3400   -1.1720 na        1 625     -0.060100
      9 C4          6.5100    1.2030    3.4190 ca        1 625     -0.068000
     10 N4          9.3630    2.7200    1.4880 n4        1 625     -0.848300
     11 C5          9.0630   -1.9820   -1.3940 ca        1 625     -0.118000
     12 C6          3.5130    0.6830   -0.1770 ca        1 625     -0.082000
     13 C7          2.9040   -0.2410   -2.3290 ca        1 625     -0.082000
     14 C8          2.1800    0.6980    0.2070 ca        1 625     -0.181500
     15 C9          1.5600   -0.2340   -1.9610 ca        1 625     -0.181500
     16 C10        11.2120   -0.2370   -1.0300 ca        1 625     -0.135000
     17 C11         5.7700    0.7440   -3.0910 cc        1 625     -0.172000
     18 C12         7.1850    0.5320   -3.1110 cc        1 625     -0.141000
     19 C13         6.0720    0.2860    2.4680 ca        1 625     -0.187300
     20 C14         7.6030    2.0350    3.1390 ca        1 625     -0.203300
     21 C15         3.8910    0.2130   -1.4440 ca        1 625     -0.076000
     22 C16         8.8490   -0.5990   -1.5270 ca        1 625      0.022000
     23 C17         1.1970    0.2330   -0.6910 ca        1 625      0.149100
     24 C18         9.9380    0.2610   -1.3230 ca        1 625      0.017400
     25 C19         5.2770    0.2280   -1.8810 cd        1 625     -0.041300
     26 C20         7.5320   -0.1190   -1.9180 cd        1 625     -0.091300
     27 C21         6.7560    0.2020    1.2290 ca        1 625      0.419600
     28 C22         8.2150    1.8780    1.8810 ca        1 625      0.450200
     29 C23        -3.5940   -0.3600   -1.2180 c3        1 625     -0.018300
     30 C26        -1.1240   -0.1340   -1.1100 c3        1 625      0.126400
     31 H2         10.4770   -3.5700   -0.9980 ha        1 625      0.154000
     32 H3         12.4040   -2.0090   -0.6840 ha        1 625      0.154000
     33 H4          5.9980    1.2880    4.3940 ha        1 625      0.180000
     34 HN4         9.6370    2.5030    0.4830 hn        1 625      0.470800
     35 HN4A       10.1510    2.5240    2.1090 hn        1 625      0.470800
     36 H5          8.2230   -2.6730   -1.5660 ha        1 625      0.155000
     37 H6          4.2790    1.0630    0.5160 ha        1 625      0.133000
     38 H7          3.1940   -0.6040   -3.3280 ha        1 625      0.133000
     39 H8          1.8720    1.0730    1.1930 ha        1 625      0.151500
     40 H9          0.8030   -0.5950   -2.6710 ha        1 625      0.151500
     41 H10        12.0670    0.4460   -0.9160 ha        1 625      0.147000
     42 H11         5.1780    1.2160   -3.8710 ha        1 625      0.168000
     43 H12         7.8660    0.8080   -3.9120 ha        1 625      0.167000
     44 H13         5.2060   -0.3650    2.6650 ha        1 625      0.183000
     45 H14         7.9500    2.7720    3.8780 ha        1 625      0.169000
     46 H23        -3.6180    0.2640   -2.1550 hc        1 625      0.076200
     47 H23A       -3.4830   -1.4370   -1.5280 hc        1 625      0.076200
     48 H24         5.2450   -1.1160    0.4150 h1        1 625      0.096700
     49 H24A        6.9840   -1.7090    0.2710 h1        1 625      0.096700
     50 H25        -2.3990   -0.5610    0.5910 hc        1 625      0.072200
     51 H25A       -2.5260    1.1270   -0.0400 hc        1 625      0.072200
     52 H26        -0.9660   -1.2090   -1.3870 h1        1 625      0.046700
     53 H26A       -1.0970    0.5060   -2.0310 h1        1 625      0.046700
     54 H43         9.0960    3.7040    1.5660 hn        1 625      0.470800
     55 C24         6.3060   -0.8080    0.1760 c3        1 625     -0.012000
     56 C25        -2.4240    0.0540   -0.3460 c3        1 625     -0.086400
@<TRIPOS>BOND
     1    1    2 3   
     2    1   29 1   
     3    3   23 1   
     4    3   30 1   
     5    4   24 1   
     6    5    7 ar  
     7    5   11 ar  
     8    5   31 1   
     9    6   27 ar  
    10    6   28 ar  
    11    7   16 ar  
    12    7   32 1   
    13    8   25 1   
    14    8   26 1   
    15    8   55 1   
    16    9   19 ar  
    17    9   20 ar  
    18    9   33 1   
    19   10   28 1   
    20   10   34 1   
    21   10   35 1   
    22   10   54 1   
    23   11   22 ar  
    24   11   36 1   
    25   12   14 ar  
    26   12   21 ar  
    27   12   37 1   
    28   13   15 ar  
    29   13   21 ar  
    30   13   38 1   
    31   14   23 ar  
    32   14   39 1   
    33   15   23 ar  
    34   15   40 1   
    35   16   24 ar  
    36   16   41 1   
    37   17   18 1   
    38   17   25 2   
    39   17   42 1   
    40   18   26 2   
    41   18   43 1   
    42   19   27 ar  
    43   19   44 1   
    44   20   28 ar  
    45   20   45 1   
    46   21   25 1   
    47   22   24 ar  
    48   22   26 1   
    49   27   55 1   
    50   29   46 1   
    51   29   47 1   
    52   29   56 1   
    53   30   52 1   
    54   30   53 1   
    55   30   56 1   
    56   48   55 1   
    57   49   55 1   
    58   50   56 1   
    59   51   56 1   
@<TRIPOS>SUBSTRUCTURE
     1 625         1 TEMP              0 ****  ****    0 ROOT
