@<TRIPOS>MOLECULE
625
   55    58     1     0     0
SMALL
bcc


@<TRIPOS>ATOM
      1 C1          9.9250    0.0350   -0.0230 c1        1 625      0.208700
      2 N1         10.9360    0.6090   -0.0060 n1        1 625     -0.366800
      3 O1          5.1430    0.4180    0.0940 os        1 625     -0.328900
      4 CL1        -4.6620   -0.6890    1.8260 cl        1 625     -0.090400
      5 C2         -5.2360   -1.2310   -2.5960 ca        1 625     -0.134000
      6 N2         -2.6720    1.7340    0.2620 nb        1 625     -0.701000
      7 C3         -6.3060   -0.8670   -1.7790 ca        1 625     -0.117000
      8 N3         -1.2900   -0.7760   -0.4280 na        1 625     -0.034100
      9 C4         -1.1780    4.0590   -0.2930 ca        1 625     -0.059000
     10 N4         -4.1620    3.0070    1.6270 nh        1 625     -0.923500
     11 C5         -3.9740   -1.4300   -2.0420 ca        1 625     -0.117000
     12 C6          1.5180    0.4720    0.2940 ca        1 625     -0.089000
     13 C7          2.1970   -1.8350    0.0440 ca        1 625     -0.089000
     14 C8          2.8470    0.8760    0.2640 ca        1 625     -0.181000
     15 C9          3.5350   -1.4490    0.0130 ca        1 625     -0.181000
     16 C10        -6.1140   -0.7030   -0.4100 ca        1 625     -0.131000
     17 C11        -0.6610   -2.4590    0.9770 cc        1 625     -0.180000
     18 C12        -2.0660   -2.5690    0.7520 cc        1 625     -0.171000
     19 C13        -0.8370    2.8410   -0.8830 ca        1 625     -0.296300
     20 C14        -2.2590    4.1250    0.5760 ca        1 625     -0.295300
     21 C15         1.1770   -0.8840    0.1820 ca        1 625     -0.044000
     22 C16        -3.7600   -1.2690   -0.6650 ca        1 625      0.004000
     23 C17         3.8590   -0.0920    0.1200 ca        1 625      0.125100
     24 C18        -4.8450   -0.9020    0.1480 ca        1 625      0.055400
     25 C19        -0.1990   -1.3420    0.2520 cd        1 625     -0.067300
     26 C20        -2.4370   -1.5240   -0.1130 cd        1 625     -0.057300
     27 C21        -1.6160    1.7080   -0.5730 ca        1 625      0.417600
     28 C22        -3.0090    2.9360    0.8330 ca        1 625      0.636200
     29 C23         8.6740   -0.6890   -0.0460 c3        1 625     -0.020300
     30 C25         7.4870    0.2530    0.0420 c3        1 625     -0.085400
     31 C26         6.1960   -0.5480    0.0090 c3        1 625      0.128400
     32 H2         -5.3880   -1.3630   -3.6770 ha        1 625      0.135000
     33 H3         -7.3040   -0.7080   -2.2140 ha        1 625      0.136000
     34 H4         -0.5910    4.9630   -0.5140 ha        1 625      0.138000
     35 HN4        -4.5500    2.1320    1.9110 hn        1 625      0.406800
     36 HN4A       -4.1060    3.6830    2.3540 hn        1 625      0.406800
     37 H5         -3.1330   -1.7310   -2.6860 ha        1 625      0.138000
     38 H6          0.7260    1.2290    0.4190 ha        1 625      0.144500
     39 H7          1.9360   -2.9020   -0.0370 ha        1 625      0.144500
     40 H8          3.1210    1.9360    0.3560 ha        1 625      0.143000
     41 H9          4.3160   -2.2140   -0.0970 ha        1 625      0.143000
     42 H10        -6.9590   -0.4140    0.2340 ha        1 625      0.145000
     43 H11        -0.0520   -3.1080    1.5970 ha        1 625      0.152000
     44 H12        -2.7330   -3.3180    1.1670 ha        1 625      0.156000
     45 H13         0.0150    2.7660   -1.5710 ha        1 625      0.144000
     46 H14        -2.5410    5.0750    1.0490 ha        1 625      0.144000
     47 H23         8.6180   -1.2910   -0.9950 hc        1 625      0.074200
     48 H23A        8.6550   -1.4120    0.8170 hc        1 625      0.074200
     49 H24        -0.2150    0.4910   -1.6790 h1        1 625      0.077700
     50 H24A       -1.9880    0.2470   -2.1030 h1        1 625      0.077700
     51 H25         7.5320    0.8520    0.9880 hc        1 625      0.070700
     52 H25A        7.4990    0.9770   -0.8140 hc        1 625      0.070700
     53 H26         6.1340   -1.2530    0.8800 h1        1 625      0.041700
     54 H26A        6.1010   -1.1240   -0.9490 h1        1 625      0.041700
     55 C24        -1.2560    0.3940   -1.2530 c3        1 625     -0.015000
@<TRIPOS>BOND
     1    1    2 3   
     2    1   29 1   
     3    3   23 1   
     4    3   31 1   
     5    4   24 1   
     6    5    7 ar  
     7    5   11 ar  
     8    5   32 1   
     9    6   27 ar  
    10    6   28 ar  
    11    7   16 ar  
    12    7   33 1   
    13    8   25 1   
    14    8   26 1   
    15    8   55 1   
    16    9   19 ar  
    17    9   20 ar  
    18    9   34 1   
    19   10   28 1   
    20   10   35 1   
    21   10   36 1   
    22   11   22 ar  
    23   11   37 1   
    24   12   14 ar  
    25   12   21 ar  
    26   12   38 1   
    27   13   15 ar  
    28   13   21 ar  
    29   13   39 1   
    30   14   23 ar  
    31   14   40 1   
    32   15   23 ar  
    33   15   41 1   
    34   16   24 ar  
    35   16   42 1   
    36   17   18 1   
    37   17   25 2   
    38   17   43 1   
    39   18   26 2   
    40   18   44 1   
    41   19   27 ar  
    42   19   45 1   
    43   20   28 ar  
    44   20   46 1   
    45   21   25 1   
    46   22   24 ar  
    47   22   26 1   
    48   27   55 1   
    49   29   30 1   
    50   29   47 1   
    51   29   48 1   
    52   30   31 1   
    53   30   51 1   
    54   30   52 1   
    55   31   53 1   
    56   31   54 1   
    57   49   55 1   
    58   50   55 1   
@<TRIPOS>SUBSTRUCTURE
     1 625         1 TEMP              0 ****  ****    0 ROOT
