@<TRIPOS>MOLECULE
626
   56    60     1     0     0
SMALL
bcc


@<TRIPOS>ATOM
      1 C1          7.2820   -3.5740    3.0220 c         1 626      0.570900
      2 O2          8.2650   -2.8510    3.2300 o         1 626     -0.537100
      3 N3          6.0300   -2.9600    2.7940 n         1 626     -0.088200
      4 N4          2.4630   -2.4310    2.1380 na        1 626      0.013400
      5 C5          3.3820   -0.3910    2.3070 cc        1 626      0.509200
      6 N6          2.2270   -1.0820    2.1430 nd        1 626     -0.510800
      7 N7          3.5610    0.9870    2.2610 n         1 626     -0.546400
      8 C8          2.5610    1.9470    2.4420 c         1 626      0.686700
      9 C9          2.9790    3.3590    2.2190 ca        1 626     -0.186600
     10 O10         1.4130    1.6480    2.8030 o         1 626     -0.545100
     11 C11         2.4640    4.3440    3.0700 ca        1 626     -0.061000
     12 C12         2.8070    5.6780    2.9000 ca        1 626     -0.188000
     13 C13         4.1810    5.0680    0.9970 ca        1 626     -0.188000
     14 C14         3.8300    3.7350    1.1780 ca        1 626     -0.061000
     15 C15         3.8240   -2.6570    2.4680 cc        1 626     -0.105300
     16 C16         4.5000   -1.3290    2.5210 cc        1 626     -0.270300
     17 C17         5.8430   -1.5630    2.7220 cd        1 626     -0.044300
     18 C18         4.7900   -3.6300    2.6360 cd        1 626     -0.160300
     19 N19         3.9440    7.4450    1.6430 nh        1 626     -0.642000
     20 C20         4.6900    7.7940    0.4470 c3        1 626      0.190300
     21 C21         4.7290    9.3150    0.1930 c3        1 626      0.163300
     22 N22         5.1520   10.0750    1.3590 n3        1 626     -0.732600
     23 C23         4.3780    9.7310    2.5420 c3        1 626      0.163300
     24 C24         4.3400    8.2140    2.8130 c3        1 626      0.190300
     25 C25         5.1830   11.4990    1.1110 c3        1 626      0.156100
     26 C26         3.6780    6.0760    1.8540 ca        1 626      0.175600
     27 C27        10.6640   -6.9870    2.4740 cc        1 626     -0.156100
     28 C28        10.9120   -6.0610    3.4640 cd        1 626     -0.157000
     29 S29         9.0930   -6.8980    1.9220 ss        1 626      0.013200
     30 C30         9.7520   -5.2770    3.7540 cd        1 626     -0.116000
     31 C31         8.6750   -5.6450    2.9690 cc        1 626     -0.138400
     32 C32         7.3160   -5.0910    3.0150 c3        1 626     -0.060100
     33 H321        6.7240   -5.4730    2.1370 hc        1 626      0.083200
     34 H322        6.7970   -5.4390    3.9550 hc        1 626      0.083200
     35 H17         6.6980   -0.8900    2.8220 h4        1 626      0.193000
     36 H18         4.7190   -4.7160    2.6620 h4        1 626      0.179000
     37 H4          1.7810   -2.9370    2.6790 hn        1 626      0.269700
     38 H7          4.4910    1.2920    2.0850 hn        1 626      0.328500
     39 H11         1.7670    4.0510    3.8730 ha        1 626      0.144500
     40 H14         4.2230    2.9830    0.4750 ha        1 626      0.144500
     41 H12         2.3690    6.4250    3.5780 ha        1 626      0.140000
     42 H13         4.8600    5.3190    0.1680 ha        1 626      0.140000
     43 H201        4.1820    7.3190   -0.4390 h1        1 626      0.045950
     44 H202        5.7500    7.4100    0.4990 h1        1 626      0.045950
     45 H241        5.3550    7.8850    3.1810 h1        1 626      0.045950
     46 H242        3.5960    8.0390    3.6380 h1        1 626      0.045950
     47 H211        5.4750    9.5020   -0.6300 h1        1 626      0.040950
     48 H212        3.7140    9.6450   -0.1760 h1        1 626      0.040950
     49 H231        3.3180   10.1140    2.4750 h1        1 626      0.040950
     50 H232        4.8680   10.2210    3.4300 h1        1 626      0.040950
     51 H251        4.1710   11.9340    0.8830 h1        1 626      0.034367
     52 H252        5.8620   11.6980    0.2410 h1        1 626      0.034367
     53 H253        5.5960   12.0130    2.0180 h1        1 626      0.034367
     54 H28        11.8670   -5.9240    3.9750 ha        1 626      0.157000
     55 H30         9.7390   -4.4670    4.4880 ha        1 626      0.168000
     56 H27        11.3860   -7.7010    2.0800 h4        1 626      0.173000
@<TRIPOS>BOND
     1    1    2 2   
     2    1    3 1   
     3    1   32 1   
     4    3   17 1   
     5    3   18 1   
     6    4    6 1   
     7    4   15 1   
     8    4   37 1   
     9    5    6 2   
    10    5    7 1   
    11    5   16 1   
    12    7    8 1   
    13    7   38 1   
    14    8    9 1   
    15    8   10 2   
    16    9   11 ar  
    17    9   14 ar  
    18   11   12 ar  
    19   11   39 1   
    20   12   26 ar  
    21   12   41 1   
    22   13   14 ar  
    23   13   26 ar  
    24   13   42 1   
    25   14   40 1   
    26   15   16 1   
    27   15   18 2   
    28   16   17 2   
    29   17   35 1   
    30   18   36 1   
    31   19   20 1   
    32   19   24 1   
    33   19   26 1   
    34   20   21 1   
    35   20   43 1   
    36   20   44 1   
    37   21   22 1   
    38   21   47 1   
    39   21   48 1   
    40   22   23 1   
    41   22   25 1   
    42   23   24 1   
    43   23   49 1   
    44   23   50 1   
    45   24   45 1   
    46   24   46 1   
    47   25   51 1   
    48   25   52 1   
    49   25   53 1   
    50   27   28 2   
    51   27   29 1   
    52   27   56 1   
    53   28   30 1   
    54   28   54 1   
    55   29   31 1   
    56   30   31 2   
    57   30   55 1   
    58   31   32 1   
    59   32   33 1   
    60   32   34 1   
@<TRIPOS>SUBSTRUCTURE
     1 626         1 TEMP              0 ****  ****    0 ROOT
