@<TRIPOS>MOLECULE
626
   56    60     1     0     0
SMALL
bcc


@<TRIPOS>ATOM
      1 C1         -0.1290   -0.3460   -0.0600 c         1 626      0.570900
      2 O2          1.0630   -0.6760   -0.0140 o         1 626     -0.537100
      3 N3         -0.8090   -0.1070    1.1560 n         1 626     -0.088200
      4 N4         -3.4140    0.6960    3.6060 na        1 626      0.013400
      5 C5         -1.5470    0.2860    4.7820 cc        1 626      0.509200
      6 N6         -2.8700    0.5780    4.8570 nd        1 626     -0.510800
      7 N7         -0.6380    0.1920    5.8290 ns        1 626     -0.546400
      8 C8         -0.9580   -0.0190    7.1730 c         1 626      0.686700
      9 C9          0.1860    0.0460    8.1240 ca        1 626     -0.186600
     10 O10        -2.1110   -0.2850    7.5460 o         1 626     -0.545100
     11 C11         0.2140   -0.8620    9.1900 ca        1 626     -0.061000
     12 C12         1.2480   -0.8360   10.1150 ca        1 626     -0.188000
     13 C13         2.2430    1.0320    8.9320 ca        1 626     -0.188000
     14 C14         1.2020    0.9970    8.0110 ca        1 626     -0.061000
     15 C15        -2.4410    0.3120    2.6470 cc        1 626     -0.105300
     16 C16        -1.1560    0.0980    3.3730 cc        1 626     -0.270300
     17 C17        -0.1900   -0.1560    2.4230 cd        1 626     -0.044300
     18 C18        -2.1900    0.1820    1.2950 cd        1 626     -0.160300
     19 N19         3.2870    0.1830   11.0090 nh        1 626     -0.642000
     20 C20         4.2180    1.2960   10.9390 c3        1 626      0.190300
     21 C21         5.1100    1.4050   12.1920 c3        1 626      0.163300
     22 N22         5.7620    0.1500   12.5360 n3        1 626     -0.732600
     23 C23         4.8120   -0.9490   12.6260 c3        1 626      0.163300
     24 C24         3.9210   -1.0750   11.3750 c3        1 626      0.190300
     25 C25         6.5930    0.2620   13.7130 c3        1 626      0.156100
     26 C26         2.2940    0.1160   10.0100 ca        1 626      0.175600
     27 C27         0.8580    0.3320   -4.7450 cc        1 626     -0.156100
     28 C28         1.4750   -0.7530   -4.1600 cd        1 626     -0.157000
     29 S29        -0.3430    0.9590   -3.7720 ss        1 626      0.013200
     30 C30         0.9150   -1.0500   -2.8790 cd        1 626     -0.116000
     31 C31        -0.1040   -0.1770   -2.5500 cc        1 626     -0.138400
     32 C32        -0.9330   -0.1990   -1.3380 c3        1 626     -0.060100
     33 H321       -1.6460   -1.0720   -1.3830 hc        1 626      0.083200
     34 H322       -1.5480    0.7430   -1.2850 hc        1 626      0.083200
     35 H17         0.8790   -0.3650    2.5030 h4        1 626      0.193000
     36 H18        -2.8480    0.2620    0.4320 h4        1 626      0.179000
     37 H4         -4.3110    0.2440    3.5390 hn        1 626      0.269700
     38 H7          0.3190    0.2860    5.5740 hn        1 626      0.328500
     39 H11        -0.6050   -1.5920    9.2960 ha        1 626      0.144500
     40 H14         1.1860    1.7420    7.2010 ha        1 626      0.144500
     41 H12         1.2270   -1.5550   10.9480 ha        1 626      0.140000
     42 H13         3.0270    1.7940    8.8010 ha        1 626      0.140000
     43 H201        3.6230    2.2500   10.8660 h1        1 626      0.045950
     44 H202        4.8810    1.2180   10.0290 h1        1 626      0.045950
     45 H241        3.1250   -1.8350   11.6050 h1        1 626      0.045950
     46 H242        4.5460   -1.4690   10.5220 h1        1 626      0.045950
     47 H211        4.4860    1.8000   13.0460 h1        1 626      0.040950
     48 H212        5.9130    2.1620   11.9700 h1        1 626      0.040950
     49 H231        4.1490   -0.8560   13.5360 h1        1 626      0.040950
     50 H232        5.3990   -1.9050   12.7210 h1        1 626      0.040950
     51 H251        7.1280   -0.7110   13.8700 h1        1 626      0.034367
     52 H252        7.3530    1.0690   13.5420 h1        1 626      0.034367
     53 H253        6.0160    0.5070   14.6470 h1        1 626      0.034367
     54 H28         2.2930   -1.3270   -4.6000 ha        1 626      0.157000
     55 H30         1.2760   -1.8560   -2.2340 ha        1 626      0.168000
     56 H27         1.1040    0.7510   -5.7200 h4        1 626      0.173000
@<TRIPOS>BOND
     1    1    2 2   
     2    1    3 1   
     3    1   32 1   
     4    3   17 1   
     5    3   18 1   
     6    4    6 1   
     7    4   15 1   
     8    4   37 1   
     9    5    6 2   
    10    5    7 1   
    11    5   16 1   
    12    7    8 1   
    13    7   38 1   
    14    8    9 1   
    15    8   10 2   
    16    9   11 ar  
    17    9   14 ar  
    18   11   12 ar  
    19   11   39 1   
    20   12   26 ar  
    21   12   41 1   
    22   13   14 ar  
    23   13   26 ar  
    24   13   42 1   
    25   14   40 1   
    26   15   16 1   
    27   15   18 2   
    28   16   17 2   
    29   17   35 1   
    30   18   36 1   
    31   19   20 1   
    32   19   24 1   
    33   19   26 1   
    34   20   21 1   
    35   20   43 1   
    36   20   44 1   
    37   21   22 1   
    38   21   47 1   
    39   21   48 1   
    40   22   23 1   
    41   22   25 1   
    42   23   24 1   
    43   23   49 1   
    44   23   50 1   
    45   24   45 1   
    46   24   46 1   
    47   25   51 1   
    48   25   52 1   
    49   25   53 1   
    50   27   28 2   
    51   27   29 1   
    52   27   56 1   
    53   28   30 1   
    54   28   54 1   
    55   29   31 1   
    56   30   31 2   
    57   30   55 1   
    58   31   32 1   
    59   32   33 1   
    60   32   34 1   
@<TRIPOS>SUBSTRUCTURE
     1 626         1 TEMP              0 ****  ****    0 ROOT
