@<TRIPOS>MOLECULE
626
   57    61     1     0     0
SMALL
bcc


@<TRIPOS>ATOM
      1 C1         -0.1530    0.1930   -0.1410 c         1 626      0.562900
      2 O2          1.0700    0.3360   -0.1330 o         1 626     -0.490100
      3 N3         -0.8330    0.3090    1.1170 n         1 626     -0.055200
      4 N4         -3.4190    0.4680    3.6790 na        1 626      0.015400
      5 C5         -1.5030    0.7300    4.7260 cc        1 626      0.362200
      6 N6         -2.8650    0.6210    4.8710 nd        1 626     -0.388800
      7 N7         -0.5870    0.9500    5.8210 n4        1 626     -0.617500
      8 C8         -0.3680   -0.2800    6.7180 c         1 626      0.580700
      9 C9          0.6300   -0.1200    7.7520 ca        1 626     -0.298600
     10 O10        -1.0600   -1.2540    6.4590 o         1 626     -0.428100
     11 C11         0.8970   -1.2540    8.5530 ca        1 626     -0.008000
     12 C12         1.8210   -1.2090    9.5730 ca        1 626     -0.224000
     13 C13         2.2720    1.1240    9.0340 ca        1 626     -0.224000
     14 C14         1.3470    1.0630    8.0170 ca        1 626     -0.008000
     15 C15        -2.4470    0.3710    2.6720 cc        1 626     -0.097300
     16 C16        -1.1250    0.5710    3.3360 cc        1 626     -0.245300
     17 C17        -0.1680    0.5220    2.3330 cd        1 626     -0.061300
     18 C18        -2.2230    0.2170    1.3100 cd        1 626     -0.123300
     19 N19         3.3950    0.0740   10.9440 nh        1 626     -0.624000
     20 C20         4.2290    1.2530   11.0930 c3        1 626      0.201300
     21 C21         5.0230    1.3410   12.4100 c3        1 626      0.157300
     22 N22         5.6110    0.0710   12.7980 n3        1 626     -0.728600
     23 C23         4.5790   -0.9430   12.9360 c3        1 626      0.157300
     24 C24         3.7620   -1.1420   11.6460 c3        1 626      0.201300
     25 C25         6.4640    0.1730   13.9610 c3        1 626      0.153100
     26 C26         2.5340   -0.0060    9.8770 ca        1 626      0.271600
     27 C27         0.9640   -0.1640   -4.7020 cc        1 626     -0.148100
     28 C28         0.9710   -1.4560   -4.2150 cd        1 626     -0.155000
     29 S29         0.1550    0.8760   -3.6890 ss        1 626      0.064200
     30 C30         0.2780   -1.5490   -2.9720 cd        1 626     -0.119000
     31 C31        -0.2220   -0.3200   -2.5700 cc        1 626     -0.171400
     32 C32        -1.0140   -0.0860   -1.3570 c3        1 626     -0.047100
     33 H321       -1.7050    0.7920   -1.5000 hc        1 626      0.087700
     34 H322       -1.6480   -0.9940   -1.1470 hc        1 626      0.087700
     35 H17         0.9210    0.6170    2.3570 h4        1 626      0.204000
     36 H18        -2.9150    0.0570    0.4820 h4        1 626      0.199000
     37 H4         -4.3700    0.1660    3.6190 hn        1 626      0.350700
     38 H7         -0.9340    1.7150    6.4130 hn        1 626      0.461800
     39 H11         0.3520   -2.1930    8.3490 ha        1 626      0.139500
     40 H14         1.1920    1.9750    7.4190 ha        1 626      0.139500
     41 H12         2.0010   -2.1300   10.1500 ha        1 626      0.158000
     42 H13         2.8170    2.0690    9.1850 ha        1 626      0.158000
     43 H201        4.9540    1.2990   10.2290 h1        1 626      0.059200
     44 H202        3.5680    2.1670   11.0580 h1        1 626      0.059200
     45 H241        4.3470   -1.8060   10.9440 h1        1 626      0.059200
     46 H242        2.8170   -1.6810   11.9470 h1        1 626      0.059200
     47 H211        5.8550    2.0830   12.2480 h1        1 626      0.053450
     48 H212        4.3430    1.7520   13.2130 h1        1 626      0.053450
     49 H231        3.8670   -0.7060   13.7800 h1        1 626      0.053450
     50 H232        5.0770   -1.9260   13.1700 h1        1 626      0.053450
     51 H251        7.2740    0.9180   13.7470 h1        1 626      0.045033
     52 H252        6.9350   -0.8280   14.1490 h1        1 626      0.045033
     53 H253        5.9150    0.4930   14.8890 h1        1 626      0.045033
     54 H30         0.1640   -2.4840   -2.4200 ha        1 626      0.155000
     55 H27         1.4250    0.1590   -5.6360 h4        1 626      0.183000
     56 H72         0.3150    1.2250    5.4170 hn        1 626      0.461800
     57 H28         1.4410   -2.3120   -4.7050 ha        1 626      0.165000
@<TRIPOS>BOND
     1    1    2 2   
     2    1    3 1   
     3    1   32 1   
     4    3   17 1   
     5    3   18 1   
     6    4    6 1   
     7    4   15 1   
     8    4   37 1   
     9    5    6 2   
    10    5    7 1   
    11    5   16 1   
    12    7    8 1   
    13    7   38 1   
    14    7   56 1   
    15    8    9 1   
    16    8   10 2   
    17    9   11 ar  
    18    9   14 ar  
    19   11   12 ar  
    20   11   39 1   
    21   12   26 ar  
    22   12   41 1   
    23   13   14 ar  
    24   13   26 ar  
    25   13   42 1   
    26   14   40 1   
    27   15   16 1   
    28   15   18 2   
    29   16   17 2   
    30   17   35 1   
    31   18   36 1   
    32   19   20 1   
    33   19   24 1   
    34   19   26 1   
    35   20   21 1   
    36   20   43 1   
    37   20   44 1   
    38   21   22 1   
    39   21   47 1   
    40   21   48 1   
    41   22   23 1   
    42   22   25 1   
    43   23   24 1   
    44   23   49 1   
    45   23   50 1   
    46   24   45 1   
    47   24   46 1   
    48   25   51 1   
    49   25   52 1   
    50   25   53 1   
    51   27   28 2   
    52   27   29 1   
    53   27   55 1   
    54   28   30 1   
    55   28   57 1   
    56   29   31 1   
    57   30   31 2   
    58   30   54 1   
    59   31   32 1   
    60   32   33 1   
    61   32   34 1   
@<TRIPOS>SUBSTRUCTURE
     1 626         1 TEMP              0 ****  ****    0 ROOT
