@<TRIPOS>MOLECULE
626
   56    49     1     0     0
SMALL
bcc


@<TRIPOS>ATOM
      1 C1         -2.0420   -1.7950   -5.7190 c1        1 626      0.319000
      2 O2         -1.0580   -2.5130   -5.5710 o         1 626     -0.292000
      3 N3         -2.3730   -0.7950   -4.7110 n2        1 626     -0.180000
      4 N4         -4.0330    1.8880   -2.8910 n2        1 626     -0.131000
      5 C5         -2.2850    1.2790   -1.7000 c1        1 626      0.101000
      6 N6         -3.3330    2.1270   -1.7370 n2        1 626     -0.078000
      7 N7         -1.3600    1.1370   -0.6220 n2        1 626     -0.313000
      8 C8         -1.5260    1.9060    0.5680 c2        1 626      0.360000
      9 C9         -0.4520    1.8450    1.6750 c2        1 626     -0.167000
     10 O10        -2.4600    2.6880    0.6650 o         1 626     -0.307000
     11 C11         0.6840    2.6430    1.7880 c1        1 626     -0.076000
     12 C12         1.5720    2.4500    2.8510 c1        1 626     -0.177000
     13 C13         0.1940    0.6750    3.6790 c1        1 626     -0.198000
     14 C14        -0.6980    0.8620    2.6180 c2        1 626     -0.046000
     15 C15        -3.3980    0.8710   -3.5750 c2        1 626     -0.081000
     16 C16        -2.3280    0.4920   -2.8540 c2        1 626     -0.206000
     17 C17        -1.6730   -0.5550   -3.5550 c1        1 626     -0.020000
     18 C18        -3.4410    0.0690   -4.7490 c1        1 626     -0.136000
     19 N19         2.4290    1.4490    4.6980 n3        1 626     -0.244000
     20 C20         3.0530    0.1570    4.6610 c3        1 626     -0.047000
     21 C21         4.1480    0.0070    5.7290 c3        1 626     -0.073000
     22 N22         3.6870    0.3590    7.0390 n3        1 626     -0.258000
     23 C23         3.0630    1.6470    7.0790 c3        1 626     -0.073000
     24 C24         1.9680    1.8000    6.0160 c3        1 626     -0.047000
     25 C25         4.8010    0.3300    7.9700 c3        1 626     -0.120000
     26 C26         1.3240    1.4720    3.7860 c1        1 626      0.094000
     27 C27        -0.7990   -4.3260   -9.3530 c1        1 626     -0.415000
     28 C28        -2.1220   -4.9360   -9.4440 c1        1 626     -0.143500
     29 S29        -0.8960   -3.1180   -8.3860 ss        1 626      0.588000
     30 C30        -3.1180   -4.1090   -8.5140 c1        1 626     -0.143500
     31 C31        -2.3680   -3.0280   -7.8900 c1        1 626     -0.415000
     32 C32        -2.9390   -1.9470   -6.9960 c2        1 626     -0.097000
     33 H321       -3.8410   -2.1910   -6.7320 ha        1 626      0.123500
     34 H322       -2.9600   -1.0750   -7.4950 ha        1 626      0.123500
     35 H17        -0.8260   -1.0040   -3.2780 DU        1 626      0.179667
     36 H18        -4.0880    0.1400   -5.4630 DU        1 626      0.179667
     37 H4         -4.7910    2.3260   -3.1600 DU        1 626      0.179667
     38 H7         -0.6870    0.5790   -0.6930 hn        1 626      0.242000
     39 H11         0.8580    3.3300    1.1320 ha        1 626      0.135000
     40 H14        -1.4940    0.3000    2.5440 ha        1 626      0.154000
     41 H12         2.3810    3.0190    2.9320 ha        1 626      0.140000
     42 H13         0.0310    0.0150    4.3130 ha        1 626      0.140000
     43 H201        3.4640    0.0160    3.7490 h1        1 626      0.085750
     44 H202        2.3460   -0.5530    4.8170 h1        1 626      0.085750
     45 H241        1.2070    1.2170    6.2560 h1        1 626      0.085750
     46 H242        1.6660    2.7160    6.0090 h1        1 626      0.085750
     47 H211        4.4510   -0.9230    5.7400 h1        1 626      0.080250
     48 H212        4.9270    0.6030    5.4870 h1        1 626      0.080250
     49 H231        3.7670    2.3550    6.9320 h1        1 626      0.080250
     50 H232        2.6500    1.7810    7.9930 h1        1 626      0.080250
     51 H251        5.4330    1.0420    7.7450 h1        1 626      0.073667
     52 H252        4.4640    0.4680    8.8960 h1        1 626      0.073667
     53 H253        5.2570   -0.5470    7.9110 h1        1 626      0.073667
     54 H27         0.0050   -4.6250   -9.8170 DU        1 626      0.179667
     55 H28        -2.3580   -5.7210   -9.9870 DU        1 626      0.179667
     56 H30        -4.0820   -4.2980   -8.3830 DU        1 626      0.179667
@<TRIPOS>BOND
     1    1    2 1   
     2    1   32 1   
     3    3   17 1   
     4    3   18 1   
     5    4    6 1   
     6    4   15 1   
     7    5    6 1   
     8    5   16 1   
     9    7    8 1   
    10    7   38 1   
    11    8    9 1   
    12    8   10 1   
    13    9   11 1   
    14    9   14 1   
    15   11   39 1   
    16   12   26 1   
    17   12   41 1   
    18   13   14 1   
    19   13   42 1   
    20   14   40 1   
    21   15   16 1   
    22   15   18 1   
    23   16   17 1   
    24   19   20 1   
    25   19   24 1   
    26   19   26 1   
    27   20   21 1   
    28   20   43 1   
    29   20   44 1   
    30   21   22 1   
    31   21   47 1   
    32   21   48 1   
    33   22   23 1   
    34   22   25 1   
    35   23   24 1   
    36   23   49 1   
    37   23   50 1   
    38   24   45 1   
    39   24   46 1   
    40   25   51 1   
    41   25   52 1   
    42   25   53 1   
    43   27   28 1   
    44   27   29 1   
    45   28   30 1   
    46   29   31 1   
    47   30   31 1   
    48   32   33 1   
    49   32   34 1   
@<TRIPOS>SUBSTRUCTURE
     1 626         1 TEMP              0 ****  ****    0 ROOT
