@<TRIPOS>MOLECULE
626
   56    60     1     0     0
SMALL
bcc


@<TRIPOS>ATOM
      1 C1         -0.1320   -0.3470   -0.0580 c         1 626      0.570900
      2 O2          1.0600   -0.6800   -0.0130 o         1 626     -0.537100
      3 N3         -0.8110   -0.1070    1.1570 n         1 626     -0.088200
      4 N4         -3.4140    0.7040    3.6060 na        1 626      0.013400
      5 C5         -1.5480    0.2910    4.7830 cc        1 626      0.509200
      6 N6         -2.8700    0.5860    4.8580 nd        1 626     -0.510800
      7 N7         -0.6390    0.1970    5.8300 n         1 626     -0.546400
      8 C8         -0.9590   -0.0120    7.1740 c         1 626      0.686700
      9 C9          0.1860    0.0510    8.1240 ca        1 626     -0.186600
     10 O10        -2.1120   -0.2730    7.5480 o         1 626     -0.545100
     11 C11         0.2110   -0.8540    9.1920 ca        1 626     -0.061000
     12 C12         1.2450   -0.8310   10.1160 ca        1 626     -0.188000
     13 C13         2.2470    1.0320    8.9300 ca        1 626     -0.188000
     14 C14         1.2050    0.9980    8.0100 ca        1 626     -0.061000
     15 C15        -2.4420    0.3170    2.6480 cc        1 626     -0.105300
     16 C16        -1.1580    0.1010    3.3740 cc        1 626     -0.270300
     17 C17        -0.1920   -0.1550    2.4240 cd        1 626     -0.044300
     18 C18        -2.1920    0.1850    1.2960 cd        1 626     -0.160300
     19 N19         3.2890    0.1820   11.0080 nh        1 626     -0.642000
     20 C20         4.2230    1.2910   10.9350 c3        1 626      0.190300
     21 C21         5.1160    1.3990   12.1880 c3        1 626      0.163300
     22 N22         5.7640    0.1430   12.5340 n3        1 626     -0.732600
     23 C23         4.8110   -0.9530   12.6270 c3        1 626      0.163300
     24 C24         3.9180   -1.0770   11.3760 c3        1 626      0.190300
     25 C25         6.5960    0.2540   13.7110 c3        1 626      0.156100
     26 C26         2.2950    0.1170   10.0090 ca        1 626      0.175600
     27 C27         0.8570    0.3310   -4.7430 cc        1 626     -0.156100
     28 C28         1.4730   -0.7530   -4.1590 cd        1 626     -0.157000
     29 S29        -0.3440    0.9580   -3.7710 ss        1 626      0.013200
     30 C30         0.9130   -1.0510   -2.8780 cd        1 626     -0.116000
     31 C31        -0.1060   -0.1780   -2.5490 cc        1 626     -0.138400
     32 C32        -0.9350   -0.2000   -1.3370 c3        1 626     -0.060100
     33 H321       -1.6490   -1.0730   -1.3830 hc        1 626      0.083200
     34 H322       -1.5500    0.7420   -1.2840 hc        1 626      0.083200
     35 H17         0.8770   -0.3670    2.5040 h4        1 626      0.193000
     36 H18        -2.8490    0.2650    0.4330 h4        1 626      0.179000
     37 H4         -4.3120    0.2530    3.5400 hn        1 626      0.269700
     38 H7          0.3180    0.2870    5.5750 hn        1 626      0.328500
     39 H11        -0.6110   -1.5810    9.3000 ha        1 626      0.144500
     40 H14         1.1910    1.7420    7.1980 ha        1 626      0.144500
     41 H12         1.2220   -1.5480   10.9510 ha        1 626      0.140000
     42 H13         3.0340    1.7900    8.7970 ha        1 626      0.140000
     43 H201        3.6320    2.2480   10.8610 h1        1 626      0.045950
     44 H202        4.8860    1.2100   10.0250 h1        1 626      0.045950
     45 H241        4.5420   -1.4750   10.5230 h1        1 626      0.045950
     46 H242        3.1200   -1.8350   11.6070 h1        1 626      0.045950
     47 H211        4.4940    1.7980   13.0420 h1        1 626      0.040950
     48 H212        5.9220    2.1530   11.9650 h1        1 626      0.040950
     49 H231        5.3940   -1.9110   12.7230 h1        1 626      0.040950
     50 H232        4.1490   -0.8560   13.5360 h1        1 626      0.040950
     51 H251        7.3590    1.0580   13.5380 h1        1 626      0.034367
     52 H252        6.0190    0.5030   14.6440 h1        1 626      0.034367
     53 H253        7.1280   -0.7200   13.8690 h1        1 626      0.034367
     54 H28         2.2910   -1.3280   -4.5990 ha        1 626      0.157000
     55 H30         1.2740   -1.8570   -2.2330 ha        1 626      0.168000
     56 H27         1.1030    0.7500   -5.7180 h4        1 626      0.173000
@<TRIPOS>BOND
     1    1    2 2   
     2    1    3 1   
     3    1   32 1   
     4    3   17 1   
     5    3   18 1   
     6    4    6 1   
     7    4   15 1   
     8    4   37 1   
     9    5    6 2   
    10    5    7 1   
    11    5   16 1   
    12    7    8 1   
    13    7   38 1   
    14    8    9 1   
    15    8   10 2   
    16    9   11 ar  
    17    9   14 ar  
    18   11   12 ar  
    19   11   39 1   
    20   12   26 ar  
    21   12   41 1   
    22   13   14 ar  
    23   13   26 ar  
    24   13   42 1   
    25   14   40 1   
    26   15   16 1   
    27   15   18 2   
    28   16   17 2   
    29   17   35 1   
    30   18   36 1   
    31   19   20 1   
    32   19   24 1   
    33   19   26 1   
    34   20   21 1   
    35   20   43 1   
    36   20   44 1   
    37   21   22 1   
    38   21   47 1   
    39   21   48 1   
    40   22   23 1   
    41   22   25 1   
    42   23   24 1   
    43   23   49 1   
    44   23   50 1   
    45   24   45 1   
    46   24   46 1   
    47   25   51 1   
    48   25   52 1   
    49   25   53 1   
    50   27   28 2   
    51   27   29 1   
    52   27   56 1   
    53   28   30 1   
    54   28   54 1   
    55   29   31 1   
    56   30   31 2   
    57   30   55 1   
    58   31   32 1   
    59   32   33 1   
    60   32   34 1   
@<TRIPOS>SUBSTRUCTURE
     1 626         1 TEMP              0 ****  ****    0 ROOT
