@<TRIPOS>MOLECULE
627
   61    58     1     0     0
SMALL
bcc


@<TRIPOS>ATOM
      1 N1         -1.2190   -1.1010   -0.2850 n2        1 627     -0.194000
      2 N2          1.0970   -0.2370    2.3140 n2        1 627      0.057000
      3 C3          3.1900   -0.1180    1.4580 c2        1 627      0.073000
      4 N4          2.2590   -0.0500    2.6410 n2        1 627      0.004000
      5 N5          4.4560    0.0070    1.5830 n2        1 627     -0.183000
      6 C6          5.4360   -0.0470    0.5680 c2        1 627      0.285000
      7 C7          6.4650   -1.1790    0.6660 c3        1 627      0.006000
      8 O8          5.5470    0.8400   -0.2920 o         1 627     -0.307000
      9 C9          5.8120   -2.4820    0.3250 c2        1 627     -0.114000
     10 C10         6.0260   -3.1160   -0.7880 c1        1 627     -0.293000
     11 C11         7.3060   -2.2600    2.7700 c1        1 627      0.210000
     12 C12         7.0840   -1.2060    2.0170 c2        1 627     -0.476000
     13 C13         0.9520   -0.4660    0.8750 c2        1 627     -0.192000
     14 C14         2.2940   -0.3840    0.2670 c2        1 627     -0.117000
     15 C15         2.6470   -0.4770   -1.0110 c2        1 627     -0.130000
     16 C16        -0.2040   -0.7100    0.2790 c1        1 627      0.182000
     17 N17         7.3060   -4.5550   -2.2520 n3        1 627     -0.285000
     18 C18         7.0570   -5.6410   -3.2020 c3        1 627      0.078000
     19 C19         6.3990   -6.8290   -2.6600 c2        1 627     -0.806000
     20 N20         5.0260   -6.8360   -2.3330 n4        1 627      0.166000
     21 C21         1.9190   -5.0310   -1.1430 c1        1 627     -0.242000
     22 C22         2.2750   -5.0690   -2.2860 c1        1 627     -0.242000
     23 C23         4.1430   -7.4720   -3.3490 c3        1 627     -0.233000
     24 C24         6.2410   -3.7220   -1.9390 c2        1 627      0.024000
     25 C25        -2.2800   -0.4030   -0.9260 c2        1 627      0.279000
     26 O26        -2.9720    0.4230   -0.3280 o         1 627     -0.255000
     27 C27        -3.8170   -1.5460   -2.5450 c1        1 627     -0.004000
     28 C28         5.3550   -3.3170   -5.3840 c1        1 627     -0.070500
     29 C29        -4.3920   -2.5040   -1.8080 c1        1 627     -0.178000
     30 C31         4.3910   -4.0540   -5.4930 c1        1 627     -0.225000
     31 C33        -5.0470   -3.3690   -1.2570 c1        1 627     -0.087000
     32 C20        -2.5590   -0.8410   -2.3790 c3        1 627      0.044000
     33 C35         3.3480   -4.9020   -5.4240 c1        1 627     -0.070500
     34 O34        -2.4170    0.3030   -3.2060 os        1 627     -0.252000
     35 H15         3.6930   -0.3680   -1.3380 ha        1 627      0.138500
     36 H16         1.9170   -0.6600   -1.8100 ha        1 627      0.138500
     37 H9          5.1350   -2.8840    1.1000 ha        1 627      0.133000
     38 H12         7.2710   -0.9380   -0.0900 hc        1 627      0.140000
     39 H10         7.3860   -0.2110    2.4100 ha        1 627      0.200000
     40 H11         5.5600   -3.5070   -2.7940 h4        1 627      0.141000
     41 H181        8.0730   -5.9500   -3.5820 h1        1 627      0.067500
     42 H182        6.4850   -5.1840   -4.0670 h1        1 627      0.067500
     43 H221        7.8240   -4.8640   -1.4530 hn        1 627      0.188000
     44 H222        2.5760   -5.0890   -3.3150 ha        1 627      0.238000
     45 H191        4.6970   -5.8750   -2.1890 hn        1 627      0.199500
     46 H192        6.9110   -7.7850   -2.6010 hx        1 627      0.149000
     47 H211        4.9010   -7.3520   -1.4570 hn        1 627      0.199500
     48 H212        1.6070   -4.9940   -0.1290 ha        1 627      0.238000
     49 H231        3.0980   -7.5570   -2.9520 hx        1 627      0.108000
     50 H232        4.1380   -6.8360   -4.2730 hx        1 627      0.108000
     51 H233        4.5480   -8.4850   -3.6010 hx        1 627      0.108000
     52 H20        -1.7470   -1.5430   -2.7630 h1        1 627      0.174000
     53 H28         6.2000   -2.6800   -5.2790 ha        1 627      0.179000
     54 H29         1.6010   -3.3690   -5.4580 ha        1 627      0.010000
     55 H31         1.5990   -3.5730   -4.8090 ha        1 627      0.010000
     56 H33         2.8340   -5.3000   -6.3020 ha        1 627      0.179000
     57 H35        -5.6270   -4.1230   -0.7840 ha        1 627      0.237000
     58 H361       -3.8350    1.5480   -2.3040 h1        1 627      0.095333
     59 H362       -4.4360    0.5310   -3.7130 h1        1 627      0.095333
     60 H363       -3.2720    1.9280   -4.0170 h1        1 627      0.095333
     61 C36        -3.5790    1.1210   -3.3050 c3        1 627     -0.089000
@<TRIPOS>BOND
     1    1   16 1   
     2    1   25 1   
     3    2    4 1   
     4    2   13 1   
     5    3    4 1   
     6    3    5 1   
     7    3   14 1   
     8    5    6 1   
     9    6    7 1   
    10    6    8 1   
    11    7    9 1   
    12    7   12 1   
    13    7   38 1   
    14    9   10 1   
    15    9   37 1   
    16   10   24 1   
    17   11   12 1   
    18   12   39 1   
    19   13   14 1   
    20   13   16 1   
    21   14   15 1   
    22   15   35 1   
    23   15   36 1   
    24   17   18 1   
    25   17   24 1   
    26   17   43 1   
    27   18   19 1   
    28   18   41 1   
    29   18   42 1   
    30   19   20 1   
    31   19   46 1   
    32   20   23 1   
    33   20   45 1   
    34   20   47 1   
    35   21   22 1   
    36   21   48 1   
    37   22   44 1   
    38   23   49 1   
    39   23   50 1   
    40   23   51 1   
    41   24   40 1   
    42   25   26 1   
    43   25   32 1   
    44   27   29 1   
    45   27   32 1   
    46   28   30 1   
    47   28   53 1   
    48   29   31 1   
    49   30   33 1   
    50   31   57 1   
    51   32   34 1   
    52   32   52 1   
    53   33   56 1   
    54   34   61 1   
    55   54   55 1   
    56   58   61 1   
    57   59   61 1   
    58   60   61 1   
@<TRIPOS>SUBSTRUCTURE
     1 627         1 TEMP              0 ****  ****    0 ROOT
