@<TRIPOS>MOLECULE
627
   61    54     1     0     0
SMALL
bcc


@<TRIPOS>ATOM
      1 N1         -4.6570    0.6310   -2.8120 n2        1 627     -0.206000
      2 N2         -2.7820    0.3600    0.5240 n1        1 627      0.014500
      3 C3         -1.2330    0.6120   -0.7130 c1        1 627      0.104000
      4 N4         -1.6090    0.4520    0.4210 n1        1 627      0.014500
      5 N5         -0.0410    0.3390   -1.1740 n1        1 627     -0.183000
      6 C6          0.9580   -0.1960   -0.3040 c1        1 627      0.330000
      7 C7          2.3930   -0.3570   -0.8050 c2        1 627     -0.168000
      8 O8          0.6950   -0.3980    0.8870 o         1 627     -0.296000
      9 C9          2.6130    1.0120   -0.8000 c2        1 627     -0.048000
     10 C10         3.4110    1.5870    0.1900 c1        1 627     -0.209000
     11 C11         3.7640   -0.5910    1.1640 c1        1 627     -0.184000
     12 C12         2.9700   -1.1610    0.1810 c1        1 627     -0.045000
     13 C13        -3.4980    0.4580   -0.7350 c1        1 627     -0.214000
     14 C14        -2.6100    0.6230   -1.5760 c2        1 627     -0.176000
     15 C15        -3.0530    0.7340   -2.7430 c1        1 627     -0.002000
     16 C16        -4.6650    0.4380   -1.2400 c1        1 627      0.026000
     17 N17         4.5450    1.6880    2.1500 n3        1 627     -0.245000
     18 C18         5.6190    2.2300    1.6800 c3        1 627     -0.046500
     19 C19         6.2890    3.1030    2.7150 c3        1 627     -0.073000
     20 N20         5.3210    3.5280    3.8700 n3        1 627     -0.257000
     21 C21         5.0390    2.0870    4.3740 c3        1 627     -0.073000
     22 C22         4.3720    1.2120    3.3180 c3        1 627     -0.046500
     23 C23         6.0600    4.2510    4.8730 c3        1 627     -0.120000
     24 C24         3.9860    0.7870    1.1700 c1        1 627      0.101000
     25 C25        -5.0210   -0.6400   -3.4380 c1        1 627      0.325000
     26 O26        -5.8610   -0.6640   -4.3260 o         1 627     -0.265000
     27 C27        -5.2500   -2.8060   -2.2350 c1        1 627     -0.141000
     28 C28        -4.7340   -3.6160   -1.2280 c1        1 627     -0.121000
     29 C29        -6.6420   -2.6600   -2.3720 c1        1 627     -0.093000
     30 C31        -5.6040   -4.2840   -0.3500 c1        1 627     -0.121000
     31 C33        -7.5080   -3.3290   -1.4930 c1        1 627     -0.121000
     32 C20        -4.3020   -1.9020   -3.0510 c3        1 627      0.065000
     33 C35        -6.9920   -4.1370   -0.4880 c1        1 627     -0.121000
     34 C36        -2.6550   -2.0790   -4.8140 c3        1 627     -0.078000
     35 O34        -3.8830   -2.5940   -4.2290 os        1 627     -0.248000
     36 H15        -2.4800    0.8720   -3.5350 DU        1 627      0.197500
     37 H16        -5.4700    0.3190   -0.7210 DU        1 627      0.197500
     38 H9          2.2060    1.5780   -1.4950 ha        1 627      0.143000
     39 H12         2.8150   -2.1260    0.1760 ha        1 627      0.157000
     40 H10         3.5610    2.5170    0.1930 ha        1 627      0.136000
     41 H11         4.1620   -1.1460    1.8450 ha        1 627      0.141000
     42 H181        6.2590    1.5060    1.3960 h1        1 627      0.086000
     43 H182        5.3860    2.7810    0.8960 h1        1 627      0.086000
     44 H221        3.4190    1.1620    3.5020 h1        1 627      0.086000
     45 H222        4.7600    0.2960    3.3610 h1        1 627      0.086000
     46 H191        7.0320    2.6180    3.0960 h1        1 627      0.080000
     47 H192        6.6430    3.9400    2.2580 h1        1 627      0.080000
     48 H211        4.4670    2.1330    5.1480 h1        1 627      0.080000
     49 H212        5.8870    1.6750    4.6320 h1        1 627      0.080000
     50 H231        6.8280    3.7150    5.1630 h1        1 627      0.073333
     51 H232        6.3730    5.0880    4.5020 h1        1 627      0.073333
     52 H233        5.4730    4.4340    5.6470 h1        1 627      0.073333
     53 H20        -3.4990   -1.6730   -2.4960 h1        1 627      0.105000
     54 H28        -3.7570   -3.7210   -1.1300 ha        1 627      0.137250
     55 H29        -7.0080   -2.0880   -3.0850 ha        1 627      0.158000
     56 H31        -5.2440   -4.8500    0.3530 ha        1 627      0.137250
     57 H33        -8.5020   -3.2240   -1.5910 ha        1 627      0.137250
     58 H35        -7.6120   -4.6150    0.1400 ha        1 627      0.137250
     59 H361       -2.4740   -2.5490   -5.6720 h1        1 627      0.084000
     60 H362       -2.7510   -1.1290   -4.9810 h1        1 627      0.084000
     61 H363       -1.9090   -2.2290   -4.1940 h1        1 627      0.084000
@<TRIPOS>BOND
     1    1   15 1   
     2    1   16 1   
     3    2    4 1   
     4    3    5 1   
     5    3   14 1   
     6    6    7 1   
     7    6    8 1   
     8    7    9 1   
     9    7   12 1   
    10    9   10 1   
    11    9   38 1   
    12   10   40 1   
    13   11   24 1   
    14   11   41 1   
    15   12   39 1   
    16   13   14 1   
    17   13   16 1   
    18   14   15 1   
    19   17   18 1   
    20   17   22 1   
    21   17   24 1   
    22   18   19 1   
    23   18   42 1   
    24   18   43 1   
    25   19   20 1   
    26   19   46 1   
    27   19   47 1   
    28   20   21 1   
    29   20   23 1   
    30   21   22 1   
    31   21   48 1   
    32   21   49 1   
    33   22   44 1   
    34   22   45 1   
    35   23   50 1   
    36   23   51 1   
    37   23   52 1   
    38   25   26 1   
    39   25   32 1   
    40   27   29 1   
    41   27   32 1   
    42   28   30 1   
    43   28   54 1   
    44   29   55 1   
    45   30   56 1   
    46   31   33 1   
    47   31   57 1   
    48   32   35 1   
    49   32   53 1   
    50   33   58 1   
    51   34   35 1   
    52   34   59 1   
    53   34   60 1   
    54   34   61 1   
@<TRIPOS>SUBSTRUCTURE
     1 627         1 TEMP              0 ****  ****    0 ROOT
