@<TRIPOS>MOLECULE
627
   65    61     1     0     0
SMALL
bcc


@<TRIPOS>ATOM
      1 N1         -0.9820    0.8320   -1.3000 n8        1 627     -0.300000
      2 N2         -0.1770   -2.3880    4.7320 n1        1 627     -0.067000
      3 C3          2.9740    1.9660    1.4590 c2        1 627      0.177000
      4 N4          2.2530    2.7020    2.2470 n2        1 627     -0.268000
      5 N5          4.1770    1.3620    1.9370 ns        1 627     -0.321000
      6 C6          4.3590    0.8610    3.2060 c2        1 627      0.305000
      7 C7          5.7530    0.4050    3.5560 c2        1 627      0.161000
      8 O8          3.4650    0.7490    4.0640 o         1 627     -0.315000
      9 C9         12.1870    0.5620    3.6740 c2        1 627     -0.131000
     10 C10        11.6820    0.7650    2.4980 c1        1 627     -0.274000
     11 C11         7.4610   -0.5750    1.8680 c1        1 627      0.186000
     12 C12         6.6110   -0.0850    2.6850 c1        1 627     -0.547000
     13 C13        -0.0360   -1.3430    4.2410 c1        1 627     -0.098000
     14 C14         2.6960    1.6890    0.0290 c2        1 627     -0.363000
     15 C15         1.4110    1.5130   -0.3360 c1        1 627     -0.280000
     16 C16         0.1600   -0.0610    3.6400 cx        1 627     -0.059000
     17 N17        10.9470    0.0650    0.3050 n7        1 627     -0.273000
     18 C18         9.7980    0.3260   -0.5370 c3        1 627     -0.093000
     19 C19         9.7350   -0.6150   -1.7560 c3        1 627     -0.107000
     20 N20         9.5030   -2.0130   -1.5520 n2        1 627     -0.190000
     21 C21        12.2710   -3.3020    1.0940 c3        1 627     -0.310000
     22 C22        12.5300   -3.8650    2.3930 c1        1 627     -0.062000
     23 C23         9.0810   -2.5120   -0.4570 c2        1 627     -0.140000
     24 C24        11.2050    1.0180    1.2990 c2        1 627     -0.002000
     25 C25         0.0440    0.9660   -2.1300 c2        1 627      0.268000
     26 O26         1.2740    1.2730   -1.7610 os        1 627     -0.146000
     27 C27        -4.2000    0.9750   -3.5570 c1        1 627     -0.043000
     28 C28        -0.4060    0.2090    2.2520 cx        1 627     -0.181000
     29 C29        -5.3160    1.6990   -3.3250 c1        1 627     -0.070000
     30 C31        -0.9910    0.8390    3.4350 cu        1 627     -0.155000
     31 C33        -6.3090    2.3400   -3.1230 c1        1 627     -0.136000
     32 C20        -3.1970    0.3480   -3.7410 c1        1 627     -0.067000
     33 C35        -1.8750    1.6430    3.9710 c2        1 627     -0.150000
     34 O34        -2.0510   -0.3010   -3.8960 os        1 627     -0.153000
     35 H15        -0.8390    0.9870   -0.3140 hn        1 627      0.279000
     36 H16        -1.8870    0.5960   -1.6430 hn        1 627      0.279000
     37 H9         13.2710    0.4740    3.8450 ha        1 627      0.120000
     38 H12         5.9830    0.4940    4.6370 ha        1 627      0.165000
     39 H10        11.5620    0.4700    4.5750 ha        1 627      0.120000
     40 H11        11.0500    2.0680    0.9770 h4        1 627      0.148000
     41 H181        9.8810    1.3800   -0.9280 h1        1 627      0.085000
     42 H182        8.8290    0.2510    0.0420 h1        1 627      0.085000
     43 H221       10.9630   -0.8800    0.6420 hn        1 627      0.180000
     44 H222       11.6600   -4.0210    3.0500 ha        1 627      0.034000
     45 H191       10.7030   -0.5400   -2.3310 h1        1 627      0.109500
     46 H192        8.9100   -0.2330   -2.4250 h1        1 627      0.109500
     47 H211       12.8140   -2.3150    1.0470 hc        1 627      0.113333
     48 H212       12.7490   -3.9630    0.3190 hc        1 627      0.113333
     49 H231       11.2000   -3.1340    0.8050 hc        1 627      0.113333
     50 H232        8.8250   -1.9720    0.4780 h4        1 627      0.124000
     51 H233        8.9330   -3.6080   -0.4270 h4        1 627      0.124000
     52 H20        -0.0790    0.8090   -3.2280 h5        1 627      0.209000
     53 H28        -0.9670   -0.5930    1.7380 hc        1 627      0.133000
     54 H29         0.2170    0.8090    1.5510 hc        1 627      0.133000
     55 H31        -1.9250    1.8190    5.0540 ha        1 627      0.122000
     56 H33        -2.6140    2.1870    3.3670 ha        1 627      0.122000
     57 H35        -7.1880    2.9070   -2.9430 ha        1 627      0.238000
     58 H361       -2.3790   -0.9780   -5.8620 h1        1 627      0.103333
     59 H362       -2.8630   -2.1410   -4.5210 h1        1 627      0.103333
     60 H363       -1.0780   -1.7930   -4.8360 h1        1 627      0.103333
     61 HN5         4.8910    1.2190    1.2580 hn        1 627      0.247000
     62 HN2         1.4320    3.0630    1.8080 hn        1 627      0.163000
     63 H151        3.5560    1.6430   -0.6540 ha        1 627      0.108000
     64 H161        1.1520    0.3890    3.9010 hc        1 627      0.196000
     65 C36        -2.1180   -1.3820   -4.8560 c3        1 627     -0.077000
@<TRIPOS>BOND
     1    1   25 1   
     2    1   35 1   
     3    1   36 1   
     4    2   13 1   
     5    3    4 1   
     6    3    5 1   
     7    3   14 1   
     8    4   62 1   
     9    5    6 1   
    10    5   61 1   
    11    6    7 1   
    12    6    8 1   
    13    7   12 1   
    14    7   38 1   
    15    9   10 1   
    16    9   37 1   
    17    9   39 1   
    18   10   24 1   
    19   11   12 1   
    20   13   16 1   
    21   14   15 1   
    22   14   63 1   
    23   15   26 1   
    24   16   28 1   
    25   16   30 1   
    26   16   64 1   
    27   17   18 1   
    28   17   24 1   
    29   17   43 1   
    30   18   19 1   
    31   18   41 1   
    32   18   42 1   
    33   19   20 1   
    34   19   45 1   
    35   19   46 1   
    36   20   23 1   
    37   21   22 1   
    38   21   47 1   
    39   21   48 1   
    40   21   49 1   
    41   22   44 1   
    42   23   50 1   
    43   23   51 1   
    44   24   40 1   
    45   25   26 1   
    46   25   52 1   
    47   27   29 1   
    48   27   32 1   
    49   28   30 1   
    50   28   53 1   
    51   28   54 1   
    52   29   31 1   
    53   30   33 1   
    54   31   57 1   
    55   32   34 1   
    56   33   55 1   
    57   33   56 1   
    58   34   65 1   
    59   58   65 1   
    60   59   65 1   
    61   60   65 1   
@<TRIPOS>SUBSTRUCTURE
     1 627         1 TEMP              0 ****  ****    0 ROOT
