@<TRIPOS>MOLECULE
627
   61    59     1     0     0
SMALL
bcc


@<TRIPOS>ATOM
      1 N1         -0.6480   -1.7060   -0.2770 n         1 627     -0.218000
      2 N2          0.9330    1.4030    1.4310 n2        1 627      0.133000
      3 C3          3.3440    1.1800    1.6260 c2        1 627      0.164000
      4 N4          2.0240    1.8100    1.7500 n2        1 627     -0.014000
      5 N5          3.4910   -0.1050    1.5560 n2        1 627     -0.230000
      6 C6          4.7400   -0.7810    1.6190 c2        1 627      0.330000
      7 C7          5.2390   -1.4610    0.3960 c2        1 627     -0.155000
      8 O8          5.3460   -0.8600    2.7020 o         1 627     -0.321000
      9 C9          4.4230   -1.7880   -0.6390 c2        1 627      0.015000
     10 C10         4.8350   -2.4930   -1.8160 c2        1 627     -0.328000
     11 C11         7.4630   -2.1290   -0.5290 c1        1 627      0.097000
     12 C12         6.6550   -1.7640    0.4370 c2        1 627     -0.373000
     13 C13         0.5380    0.2610    0.8120 c1        1 627     -0.192000
     14 C14         4.3950    2.1510    1.6470 c1        1 627     -0.180000
     15 C15         5.2660    2.9710    1.6670 c1        1 627     -0.113000
     16 C16        -0.0130   -0.6790    0.2880 c1        1 627      0.019000
     17 N17         4.1550   -3.2990   -4.0430 n3        1 627     -0.249000
     18 C18         5.2050   -4.2880   -4.1960 c3        1 627     -0.146000
     19 C19         4.7900   -5.5810   -4.7070 c1        1 627     -0.101000
     20 N20         1.8110   -5.4310   -4.2030 n3        1 627     -0.305000
     21 C21         1.7600   -4.0220   -4.5080 c3        1 627     -0.101000
     22 C22         3.0610   -3.3430   -4.9890 c3        1 627     -0.057000
     23 C23         2.2290   -5.7660   -2.8670 c3        1 627     -0.121000
     24 C24         3.9540   -2.6480   -2.8520 c2        1 627      0.073000
     25 C25        -0.0360   -2.6630   -1.0850 c2        1 627      0.323000
     26 O26         1.1650   -2.6090   -1.3950 o         1 627     -0.343000
     27 C27        -1.0740   -4.8820   -0.4920 c3        1 627     -0.075000
     28 C28         8.6330   -2.6690   -3.3820 c1        1 627     -0.068500
     29 C29        -1.7200   -4.4140    0.6950 c1        1 627     -0.184000
     30 C31         8.4160   -2.9910   -4.5410 c1        1 627     -0.244000
     31 C33        -2.2640   -4.0520    1.6980 c1        1 627     -0.187000
     32 C20        -0.9120   -3.8230   -1.5840 c3        1 627      0.010000
     33 C35         7.9910   -3.4140   -5.7360 c1        1 627     -0.068500
     34 O34        -2.1660   -3.2850   -1.9930 os        1 627     -0.280000
     35 H15         6.0460    3.6900    1.6860 ha        1 627      0.231000
     36 H16        -1.6370   -1.7770   -0.1310 hn        1 627      0.273000
     37 H9          3.3430   -1.5380   -0.5900 ha        1 627      0.155000
     38 H12         7.1190   -1.6650    1.4520 ha        1 627      0.218000
     39 H10         5.8550   -2.9090   -1.8470 ha        1 627      0.134000
     40 H11         2.9570   -2.1540   -2.7730 h4        1 627      0.159000
     41 H181        5.7720   -4.3900   -3.2210 h1        1 627      0.164000
     42 H182        5.9700   -3.8800   -4.9600 h1        1 627      0.164000
     43 H221        3.4250   -3.8670   -5.9180 h1        1 627      0.098500
     44 H222        2.8040   -2.2790   -5.2610 h1        1 627      0.098500
     45 H191        2.4010   -5.9040   -4.8700 hn        1 627      0.186000
     46 H192        5.5790   -6.3460   -4.7340 ha        1 627      0.062000
     47 H211        1.3600   -3.4580   -3.6170 h1        1 627      0.091000
     48 H212        1.0200   -3.9050   -5.3530 h1        1 627      0.091000
     49 H231        3.3400   -5.6780   -2.7040 h1        1 627      0.064333
     50 H232        1.7160   -5.1070   -2.1160 h1        1 627      0.064333
     51 H233        1.9360   -6.8330   -2.6740 h1        1 627      0.064333
     52 H20        -0.3720   -4.2850   -2.4650 h1        1 627      0.138000
     53 H28         8.7470   -2.4110   -2.3480 ha        1 627      0.194000
     54 H29        -0.0480   -5.2750   -0.2350 hc        1 627      0.119500
     55 H31        -1.6690   -5.7370   -0.9240 hc        1 627      0.119500
     56 H33         8.5150   -3.2840   -6.6820 ha        1 627      0.194000
     57 H35        -2.7390   -3.7330    2.5910 ha        1 627      0.228000
     58 H361       -3.0110   -5.0780   -2.6690 h1        1 627      0.084667
     59 H362       -2.1580   -4.0650   -3.9370 h1        1 627      0.084667
     60 H363       -3.7480   -3.4830   -3.2140 h1        1 627      0.084667
     61 C36        -2.7960   -4.0390   -3.0200 c3        1 627     -0.073000
@<TRIPOS>BOND
     1    1   16 1   
     2    1   25 1   
     3    1   36 1   
     4    2    4 1   
     5    2   13 1   
     6    3    4 1   
     7    3    5 1   
     8    3   14 1   
     9    5    6 1   
    10    6    7 1   
    11    6    8 1   
    12    7    9 1   
    13    7   12 1   
    14    9   10 1   
    15    9   37 1   
    16   10   24 1   
    17   10   39 1   
    18   11   12 1   
    19   12   38 1   
    20   13   16 1   
    21   14   15 1   
    22   15   35 1   
    23   17   18 1   
    24   17   22 1   
    25   17   24 1   
    26   18   19 1   
    27   18   41 1   
    28   18   42 1   
    29   19   46 1   
    30   20   21 1   
    31   20   23 1   
    32   20   45 1   
    33   21   22 1   
    34   21   47 1   
    35   21   48 1   
    36   22   43 1   
    37   22   44 1   
    38   23   49 1   
    39   23   50 1   
    40   23   51 1   
    41   24   40 1   
    42   25   26 1   
    43   25   32 1   
    44   27   29 1   
    45   27   32 1   
    46   27   54 1   
    47   27   55 1   
    48   28   30 1   
    49   28   53 1   
    50   29   31 1   
    51   30   33 1   
    52   31   57 1   
    53   32   34 1   
    54   32   52 1   
    55   33   56 1   
    56   34   61 1   
    57   58   61 1   
    58   59   61 1   
    59   60   61 1   
@<TRIPOS>SUBSTRUCTURE
     1 627         1 TEMP              0 ****  ****    0 ROOT
