@<TRIPOS>MOLECULE
627
   61    65     1     0     0
SMALL
bcc


@<TRIPOS>ATOM
      1 N1          1.8750   -1.1520    0.8500 n         1 627     -0.117200
      2 N2         -1.3630   -2.3540   -0.4350 nc        1 627     -0.069400
      3 C3          0.2610   -3.0430   -1.9170 cd        1 627      0.716900
      4 N4         -1.2070   -2.9730   -1.4830 nd        1 627     -0.224300
      5 N5          0.6260   -3.6480   -2.9940 ne        1 627     -0.628100
      6 C6          1.9880   -3.7240   -3.4200 c         1 627      0.730100
      7 C7          2.2200   -4.3950   -4.7170 ca        1 627     -0.183600
      8 O8          2.9350   -3.2610   -2.7510 o         1 627     -0.599100
      9 C9          1.1930   -4.9610   -5.4830 ca        1 627     -0.036500
     10 C10         1.4710   -5.5800   -6.6940 ca        1 627     -0.205500
     11 C11         3.8250   -5.0770   -6.4070 ca        1 627     -0.205500
     12 C12         3.5370   -4.4660   -5.1960 ca        1 627     -0.036500
     13 C13        -0.1090   -1.8760    0.0770 cc        1 627     -0.071600
     14 C14         0.9700   -2.3050   -0.8600 cd        1 627     -0.315900
     15 C15         2.1580   -1.8430   -0.3530 cc        1 627      0.006700
     16 C16         0.4780   -1.1740    1.1040 cd        1 627      0.001700
     17 N17         3.0700   -6.3710   -8.3750 nh        1 627     -0.644000
     18 C18         4.4650   -6.5360   -8.7410 c3        1 627      0.191300
     19 C19         4.6650   -7.5220   -9.9100 c3        1 627      0.163300
     20 N20         3.8140   -7.2280  -11.0530 n3        1 627     -0.731600
     21 C21         2.4160   -7.1010  -10.6700 c3        1 627      0.163300
     22 C22         2.2000   -6.1090   -9.5100 c3        1 627      0.191300
     23 C23         4.0090   -8.1570  -12.1430 c3        1 627      0.156100
     24 C24         2.7970   -5.6600   -7.1900 ca        1 627      0.190600
     25 C25         2.8090   -0.5170    1.6990 c         1 627      0.571900
     26 O26         2.4020    0.1210    2.6740 o         1 627     -0.506100
     27 C27         4.7040    0.4260    0.4010 ca        1 627     -0.149300
     28 C28         5.1080    0.1060   -0.9000 ca        1 627     -0.103000
     29 C29         4.6830    1.7640    0.8140 ca        1 627     -0.103000
     30 C31         5.4820    1.1200   -1.7810 ca        1 627     -0.131500
     31 C33         5.0600    2.7730   -0.0700 ca        1 627     -0.131500
     32 C20         4.2990   -0.6570    1.3540 c3        1 627      0.132400
     33 C35         5.4580    2.4520   -1.3680 ca        1 627     -0.111000
     34 O34         4.9580   -0.5390    2.6170 os        1 627     -0.393600
     35 H15         3.1740   -1.9340   -0.7530 h4        1 627      0.205000
     36 H16         0.0700   -0.6840    1.9940 h4        1 627      0.208000
     37 H9          0.1470   -4.9290   -5.1350 ha        1 627      0.155000
     38 H12         4.3500   -4.0200   -4.5980 ha        1 627      0.155000
     39 H10         0.6370   -6.0280   -7.2540 ha        1 627      0.139000
     40 H11         4.8720   -5.0930   -6.7460 ha        1 627      0.139000
     41 H181        5.0180   -6.9550   -7.8530 h1        1 627      0.047450
     42 H182        4.9340   -5.5470   -9.0180 h1        1 627      0.047450
     43 H221        2.3570   -5.0600   -9.8960 h1        1 627      0.047450
     44 H222        1.1270   -6.2050   -9.1850 h1        1 627      0.047450
     45 H191        5.7360   -7.4370  -10.2450 h1        1 627      0.040950
     46 H192        4.5030   -8.5720   -9.5280 h1        1 627      0.040950
     47 H211        1.9690   -8.0980  -10.3830 h1        1 627      0.040950
     48 H212        1.8480   -6.7100  -11.5600 h1        1 627      0.040950
     49 H231        3.7240   -9.2140  -11.8850 h1        1 627      0.034700
     50 H232        5.0900   -8.1410  -12.4410 h1        1 627      0.034700
     51 H233        3.3880   -7.8230  -13.0160 h1        1 627      0.034700
     52 H20         4.5150   -1.6760    0.9210 h1        1 627      0.069700
     53 H28         5.1340   -0.9430   -1.2340 ha        1 627      0.147000
     54 H29         4.3650    2.0020    1.8430 ha        1 627      0.147000
     55 H31         5.7950    0.8650   -2.8050 ha        1 627      0.139500
     56 H33         5.0410    3.8230    0.2580 ha        1 627      0.139500
     57 H35         5.7530    3.2490   -2.0670 ha        1 627      0.137000
     58 H361        6.4120   -2.0100    2.2970 h1        1 627      0.044033
     59 H362        6.6880   -0.7520    3.6110 h1        1 627      0.044033
     60 H363        6.8880   -0.3000    1.8370 h1        1 627      0.044033
     61 C36         6.3230   -0.9290    2.5680 c3        1 627      0.111700
@<TRIPOS>BOND
     1    1   15 1   
     2    1   16 1   
     3    1   25 1   
     4    2    4 2   
     5    2   13 1   
     6    3    4 1   
     7    3    5 2   
     8    3   14 1   
     9    5    6 1   
    10    6    7 1   
    11    6    8 2   
    12    7    9 ar  
    13    7   12 ar  
    14    9   10 ar  
    15    9   37 1   
    16   10   24 ar  
    17   10   39 1   
    18   11   12 ar  
    19   11   24 ar  
    20   11   40 1   
    21   12   38 1   
    22   13   14 1   
    23   13   16 2   
    24   14   15 2   
    25   15   35 1   
    26   16   36 1   
    27   17   18 1   
    28   17   22 1   
    29   17   24 1   
    30   18   19 1   
    31   18   41 1   
    32   18   42 1   
    33   19   20 1   
    34   19   45 1   
    35   19   46 1   
    36   20   21 1   
    37   20   23 1   
    38   21   22 1   
    39   21   47 1   
    40   21   48 1   
    41   22   43 1   
    42   22   44 1   
    43   23   49 1   
    44   23   50 1   
    45   23   51 1   
    46   25   26 2   
    47   25   32 1   
    48   27   28 ar  
    49   27   29 ar  
    50   27   32 1   
    51   28   30 ar  
    52   28   53 1   
    53   29   31 ar  
    54   29   54 1   
    55   30   33 ar  
    56   30   55 1   
    57   31   33 ar  
    58   31   56 1   
    59   32   34 1   
    60   32   52 1   
    61   33   57 1   
    62   34   61 1   
    63   58   61 1   
    64   59   61 1   
    65   60   61 1   
@<TRIPOS>SUBSTRUCTURE
     1 627         1 TEMP              0 ****  ****    0 ROOT
