@<TRIPOS>MOLECULE
628
   44    34     1     0     0
SMALL
bcc


@<TRIPOS>ATOM
      1 C1         -2.5290   -1.2840   -2.0140 c1        1 628     -0.186000
      2 C2         -1.1420   -1.3680   -2.0120 c1        1 628      0.024000
      3 N3         -0.4520   -1.3770   -0.8160 n1        1 628     -0.070000
      4 C4         -1.1290   -1.3040    0.3600 c1        1 628      0.028000
      5 C5         -2.5300   -1.2180    0.3590 c1        1 628     -0.113000
      6 C6         -3.2140   -1.2090   -0.8270 c1        1 628     -0.074000
      7 C10         0.8730   -1.3900   -0.5350 c1        1 628     -0.194000
      8 C11         1.0190   -1.3230    0.8320 c1        1 628      0.024000
      9 N12        -0.2080   -1.2700    1.3780 n1        1 628     -0.165000
     10 S1          5.1570    1.8450    5.2840 ss        1 628      2.873000
     11 C14         4.2350    0.8680    4.1270 c1        1 628     -0.882000
     12 C15         4.6750    0.7470    2.8180 c2        1 628      0.021000
     13 C16         3.9920   -0.0690    1.9290 c1        1 628     -0.216000
     14 C17         2.8680   -0.7630    2.3500 c1        1 628      0.139000
     15 C18         2.4280   -0.6410    3.6590 c1        1 628     -0.215000
     16 C19         3.1110    0.1740    4.5470 c1        1 628      0.020000
     17 C23        -3.3440   -1.5480   -3.2600 c2        1 628      0.327000
     18 C24        -3.8390   -0.3910   -4.0990 c2        1 628     -0.139000
     19 C25        -4.5300   -0.6340   -5.2750 c2        1 628     -0.034000
     20 C26        -5.0110    0.4260   -6.0270 c1        1 628     -0.127000
     21 C27        -4.8000    1.7290   -5.6030 c1        1 628     -0.113000
     22 C28        -4.1080    1.9720   -4.4270 c1        1 628     -0.113000
     23 C29        -3.6280    0.9120   -3.6750 c1        1 628     -0.034000
     24 O33        -3.5540   -2.6890   -3.6170 o         1 628     -0.250000
     25 O34         6.5490    1.8930    4.9330 o         1 628     -0.942500
     26 N35         2.2330   -1.6790    1.4710 n2        1 628     -0.214000
     27 CL2        -4.7740   -2.2720   -5.8210 cl        1 628      0.015000
     28 CL1        -2.7210    1.5890   -2.3480 cl        1 628      0.014000
     29 N1          4.5170    3.3530    5.3910 n2        1 628     -0.953000
     30 O1          5.2150    1.2110    6.5720 o         1 628     -0.942500
     31 H2         -0.6550   -1.4210   -2.8570 ha        1 628      0.176000
     32 H5         -3.0160   -1.1650    1.2030 ha        1 628      0.171000
     33 H6         -4.1880   -1.1500   -0.8280 ha        1 628      0.170000
     34 H10         1.5980   -1.4380   -1.1880 DU        1 628      0.199000
     35 H15         5.4670    1.2350    2.5220 ha        1 628      0.152000
     36 H16         4.3020   -0.1540    1.0080 ha        1 628      0.147000
     37 H18         1.6360   -1.1300    3.9550 ha        1 628      0.143000
     38 H19         2.8010    0.2600    5.4690 ha        1 628      0.153000
     39 H26        -5.4990    0.2550   -6.8550 ha        1 628      0.158000
     40 H27        -5.1390    2.4760   -6.1330 ha        1 628      0.154000
     41 H28        -3.9600    2.8890   -4.1290 ha        1 628      0.154000
     42 H35         2.6040   -2.4980    1.3210 hn        1 628      0.234000
     43 HN11        4.9320    4.0560    4.9800 hn        1 628      0.241000
     44 HN12        3.7580    3.4940    5.8800 hn        1 628      0.241000
@<TRIPOS>BOND
     1    1    6 1   
     2    1   17 1   
     3    2    3 1   
     4    2   31 1   
     5    4    5 1   
     6    5   32 1   
     7    6   33 1   
     8    7    8 1   
     9    8    9 1   
    10   10   25 1   
    11   10   30 1   
    12   11   12 1   
    13   11   16 1   
    14   12   13 1   
    15   12   35 1   
    16   13   36 1   
    17   14   15 1   
    18   14   26 1   
    19   15   37 1   
    20   16   38 1   
    21   17   18 1   
    22   17   24 1   
    23   18   19 1   
    24   18   23 1   
    25   19   20 1   
    26   19   27 1   
    27   20   39 1   
    28   21   22 1   
    29   21   40 1   
    30   22   41 1   
    31   23   28 1   
    32   26   42 1   
    33   29   43 1   
    34   29   44 1   
@<TRIPOS>SUBSTRUCTURE
     1 628         1 TEMP              0 ****  ****    0 ROOT
