@<TRIPOS>MOLECULE
628
   44    47     1     0     0
SMALL
bcc


@<TRIPOS>ATOM
      1 C1         -2.9800    0.6200    0.2990 cc        1 628     -0.214600
      2 C2         -2.0840    1.5810    0.7490 cd        1 628      0.009700
      3 N3         -0.7470    1.4380    0.5020 na        1 628      0.010700
      4 C4         -0.2370    0.3010   -0.2210 cd        1 628      0.001700
      5 C5         -1.1730   -0.6860   -0.6790 cd        1 628     -0.111000
      6 C6         -2.5050   -0.5190   -0.4200 cc        1 628     -0.080000
      7 C10         0.3480    2.2320    0.8360 cd        1 628     -0.243100
      8 C11         1.4900    1.5650    0.3020 cc        1 628      0.256600
      9 N12         1.1130    0.3750   -0.3530 nc        1 628     -0.297600
     10 C14         6.3170   -0.2420   -0.0290 ca        1 628     -0.428500
     11 C15         5.1550   -0.8180    0.4990 ca        1 628      0.011000
     12 C16         3.9770   -0.0980    0.6340 ca        1 628     -0.194000
     13 C17         3.9250    1.2550    0.2250 ca        1 628      0.217600
     14 C18         5.0950    1.8390   -0.3240 ca        1 628     -0.194000
     15 C19         6.2580    1.0950   -0.4400 ca        1 628      0.011000
     16 C23        -4.4130    0.8160    0.5870 c         1 628      0.609300
     17 C24        -5.3480   -0.2340    0.0990 ca        1 628     -0.145600
     18 C25        -5.9420   -0.1290   -1.1680 ca        1 628      0.047400
     19 C26        -6.8460   -1.0980   -1.6150 ca        1 628     -0.127000
     20 C27        -7.1640   -2.1770   -0.7940 ca        1 628     -0.100000
     21 C28        -6.5880   -2.2970    0.4690 ca        1 628     -0.127000
     22 C29        -5.6840   -1.3260    0.9130 ca        1 628      0.047400
     23 O33        -4.8250    1.8040    1.2050 o         1 628     -0.508100
     24 O34         8.5030   -0.5640   -1.2330 o         1 628     -0.662800
     25 N35         2.7950    2.0580    0.4430 nh        1 628     -0.587400
     26 CL2        -5.5730    1.1820   -2.1820 cl        1 628     -0.066900
     27 CL1        -4.9990   -1.4870    2.4580 cl        1 628     -0.066900
     28 N1          8.4820   -0.9170    1.1980 n3        1 628     -1.026700
     29 O1          7.3860   -2.5030   -0.3230 o         1 628     -0.662800
     30 H2         -2.4130    2.4770    1.3100 h4        1 628      0.190000
     31 H5         -0.7780   -1.5520   -1.2290 ha        1 628      0.172000
     32 H6         -3.2370   -1.2670   -0.7650 ha        1 628      0.154000
     33 H10         0.2600    3.1590    1.3980 h4        1 628      0.195000
     34 H15         5.1740   -1.8810    0.8010 ha        1 628      0.152000
     35 H16         3.0900   -0.5910    1.0590 ha        1 628      0.148000
     36 H18         5.0890    2.8860   -0.6640 ha        1 628      0.148000
     37 H19         7.1550    1.5590   -0.8890 ha        1 628      0.152000
     38 H26        -7.3070   -1.0050   -2.6110 ha        1 628      0.157000
     39 H27        -7.8780   -2.9390   -1.1440 ha        1 628      0.148000
     40 H28        -6.8460   -3.1490    1.1170 ha        1 628      0.157000
     41 H35         2.8830    2.9980    0.1100 hn        1 628      0.424800
     42 HN11        9.1290   -0.1870    1.3610 hn        1 628      0.444800
     43 HN12        8.3660   -1.5080    1.9810 hn        1 628      0.444800
     44 S1          7.7270   -1.1380   -0.2010 sy        1 628      1.533200
@<TRIPOS>BOND
     1    1    2 2   
     2    1    6 1   
     3    1   16 1   
     4    2    3 1   
     5    2   30 1   
     6    3    4 1   
     7    3    7 1   
     8    4    5 1   
     9    4    9 2   
    10    5    6 2   
    11    5   31 1   
    12    6   32 1   
    13    7    8 2   
    14    7   33 1   
    15    8    9 1   
    16    8   25 1   
    17   10   11 ar  
    18   10   15 ar  
    19   10   44 1   
    20   11   12 ar  
    21   11   34 1   
    22   12   13 ar  
    23   12   35 1   
    24   13   14 ar  
    25   13   25 1   
    26   14   15 ar  
    27   14   36 1   
    28   15   37 1   
    29   16   17 1   
    30   16   23 2   
    31   17   18 ar  
    32   17   22 ar  
    33   18   19 ar  
    34   18   26 1   
    35   19   20 ar  
    36   19   38 1   
    37   20   21 ar  
    38   20   39 1   
    39   21   22 ar  
    40   21   40 1   
    41   22   27 1   
    42   24   44 2   
    43   25   41 1   
    44   28   42 1   
    45   28   43 1   
    46   28   44 1   
    47   29   44 2   
@<TRIPOS>SUBSTRUCTURE
     1 628         1 TEMP              0 ****  ****    0 ROOT
