@<TRIPOS>MOLECULE
628
   45    47     1     0     0
SMALL
bcc


@<TRIPOS>ATOM
      1 C1          0.0240    0.1350    0.9730 c2        1 628     -0.242000
      2 C2          0.4000    0.9380    2.0830 c1        1 628      0.106000
      3 N3         -0.0280    0.5920    3.4370 n4        1 628     -0.033000
      4 C4          0.4010   -2.6410    2.6580 c1        1 628      0.110000
      5 C5         -0.1890   -2.5090    1.2120 c3        1 628      0.046000
      6 C6         -0.1960   -1.1700    0.9360 c1        1 628     -0.288000
      7 C10         1.0310    0.1450    4.3120 c1        1 628     -0.232000
      8 C11         1.4650   -1.1500    4.3950 c2        1 628     -0.044000
      9 N12         0.9620   -2.1990    3.6010 n2        1 628     -0.180000
     10 C14         5.1810    1.1300    7.2010 c2        1 628     -0.836000
     11 C15         4.2420    1.6470    6.3710 c2        1 628      0.066000
     12 C16         3.2190    0.8350    5.6950 c3        1 628     -0.185000
     13 C17         3.3090   -0.6360    5.9290 c2        1 628      0.225000
     14 C18         4.3080   -1.1290    6.8480 c2        1 628     -0.274000
     15 C19         5.1900   -0.2830    7.4480 c2        1 628      0.105000
     16 C23         0.0050    0.9190   -0.3160 c2        1 628      0.337000
     17 C24        -1.3300    0.9850   -0.9560 c2        1 628     -0.149000
     18 C25        -1.6960   -0.1590   -1.8430 c3        1 628     -0.032000
     19 C26        -3.0880   -0.1080   -2.3700 c2        1 628     -0.093000
     20 C27        -3.8860    0.9670   -2.1750 c2        1 628     -0.196000
     21 C28        -3.3590    2.1580   -1.5980 c1        1 628      0.043000
     22 C29        -2.2000    2.0130   -0.7590 c2        1 628     -0.082000
     23 O33         1.0190    1.4390   -0.7650 o         1 628     -0.197000
     24 O34         6.6460    1.4210    9.2110 o         1 628     -0.913500
     25 N35         2.4850   -1.5060    5.3290 n3        1 628     -0.115000
     26 CL2        -0.5690   -0.2920   -3.1970 cl        1 628     -0.048000
     27 CL1        -1.9060    3.2430    0.3670 cl        1 628      0.031000
     28 N1          7.5400    2.2240    7.0650 n3        1 628     -0.958000
     29 O1          5.6710    3.3880    8.1590 o         1 628     -0.913500
     30 H2         -0.3000    1.5090    3.8400 hn        1 628      0.227000
     31 H5         -1.2010   -2.9990    1.2290 hc        1 628      0.182000
     32 H6          0.5250   -3.1180    0.5850 hc        1 628      0.182000
     33 H10        -0.8460   -0.0340    3.4790 hn        1 628      0.227000
     34 H15         2.1870    1.1960    6.0260 hc        1 628      0.209500
     35 H16         4.1820    2.7400    6.1850 ha        1 628      0.188000
     36 H18         3.2300    1.0540    4.5780 hc        1 628      0.209500
     37 H19         4.3520   -2.2100    7.0690 ha        1 628      0.171000
     38 H26        -1.5620   -1.1120   -1.2500 h1        1 628      0.151000
     39 H27        -3.4050   -0.9790   -2.9670 ha        1 628      0.160000
     40 H28        -4.9250    0.9950   -2.5470 ha        1 628      0.179000
     41 H35         2.5820   -2.4860    5.5400 hn        1 628      0.277000
     42 HN11        5.9350   -0.6760    8.1710 ha        1 628      0.193000
     43 HN12        7.6650    2.9460    6.3970 hn        1 628      0.259000
     44 H13         8.3200    1.6120    7.1010 hn        1 628      0.259000
     45 S1          6.3050    2.1410    8.0560 s6        1 628      2.864000
@<TRIPOS>BOND
     1    1    2 1   
     2    1    6 1   
     3    1   16 1   
     4    2    3 1   
     5    3    7 1   
     6    3   30 1   
     7    3   33 1   
     8    4    5 1   
     9    4    9 1   
    10    5    6 1   
    11    5   31 1   
    12    5   32 1   
    13    7    8 1   
    14    8    9 1   
    15    8   25 1   
    16   10   11 1   
    17   10   15 1   
    18   10   45 1   
    19   11   12 1   
    20   11   35 1   
    21   12   13 1   
    22   12   34 1   
    23   12   36 1   
    24   13   14 1   
    25   13   25 1   
    26   14   15 1   
    27   14   37 1   
    28   15   42 1   
    29   16   17 1   
    30   16   23 1   
    31   17   18 1   
    32   17   22 1   
    33   18   19 1   
    34   18   26 1   
    35   18   38 1   
    36   19   20 1   
    37   19   39 1   
    38   20   21 1   
    39   20   40 1   
    40   21   22 1   
    41   22   27 1   
    42   24   45 1   
    43   25   41 1   
    44   28   43 1   
    45   28   44 1   
    46   28   45 1   
    47   29   45 1   
@<TRIPOS>SUBSTRUCTURE
     1 628         1 TEMP              0 ****  ****    0 ROOT
