@<TRIPOS>MOLECULE
628
   46    47     1     0     0
SMALL
bcc


@<TRIPOS>ATOM
      1 C1         -0.7770   -0.2180    0.3410 c2        1 628     -0.475000
      2 C2         -0.0400   -0.4660    1.4600 c1        1 628      0.018000
      3 N3         -0.0890   -1.8450    2.0310 n4        1 628     -0.113000
      4 C4          0.0430   -1.4180    6.1240 c1        1 628     -0.015000
      5 C5         -0.1750   -1.5050    7.4090 c2        1 628     -0.167000
      6 C6         -1.6290   -0.9870   -0.5330 c1        1 628      0.132000
      7 C10         1.1460   -1.9670    2.7530 c1        1 628      0.218000
      8 C11         1.2860   -1.2070    4.0710 c3        1 628     -0.040000
      9 N12         0.0780   -1.3480    4.8800 n2        1 628     -0.193000
     10 C14         5.1540    1.2360    7.0190 c2        1 628     -0.993000
     11 C15         3.9230    1.4500    6.4030 c2        1 628      0.195000
     12 C16         3.1070    0.6140    5.6460 c2        1 628     -0.354000
     13 C17         3.3640   -0.7240    5.3540 c2        1 628      0.173000
     14 C18         6.5440   -0.9440    6.7310 c1        1 628     -0.138000
     15 C19         5.8940    0.0570    6.8540 c1        1 628     -0.177000
     16 C23        -0.9030    1.0450   -0.4230 c2        1 628      0.313000
     17 C24        -1.8410    0.2810   -1.4450 c3        1 628     -0.249000
     18 C25        -1.3230    0.0740   -2.8740 c3        1 628     -0.095000
     19 C26        -1.7690    1.0740   -3.8980 c2        1 628      0.056000
     20 C27        -2.8450    1.9090   -3.6640 c2        1 628     -0.152000
     21 C28        -3.3990    1.6500   -2.4330 c1        1 628      0.197000
     22 C29        -3.2860    0.7370   -1.4750 c2        1 628     -0.016000
     23 O33        -0.5370    2.1960   -0.3850 o         1 628     -0.187000
     24 O34         6.4490    1.8380    9.1250 o         1 628     -0.854000
     25 N35         2.5740   -1.5640    4.6660 n3        1 628     -0.266000
     26 CL2         0.4290   -0.0180   -2.8850 cl        1 628     -0.002000
     27 CL1        -4.4320    0.1280   -0.4590 cl        1 628      0.208000
     28 N1          7.2720    2.8620    6.9540 n4        1 628     -0.504000
     29 O1          5.0600    3.4910    8.0820 o         1 628     -0.854000
     30 H2         -0.9420   -1.9040    2.6130 hn        1 628      0.252500
     31 H5         -0.2310   -2.4770    7.9240 ha        1 628      0.185000
     32 H6         -0.3480   -0.6110    8.0300 ha        1 628      0.185000
     33 H10        -0.1290   -2.5940    1.3230 hn        1 628      0.252500
     34 H15         2.1710    1.0750    5.2800 ha        1 628      0.155000
     35 H16         3.4900    2.4700    6.5600 ha        1 628      0.161000
     36 H18         4.3110   -1.1920    5.7210 h4        1 628      0.189000
     37 H19         7.1400   -1.8220    6.6450 ha        1 628      0.253000
     38 H26        -1.6810   -0.9460   -3.2250 h1        1 628      0.196000
     39 H27        -1.1450    1.1970   -4.8060 ha        1 628      0.215000
     40 H28        -3.1340    2.7480   -4.3210 ha        1 628      0.241000
     41 H35         1.3350   -0.1000    3.7500 h2        1 628      0.199000
     42 HN11        8.1370    2.7480    7.4800 hn        1 628      0.249333
     43 HN12        7.1890    3.8440    6.7020 hn        1 628      0.249333
     44 H352        2.8840   -2.5040    4.5140 hn        1 628      0.271000
     45 H13         7.3500    2.3190    6.1000 hn        1 628      0.249333
     46 S1          5.7740    2.3070    8.0210 s6        1 628      2.830000
@<TRIPOS>BOND
     1    1    2 1   
     2    1    6 1   
     3    1   16 1   
     4    2    3 1   
     5    3    7 1   
     6    3   30 1   
     7    3   33 1   
     8    4    5 1   
     9    4    9 1   
    10    5   31 1   
    11    5   32 1   
    12    6   17 1   
    13    7    8 1   
    14    8    9 1   
    15    8   25 1   
    16    8   41 1   
    17   10   11 1   
    18   10   15 1   
    19   10   46 1   
    20   11   12 1   
    21   11   35 1   
    22   12   13 1   
    23   12   34 1   
    24   13   25 1   
    25   13   36 1   
    26   14   15 1   
    27   14   37 1   
    28   16   17 1   
    29   16   23 1   
    30   17   18 1   
    31   17   22 1   
    32   18   19 1   
    33   18   26 1   
    34   18   38 1   
    35   19   20 1   
    36   19   39 1   
    37   20   21 1   
    38   20   40 1   
    39   21   22 1   
    40   22   27 1   
    41   24   46 1   
    42   25   44 1   
    43   28   42 1   
    44   28   43 1   
    45   28   45 1   
    46   28   46 1   
    47   29   46 1   
@<TRIPOS>SUBSTRUCTURE
     1 628         1 TEMP              0 ****  ****    0 ROOT
