@<TRIPOS>MOLECULE
629
   55    56     1     0     0
SMALL
bcc


@<TRIPOS>ATOM
      1 C7          0.0300   -0.5880    0.0860 ca        1 629     -0.181000
      2 C8          1.4130   -0.4590    0.1670 ca        1 629     -0.086500
      3 C12        -0.7670   -0.1270    1.1470 ca        1 629      0.169100
      4 C11        -0.1770    0.4610    2.2850 ca        1 629     -0.181000
      5 C10         1.2030    0.5780    2.3460 ca        1 629     -0.086500
      6 C9          2.0100    0.1320    1.2870 ca        1 629     -0.221300
      7 C14         3.4890    0.2220    1.3860 c3        1 629     -0.040100
      8 C15         3.9810    1.6690    1.2250 c3        1 629      0.034500
      9 C17         5.5310    1.6810    1.1120 c         1 629      0.647100
     10 N19         6.2330    1.3620    2.2370 n         1 629     -0.522900
     11 C20         7.6780    1.4360    2.2670 c3        1 629      0.010700
     12 C21         8.3610    0.0860    2.0380 c         1 629      0.622100
     13 O23         7.8380   -1.0780    2.5110 oh        1 629     -0.561100
     14 O18         6.0440    1.9480    0.0070 o         1 629     -0.586100
     15 N16         3.3890    2.3180    0.0070 n4        1 629     -0.835600
     16 O22         9.3930   -0.0450    1.3860 o         1 629     -0.455000
     17 C6          8.2370    2.0860    3.5680 c3        1 629      0.139500
     18 N5          7.7000    1.4510    4.8040 n3        1 629     -0.476100
     19 C4          8.2180    2.1230    6.0180 c3        1 629      0.076800
     20 C3          7.9710    3.6350    6.0580 c3        1 629      0.118100
     21 C2          8.4800    4.3190    4.7750 c3        1 629      0.125800
     22 C1          7.8960    3.5940    3.5470 c3        1 629      0.160100
     23 O28         8.1290    0.1690    4.7960 oh        1 629     -0.435300
     24 O32         6.5860    3.9230    6.1570 oh        1 629     -0.586800
     25 O29         7.9830    5.6460    4.6700 oh        1 629     -0.592800
     26 C30        10.0190    4.3590    4.7610 c3        1 629      0.099400
     27 O31        10.3960    5.2180    5.8250 oh        1 629     -0.614800
     28 O64         8.4190    4.1120    2.3370 oh        1 629     -0.606800
     29 O13        -2.1310   -0.2070    1.1470 oh        1 629     -0.471100
     30 H7         -0.4340   -1.0640   -0.7910 ha        1 629      0.167000
     31 H8          2.0380   -0.8560   -0.6490 ha        1 629      0.140500
     32 H11        -0.8210    0.8020    3.1110 ha        1 629      0.167000
     33 H10         1.6690    1.0100    3.2450 ha        1 629      0.140500
     34 H141        3.8280   -0.1340    2.3980 hc        1 629      0.094700
     35 H142        3.9820   -0.4340    0.6180 hc        1 629      0.094700
     36 H15         3.6470    2.2810    2.1160 hx        1 629      0.120700
     37 H19         5.7550    1.2330    3.1000 hn        1 629      0.338500
     38 H20         8.0240    2.1000    1.4040 h1        1 629      0.154700
     39 H161        3.3230    3.3290    0.1440 hn        1 629      0.472133
     40 H162        4.0060    2.1370   -0.8040 hn        1 629      0.472133
     41 H6          9.3620    1.9670    3.4980 h1        1 629      0.099700
     42 H41         7.6730    1.6510    6.8840 h1        1 629      0.068200
     43 H42         9.3200    1.9300    6.1560 h1        1 629      0.068200
     44 H3          8.5260    4.0620    6.9420 h1        1 629      0.080700
     45 H1          6.7800    3.7510    3.5680 h1        1 629      0.065700
     46 H28         7.6080   -0.2850    5.4840 ho        1 629      0.432000
     47 H32         6.3300    3.7390    7.0690 ho        1 629      0.411000
     48 H29         8.2970    6.1280    5.4480 ho        1 629      0.439000
     49 H301       10.4500    3.3380    4.9280 h1        1 629      0.051200
     50 H302       10.3690    4.7620    3.7740 h1        1 629      0.051200
     51 H31        11.3160    5.4670    5.6770 ho        1 629      0.427000
     52 H64         8.3790    5.0770    2.4080 ho        1 629      0.440000
     53 H13        -2.4170   -0.6900    0.3550 ho        1 629      0.440000
     54 H192        7.1790   -0.9010    3.1960 ho        1 629      0.428000
     55 H163        2.4550    1.9240   -0.1710 hn        1 629      0.472133
@<TRIPOS>BOND
     1    1    2 ar  
     2    1    3 ar  
     3    1   30 1   
     4    2    6 ar  
     5    2   31 1   
     6    3    4 ar  
     7    3   29 1   
     8    4    5 ar  
     9    4   32 1   
    10    5    6 ar  
    11    5   33 1   
    12    6    7 1   
    13    7    8 1   
    14    7   34 1   
    15    7   35 1   
    16    8    9 1   
    17    8   15 1   
    18    8   36 1   
    19    9   10 1   
    20    9   14 2   
    21   10   11 1   
    22   10   37 1   
    23   11   12 1   
    24   11   17 1   
    25   11   38 1   
    26   12   13 1   
    27   12   16 2   
    28   13   54 1   
    29   15   39 1   
    30   15   40 1   
    31   15   55 1   
    32   17   18 1   
    33   17   22 1   
    34   17   41 1   
    35   18   19 1   
    36   18   23 1   
    37   19   20 1   
    38   19   42 1   
    39   19   43 1   
    40   20   21 1   
    41   20   24 1   
    42   20   44 1   
    43   21   22 1   
    44   21   25 1   
    45   21   26 1   
    46   22   28 1   
    47   22   45 1   
    48   23   46 1   
    49   24   47 1   
    50   25   48 1   
    51   26   27 1   
    52   26   49 1   
    53   26   50 1   
    54   27   51 1   
    55   28   52 1   
    56   29   53 1   
@<TRIPOS>SUBSTRUCTURE
     1 629         1 TEMP              0 ****  ****    0 ROOT
