@<TRIPOS>MOLECULE
629
   53    54     1     0     0
SMALL
bcc


@<TRIPOS>ATOM
      1 C7         -0.5720    0.5510   -6.6380 ca        1 629     -0.190000
      2 C8         -0.1720    1.0040   -5.3830 ca        1 629     -0.082500
      3 C12        -0.4380   -0.8080   -6.9510 ca        1 629      0.109100
      4 C11         0.0920   -1.7120   -6.0170 ca        1 629     -0.190000
      5 C10         0.4840   -1.2400   -4.7690 ca        1 629     -0.082500
      6 C9          0.3560    0.1170   -4.4390 ca        1 629     -0.099300
      7 C14         0.7990    0.6020   -3.1050 c3        1 629     -0.036100
      8 C15        -0.3880    0.8460   -2.1540 c3        1 629      0.097500
      9 C17         0.1860    0.8950   -0.7120 c         1 629      0.604100
     10 N19         0.4770   -0.2920   -0.1080 n         1 629     -0.484900
     11 C20         1.2910   -0.3970    1.0790 c3        1 629     -0.045300
     12 C21         2.3080   -1.5970    0.9690 c         1 629      0.917600
     13 O23         2.7790   -1.8590   -0.1670 o         1 629     -0.822800
     14 O18         0.3160    2.0050   -0.1330 o         1 629     -0.689100
     15 N16        -1.1560    2.0260   -2.5010 n3        1 629     -0.885800
     16 O22         2.5860   -2.2090    2.0380 o         1 629     -0.822800
     17 C6          0.4740   -0.5070    2.3890 c3        1 629      0.095500
     18 N5         -0.5820   -1.5570    2.3480 n3        1 629     -0.442100
     19 C4         -1.1190   -1.7320    3.7180 c3        1 629      0.074800
     20 C3         -1.8050   -0.4590    4.2180 c3        1 629      0.122100
     21 C2         -0.8840    0.7790    4.1270 c3        1 629      0.085800
     22 C1         -0.1920    0.8450    2.7470 c3        1 629      0.139100
     23 O28        -0.1820   -2.7190    1.8560 oh        1 629     -0.414300
     24 O32        -3.0200   -0.2040    3.5310 oh        1 629     -0.616800
     25 O29        -1.6650    1.9550    4.3300 oh        1 629     -0.608800
     26 C30         0.1370    0.7840    5.2770 c3        1 629      0.144400
     27 O31        -0.5020    0.8880    6.5350 oh        1 629     -0.618800
     28 O64         0.7850    1.8680    2.8150 oh        1 629     -0.609800
     29 O13        -0.8090   -1.3270   -8.1740 oh        1 629     -0.507100
     30 H7         -0.9910    1.2510   -7.3740 ha        1 629      0.134000
     31 H8         -0.2840    2.0690   -5.1280 ha        1 629      0.146000
     32 H11         0.1900   -2.7730   -6.2810 ha        1 629      0.134000
     33 H10         0.9050   -1.9430   -4.0310 ha        1 629      0.146000
     34 H141        1.3900    1.5500   -3.2230 hc        1 629      0.070700
     35 H142        1.4830   -0.1580   -2.6360 hc        1 629      0.070700
     36 H15        -1.0930   -0.0350   -2.2320 h1        1 629      0.077700
     37 H19         0.4440   -1.1270   -0.6550 hn        1 629      0.328500
     38 H20         1.9300    0.5310    1.1750 h1        1 629      0.068700
     39 H161       -1.8970    2.1440   -1.8350 hn        1 629      0.349800
     40 H162       -0.5670    2.8380   -2.4510 hn        1 629      0.349800
     41 H6          1.2470   -0.7440    3.1860 h1        1 629      0.084700
     42 H41        -0.3230   -2.0310    4.4570 h1        1 629      0.054200
     43 H42        -1.8790   -2.5590    3.6680 h1        1 629      0.054200
     44 H3         -2.1160   -0.5920    5.2940 h1        1 629      0.086700
     45 H1         -0.9650    1.1090    1.9700 h1        1 629      0.047700
     46 H28         0.7140   -2.9620    2.1920 ho        1 629      0.430000
     47 H32        -2.8500   -0.3060    2.5860 ho        1 629      0.419000
     48 H29        -2.4330    1.8900    3.7470 ho        1 629      0.414000
     49 H301        0.6960   -0.1880    5.3050 h1        1 629      0.067700
     50 H302        0.8480    1.6400    5.1320 h1        1 629      0.067700
     51 H31        -1.0720    1.6670    6.4960 ho        1 629      0.412000
     52 H64         0.9200    2.1830    1.9080 ho        1 629      0.436000
     53 H13        -1.1720   -0.6020   -8.7010 ho        1 629      0.410000
@<TRIPOS>BOND
     1    1    2 ar  
     2    1    3 ar  
     3    1   30 1   
     4    2    6 ar  
     5    2   31 1   
     6    3    4 ar  
     7    3   29 1   
     8    4    5 ar  
     9    4   32 1   
    10    5    6 ar  
    11    5   33 1   
    12    6    7 1   
    13    7    8 1   
    14    7   34 1   
    15    7   35 1   
    16    8    9 1   
    17    8   15 1   
    18    8   36 1   
    19    9   10 1   
    20    9   14 2   
    21   10   11 1   
    22   10   37 1   
    23   11   12 1   
    24   11   17 1   
    25   11   38 1   
    26   12   13 1   
    27   12   16 1   
    28   15   39 1   
    29   15   40 1   
    30   17   18 1   
    31   17   22 1   
    32   17   41 1   
    33   18   19 1   
    34   18   23 1   
    35   19   20 1   
    36   19   42 1   
    37   19   43 1   
    38   20   21 1   
    39   20   24 1   
    40   20   44 1   
    41   21   22 1   
    42   21   25 1   
    43   21   26 1   
    44   22   28 1   
    45   22   45 1   
    46   23   46 1   
    47   24   47 1   
    48   25   48 1   
    49   26   27 1   
    50   26   49 1   
    51   26   50 1   
    52   27   51 1   
    53   28   52 1   
    54   29   53 1   
@<TRIPOS>SUBSTRUCTURE
     1 629         1 TEMP              0 ****  ****    0 ROOT
