@<TRIPOS>MOLECULE
629
   53    51     1     0     0
SMALL
bcc


@<TRIPOS>ATOM
      1 C7         -2.7110   -3.0470   -4.4250 c1        1 629     -0.146500
      2 C8         -1.9860   -1.9940   -3.8180 c1        1 629     -0.026500
      3 C12        -3.4090   -2.8200   -5.5680 c1        1 629      0.092600
      4 C11        -3.4110   -1.5510   -6.1430 c1        1 629     -0.078000
      5 C10        -2.6880   -0.4960   -5.5380 c1        1 629     -0.078000
      6 C9         -1.9880   -0.7220   -4.3930 c1        1 629     -0.096100
      7 C14        -1.1190    0.4220   -3.7700 c3        1 629     -0.067300
      8 C15        -1.6330    0.7540   -2.3730 c3        1 629      0.091500
      9 C17        -0.4430    0.8930   -1.4170 c         1 629      0.613100
     10 N19        -0.6290    0.6580    0.0100 n         1 629     -0.504900
     11 C20         0.3530   -0.0600    0.7500 c3        1 629     -0.041300
     12 C21        -0.1570   -1.4870    1.0310 c         1 629      0.903600
     13 O23         0.5570   -2.4960    0.7030 o         1 629     -0.829300
     14 O18         0.6150    1.3760   -1.8240 o         1 629     -0.680100
     15 N16        -2.3490    1.9680   -2.4060 n3        1 629     -0.884800
     16 O22        -1.2690   -1.6600    1.6200 o         1 629     -0.829300
     17 C6          0.6050    0.6320    2.0220 c3        1 629      0.122500
     18 N5          1.1860    1.9540    1.7320 n3        1 629     -0.464100
     19 C4          1.6310    2.6620    2.9410 c3        1 629      0.111800
     20 C3          2.5600    1.8060    3.8150 c3        1 629      0.136100
     21 C2          1.9780    0.4700    4.1190 c3        1 629      0.085800
     22 C1          1.5260   -0.2390    2.8930 c3        1 629      0.113100
     23 O28         2.2990    1.7920    0.8410 oh        1 629     -0.470300
     24 O32         3.7920    1.6250    3.1350 oh        1 629     -0.607800
     25 O29         0.8450    0.6400    5.0130 oh        1 629     -0.603800
     26 C30         3.0790   -0.4100    4.8450 c3        1 629      0.117400
     27 O31         2.4790   -1.2150    5.8030 oh        1 629     -0.619800
     28 O64         0.8190   -1.4150    3.2760 oh        1 629     -0.654800
     29 O13        -4.0030   -3.9300   -6.2810 oh        1 629     -0.495600
     30 H7         -2.6560   -3.9560   -4.0580 ha        1 629      0.083500
     31 H8         -1.5060   -2.1500   -3.0330 ha        1 629      0.146500
     32 H11        -3.8950   -1.3950   -6.9360 ha        1 629      0.078000
     33 H10        -2.7910    0.4260   -5.8750 ha        1 629      0.078000
     34 H141       -1.1720    1.2000   -4.3240 hc        1 629      0.063200
     35 H142       -0.1570    0.1170   -3.7070 hc        1 629      0.063200
     36 H15        -2.1980    0.0650   -2.0720 h1        1 629      0.080700
     37 H19        -1.3630    0.9790    0.4270 hn        1 629      0.328500
     38 H20         1.1840   -0.1050    0.2350 h1        1 629      0.084700
     39 H161       -2.8500    2.0080   -3.1740 hn        1 629      0.350300
     40 H162       -1.7540    2.6770   -2.3910 hn        1 629      0.350300
     41 H6         -0.2330    0.7540    2.4830 h1        1 629      0.082700
     42 H41         0.8070    2.9250    3.4930 h1        1 629      0.070200
     43 H42         2.1240    3.5040    2.6670 h1        1 629      0.070200
     44 H3          2.7330    2.2970    4.6860 h1        1 629      0.078700
     45 H1          2.3390   -0.5080    2.3460 h1        1 629      0.077700
     46 H28         2.4330    2.5300    0.4030 ho        1 629      0.454000
     47 H32         4.3880    2.1930    3.4510 ho        1 629      0.424000
     48 H29         1.1220    1.0100    5.7750 ho        1 629      0.430000
     49 H301        3.5340   -0.9720    4.1880 h1        1 629      0.049200
     50 H302        3.7500    0.2000    5.2920 h1        1 629      0.049200
     51 H31         3.0820   -1.6860    6.1980 ho        1 629      0.423000
     52 H64         1.3750   -2.1130    3.2730 ho        1 629      0.462000
     53 H13        -4.8220   -4.1090   -5.9370 ho        1 629      0.415000
@<TRIPOS>BOND
     1    1    3 3   
     2    1   30 1   
     3    2    6 3   
     4    2   31 1   
     5    3   29 1   
     6    4    5 3   
     7    4   32 1   
     8    5   33 1   
     9    6    7 1   
    10    7    8 1   
    11    7   34 1   
    12    7   35 1   
    13    8    9 1   
    14    8   15 1   
    15    8   36 1   
    16    9   10 1   
    17    9   14 2   
    18   10   11 1   
    19   10   37 1   
    20   11   12 1   
    21   11   17 1   
    22   11   38 1   
    23   12   13 1   
    24   12   16 1   
    25   15   39 1   
    26   15   40 1   
    27   17   18 1   
    28   17   22 1   
    29   17   41 1   
    30   18   19 1   
    31   18   23 1   
    32   19   20 1   
    33   19   42 1   
    34   19   43 1   
    35   20   21 1   
    36   20   24 1   
    37   20   44 1   
    38   21   22 1   
    39   21   25 1   
    40   21   26 1   
    41   22   28 1   
    42   22   45 1   
    43   23   46 1   
    44   24   47 1   
    45   25   48 1   
    46   26   27 1   
    47   26   49 1   
    48   26   50 1   
    49   27   51 1   
    50   28   52 1   
    51   29   53 1   
@<TRIPOS>SUBSTRUCTURE
     1 629         1 TEMP              0 ****  ****    0 ROOT
