@<TRIPOS>MOLECULE
629
   55    56     1     0     0
SMALL
bcc


@<TRIPOS>ATOM
      1 C7          0.0600   -0.4540   -0.0560 ca        1 629     -0.179000
      2 C8          1.4380   -0.3330    0.0460 ca        1 629     -0.089000
      3 C12        -0.7420   -0.1270    1.0560 ca        1 629      0.168100
      4 C11        -0.1570    0.3140    2.2540 ca        1 629     -0.179000
      5 C10         1.2270    0.4280    2.3360 ca        1 629     -0.089000
      6 C9          2.0340    0.1190    1.2350 ca        1 629     -0.216300
      7 C14         3.5130    0.2070    1.3380 c3        1 629     -0.040100
      8 C15         4.0090    1.6520    1.1750 c3        1 629      0.034500
      9 C17         5.5610    1.6610    1.0840 c         1 629      0.647100
     10 N19         6.2480    1.3490    2.2200 n         1 629     -0.522900
     11 C20         7.6920    1.4270    2.2700 c3        1 629      0.010700
     12 C21         8.3820    0.0780    2.0560 c         1 629      0.622100
     13 O23         7.8550   -1.0850    2.5240 oh        1 629     -0.560100
     14 O18         6.0900    1.9200   -0.0160 o         1 629     -0.585100
     15 N16         3.4370    2.2960   -0.0550 n4        1 629     -0.835600
     16 O22         9.4250   -0.0510    1.4200 o         1 629     -0.455000
     17 C6          8.2310    2.0830    3.5760 c3        1 629      0.138500
     18 N5          7.6850    1.4470    4.8070 n3        1 629     -0.476100
     19 C4          8.1870    2.1220    6.0250 c3        1 629      0.076800
     20 C3          7.9320    3.6340    6.0610 c3        1 629      0.118100
     21 C2          8.4490    4.3190    4.7810 c3        1 629      0.125800
     22 C1          7.8820    3.5880    3.5500 c3        1 629      0.160100
     23 O28         8.1180    0.1670    4.8050 oh        1 629     -0.435300
     24 O32         6.5450    3.9150    6.1480 oh        1 629     -0.586800
     25 O29         7.9460    5.6430    4.6700 oh        1 629     -0.592800
     26 C30         9.9880    4.3680    4.7830 c3        1 629      0.099400
     27 O31        10.3500    5.2320    5.8480 oh        1 629     -0.614800
     28 O64         8.4120    4.1080    2.3430 oh        1 629     -0.606800
     29 O13        -2.0910   -0.2590    0.8860 oh        1 629     -0.471100
     30 H7         -0.4180   -0.8180   -0.9790 ha        1 629      0.167000
     31 H8          2.0690   -0.6330   -0.8070 ha        1 629      0.140000
     32 H11        -0.7870    0.5500    3.1250 ha        1 629      0.167000
     33 H10         1.6870    0.7510    3.2820 ha        1 629      0.140000
     34 H141        3.8510   -0.1500    2.3500 hc        1 629      0.094700
     35 H142        4.0040   -0.4530    0.5710 hc        1 629      0.094700
     36 H15         3.6650    2.2690    2.0580 hx        1 629      0.119700
     37 H19         5.7580    1.2270    3.0780 hn        1 629      0.337500
     38 H20         8.0480    2.0890    1.4090 h1        1 629      0.154700
     39 H161        3.3820    3.3080    0.0720 hn        1 629      0.472467
     40 H162        4.0600    2.1010   -0.8570 hn        1 629      0.472467
     41 H6          9.3580    1.9710    3.5200 h1        1 629      0.099700
     42 H41         9.2890    1.9360    6.1740 h1        1 629      0.068200
     43 H42         7.6360    1.6490    6.8870 h1        1 629      0.068200
     44 H3          8.4780    4.0650    6.9490 h1        1 629      0.080700
     45 H1          6.7640    3.7390    3.5600 h1        1 629      0.065700
     46 H28         7.5910   -0.2890    5.4880 ho        1 629      0.432000
     47 H32         6.2820    3.7330    7.0590 ho        1 629      0.411000
     48 H29         8.2510    6.1280    5.4500 ho        1 629      0.439000
     49 H301       10.3450    4.7700    3.7980 h1        1 629      0.051700
     50 H302       10.4230    3.3490    4.9570 h1        1 629      0.051700
     51 H31        11.2700    5.4850    5.7080 ho        1 629      0.427000
     52 H64         8.3670    5.0740    2.4130 ho        1 629      0.440000
     53 H13        -2.5330   -0.0740    1.7300 ho        1 629      0.440000
     54 H192        7.1840   -0.9090    3.1960 ho        1 629      0.428000
     55 H163        2.5000    1.9110   -0.2400 hn        1 629      0.472467
@<TRIPOS>BOND
     1    1    2 ar  
     2    1    3 ar  
     3    1   30 1   
     4    2    6 ar  
     5    2   31 1   
     6    3    4 ar  
     7    3   29 1   
     8    4    5 ar  
     9    4   32 1   
    10    5    6 ar  
    11    5   33 1   
    12    6    7 1   
    13    7    8 1   
    14    7   34 1   
    15    7   35 1   
    16    8    9 1   
    17    8   15 1   
    18    8   36 1   
    19    9   10 1   
    20    9   14 2   
    21   10   11 1   
    22   10   37 1   
    23   11   12 1   
    24   11   17 1   
    25   11   38 1   
    26   12   13 1   
    27   12   16 2   
    28   13   54 1   
    29   15   39 1   
    30   15   40 1   
    31   15   55 1   
    32   17   18 1   
    33   17   22 1   
    34   17   41 1   
    35   18   19 1   
    36   18   23 1   
    37   19   20 1   
    38   19   42 1   
    39   19   43 1   
    40   20   21 1   
    41   20   24 1   
    42   20   44 1   
    43   21   22 1   
    44   21   25 1   
    45   21   26 1   
    46   22   28 1   
    47   22   45 1   
    48   23   46 1   
    49   24   47 1   
    50   25   48 1   
    51   26   27 1   
    52   26   49 1   
    53   26   50 1   
    54   27   51 1   
    55   28   52 1   
    56   29   53 1   
@<TRIPOS>SUBSTRUCTURE
     1 629         1 TEMP              0 ****  ****    0 ROOT
