@<TRIPOS>MOLECULE
629
   55    56     1     0     0
SMALL
bcc


@<TRIPOS>ATOM
      1 C7          0.0280   -0.5730    0.0800 ca        1 629     -0.181000
      2 C8          1.4110   -0.4490    0.1640 ca        1 629     -0.086500
      3 C12        -0.7700   -0.1080    1.1380 ca        1 629      0.169100
      4 C11        -0.1810    0.4800    2.2770 ca        1 629     -0.181000
      5 C10         1.1990    0.5920    2.3410 ca        1 629     -0.086500
      6 C9          2.0080    0.1420    1.2840 ca        1 629     -0.221300
      7 C14         3.4870    0.2280    1.3870 c3        1 629     -0.040100
      8 C15         3.9830    1.6730    1.2240 c3        1 629      0.034500
      9 C17         5.5340    1.6800    1.1140 c         1 629      0.647100
     10 N19         6.2320    1.3610    2.2420 ns        1 629     -0.521900
     11 C20         7.6780    1.4300    2.2750 c3        1 629      0.010700
     12 C21         8.3560    0.0760    2.0520 c         1 629      0.622100
     13 O23         7.8280   -1.0840    2.5270 oh        1 629     -0.561100
     14 O18         6.0510    1.9430    0.0100 o         1 629     -0.586100
     15 N16         3.3970    2.3220    0.0030 nz        1 629     -0.835600
     16 O22         9.3890   -0.0600    1.4020 o         1 629     -0.455000
     17 C6          8.2360    2.0820    3.5750 c3        1 629      0.139500
     18 N5          7.6950    1.4530    4.8110 n3        1 629     -0.476100
     19 C4          8.2120    2.1270    6.0240 c3        1 629      0.076800
     20 C3          7.9720    3.6410    6.0590 c3        1 629      0.118100
     21 C2          8.4860    4.3190    4.7750 c3        1 629      0.125800
     22 C1          7.9020    3.5910    3.5480 c3        1 629      0.160100
     23 O28         8.1170    0.1690    4.8090 oh        1 629     -0.435300
     24 O32         6.5880    3.9340    6.1540 oh        1 629     -0.586800
     25 O29         7.9950    5.6470    4.6640 oh        1 629     -0.592800
     26 C30        10.0250    4.3520    4.7640 c3        1 629      0.099400
     27 O31        10.4030    5.2130    5.8260 oh        1 629     -0.614800
     28 O64         8.4290    4.1030    2.3370 oh        1 629     -0.606800
     29 O13        -2.1340   -0.1840    1.1350 oh        1 629     -0.471100
     30 H7         -0.4350   -1.0490   -0.7980 ha        1 629      0.167000
     31 H8          2.0370   -0.8480   -0.6510 ha        1 629      0.140500
     32 H11        -0.8250    0.8240    3.1010 ha        1 629      0.167000
     33 H10         1.6650    1.0250    3.2400 ha        1 629      0.140500
     34 H141        3.8220   -0.1280    2.4000 hc        1 629      0.094700
     35 H142        3.9790   -0.4310    0.6210 hc        1 629      0.094700
     36 H15         3.6500    2.2870    2.1140 hx        1 629      0.120700
     37 H19         5.7520    1.2360    3.1040 hn        1 629      0.338500
     38 H20         8.0280    2.0900    1.4100 h1        1 629      0.154700
     39 H161        2.4620    1.9300   -0.1750 hn        1 629      0.472133
     40 H162        3.3330    3.3330    0.1380 hn        1 629      0.472133
     41 H6          9.3610    1.9580    3.5080 h1        1 629      0.099700
     42 H41         7.6640    1.6600    6.8910 h1        1 629      0.068200
     43 H42         9.3130    1.9300    6.1660 h1        1 629      0.068200
     44 H3          8.5270    4.0680    6.9420 h1        1 629      0.080700
     45 H1          6.7860    3.7530    3.5670 h1        1 629      0.065700
     46 H28         7.5930   -0.2800    5.4980 ho        1 629      0.432000
     47 H32         6.3290    3.7550    7.0670 ho        1 629      0.411000
     48 H29         8.3090    6.1300    5.4420 ho        1 629      0.439000
     49 H301       10.4520    3.3290    4.9350 h1        1 629      0.051200
     50 H302       10.3790    4.7500    3.7760 h1        1 629      0.051200
     51 H31        11.3250    5.4570    5.6790 ho        1 629      0.427000
     52 H64         8.3930    5.0690    2.4050 ho        1 629      0.440000
     53 H13        -2.4200   -0.6670    0.3430 ho        1 629      0.440000
     54 H192        7.1690   -0.9020    3.2100 ho        1 629      0.428000
     55 H163        4.0150    2.1380   -0.8050 hn        1 629      0.472133
@<TRIPOS>BOND
     1    1    2 ar  
     2    1    3 ar  
     3    1   30 1   
     4    2    6 ar  
     5    2   31 1   
     6    3    4 ar  
     7    3   29 1   
     8    4    5 ar  
     9    4   32 1   
    10    5    6 ar  
    11    5   33 1   
    12    6    7 1   
    13    7    8 1   
    14    7   34 1   
    15    7   35 1   
    16    8    9 1   
    17    8   15 1   
    18    8   36 1   
    19    9   10 1   
    20    9   14 2   
    21   10   11 1   
    22   10   37 1   
    23   11   12 1   
    24   11   17 1   
    25   11   38 1   
    26   12   13 1   
    27   12   16 2   
    28   13   54 1   
    29   15   39 1   
    30   15   40 1   
    31   15   55 1   
    32   17   18 1   
    33   17   22 1   
    34   17   41 1   
    35   18   19 1   
    36   18   23 1   
    37   19   20 1   
    38   19   42 1   
    39   19   43 1   
    40   20   21 1   
    41   20   24 1   
    42   20   44 1   
    43   21   22 1   
    44   21   25 1   
    45   21   26 1   
    46   22   28 1   
    47   22   45 1   
    48   23   46 1   
    49   24   47 1   
    50   25   48 1   
    51   26   27 1   
    52   26   49 1   
    53   26   50 1   
    54   27   51 1   
    55   28   52 1   
    56   29   53 1   
@<TRIPOS>SUBSTRUCTURE
     1 629         1 TEMP              0 ****  ****    0 ROOT
