@<TRIPOS>MOLECULE
62A
   60    62     1     0     0
SMALL
bcc


@<TRIPOS>ATOM
      1 CX          1.0440   -1.8430   -0.7150 c         1 62A      0.484600
      2 CY          1.4760   -0.4600   -0.2030 c3        1 62A      0.029700
      3 CZ          1.5430   -2.2260   -2.0530 cc        1 62A      0.275900
      4 OX          0.3190   -2.5980   -0.0630 o         1 62A     -0.517100
      5 N1          0.4100    0.1940    0.5160 n         1 62A     -0.556900
      6 C2          2.7380   -0.6760    0.6530 c3        1 62A     -0.086400
      7 C3          3.4040    0.6370    0.9990 c3        1 62A     -0.089400
      8 C4          4.7160    0.3690    1.7370 c3        1 62A      0.171800
      9 N5          5.3880    1.5770    2.1720 nh        1 62A     -0.795200
     10 C6          6.8240    1.4760    2.2860 c2        1 62A      0.755100
     11 N7          7.3050    0.4740    3.1820 nh        1 62A     -0.943800
     12 N8          7.5720    2.3630    1.6770 n2        1 62A     -0.878100
     13 C9         -0.2830    1.2600    0.0010 c         1 62A      0.645100
     14 O10        -0.0050    1.7700   -1.1030 o         1 62A     -0.615100
     15 C11        -1.4120    1.8650    0.8630 c3        1 62A      0.009000
     16 N12        -2.5340    0.9830    1.0770 n         1 62A     -0.364300
     17 C13        -3.7230    1.0780    0.3150 cc        1 62A      0.510500
     18 N14        -4.7540    0.2590    0.4750 nd        1 62A     -0.583300
     19 C15        -4.6950   -0.7160    1.4420 cd        1 62A      0.033600
     20 C16        -3.6150   -0.8790    2.2930 cc        1 62A     -0.009200
     21 C17        -2.4490    0.0250    2.1070 c         1 62A      0.674700
     22 N18        -3.5970   -1.7700    3.3650 nh        1 62A     -0.789600
     23 C19        -3.8550    2.1630   -0.6950 ca        1 62A     -0.148900
     24 C20        -4.8930    3.0910   -0.5470 ca        1 62A     -0.091000
     25 C21        -5.0610    4.0910   -1.5040 ca        1 62A     -0.136000
     26 C22        -4.2080    4.1640   -2.6040 ca        1 62A     -0.112000
     27 C23        -3.1740    3.2340   -2.7600 ca        1 62A     -0.072300
     28 C24        -3.0040    2.2280   -1.8010 ca        1 62A     -0.100000
     29 C25        -2.2610    3.2990   -3.9240 c3        1 62A     -0.059800
     30 O26        -1.4170   -0.0420    2.8110 o         1 62A     -0.663500
     31 N27         2.7430   -1.8620   -2.5390 nd        1 62A     -0.608000
     32 C28         2.8980   -2.3810   -3.8040 cd        1 62A      0.328200
     33 C29         1.8140   -3.1260   -4.2700 cc        1 62A     -0.269400
     34 S30         0.6180   -3.1900   -3.1270 ss        1 62A      0.040700
     35 HY          1.7450    0.1890   -1.0930 h1        1 62A      0.117700
     36 HN1         0.1550   -0.1900    1.4010 hn        1 62A      0.349500
     37 H21A        2.4740   -1.2330    1.5900 hc        1 62A      0.063700
     38 H22A        3.4480   -1.3140    0.0630 hc        1 62A      0.063700
     39 H31         3.6040    1.2190    0.0600 hc        1 62A      0.059200
     40 H32         2.7250    1.2560    1.6430 hc        1 62A      0.059200
     41 H41         4.4900   -0.2390    2.6610 h1        1 62A      0.036200
     42 H42         5.3730   -0.2640    1.0710 h1        1 62A      0.036200
     43 HN5         5.1150    2.3830    1.6400 hn        1 62A      0.409800
     44 HN71        8.1810    0.0800    2.9290 hn        1 62A      0.396800
     45 HN72        6.6410   -0.1960    3.4950 hn        1 62A      0.396800
     46 HN8         8.5470    2.3240    1.8810 hn        1 62A      0.392400
     47 H111       -1.7540    2.8030    0.3380 h1        1 62A      0.104200
     48 H112       -0.9770    2.1450    1.8680 h1        1 62A      0.104200
     49 H15        -5.5930   -1.3560    1.4940 h4        1 62A      0.173000
     50 H181       -4.0500   -2.6370    3.1710 hn        1 62A      0.400800
     51 H182       -2.6920   -1.8800    3.7740 hn        1 62A      0.400800
     52 H20        -5.5750    3.0270    0.3130 ha        1 62A      0.146000
     53 H21        -5.8740    4.8240   -1.3900 ha        1 62A      0.137000
     54 H22        -4.3460    4.9570   -3.3540 ha        1 62A      0.136000
     55 H24        -2.1820    1.5020   -1.9180 ha        1 62A      0.156000
     56 H251       -1.2170    3.0360   -3.6170 hc        1 62A      0.051033
     57 H252       -2.5900    2.5720   -4.7080 hc        1 62A      0.051033
     58 H253       -2.2540    4.3220   -4.3730 hc        1 62A      0.051033
     59 H28         3.8280   -2.1810   -4.3490 h4        1 62A      0.051100
     60 H29         1.7620   -3.5960   -5.2510 h4        1 62A      0.188000
@<TRIPOS>BOND
     1    1    2 1   
     2    1    3 1   
     3    1    4 2   
     4    2    5 1   
     5    2    6 1   
     6    2   35 1   
     7    3   31 2   
     8    3   34 1   
     9    5   13 1   
    10    5   36 1   
    11    6    7 1   
    12    6   37 1   
    13    6   38 1   
    14    7    8 1   
    15    7   39 1   
    16    7   40 1   
    17    8    9 1   
    18    8   41 1   
    19    8   42 1   
    20    9   10 1   
    21    9   43 1   
    22   10   11 1   
    23   10   12 2   
    24   11   44 1   
    25   11   45 1   
    26   12   46 1   
    27   13   14 2   
    28   13   15 1   
    29   15   16 1   
    30   15   47 1   
    31   15   48 1   
    32   16   17 1   
    33   16   21 1   
    34   17   18 2   
    35   17   23 1   
    36   18   19 1   
    37   19   20 2   
    38   19   49 1   
    39   20   21 1   
    40   20   22 1   
    41   21   30 2   
    42   22   50 1   
    43   22   51 1   
    44   23   24 ar  
    45   23   28 ar  
    46   24   25 ar  
    47   24   52 1   
    48   25   26 ar  
    49   25   53 1   
    50   26   27 ar  
    51   26   54 1   
    52   27   28 ar  
    53   27   29 1   
    54   28   55 1   
    55   29   56 1   
    56   29   57 1   
    57   29   58 1   
    58   31   32 1   
    59   32   33 2   
    60   32   59 1   
    61   33   34 1   
    62   33   60 1   
@<TRIPOS>SUBSTRUCTURE
     1 62A         1 TEMP              0 ****  ****    0 ROOT
