@<TRIPOS>MOLECULE
62A
   60    54     1     0     0
SMALL
bcc


@<TRIPOS>ATOM
      1 CX          0.7010    0.2890   -2.5290 c1        1 62A      0.292000
      2 CY          1.8600   -0.5430   -2.1890 c2        1 62A      0.003000
      3 CZ          0.6910    1.0860   -3.8090 c2        1 62A     -0.396000
      4 OX         -0.2530    0.3540   -1.7600 o         1 62A     -0.284000
      5 N1          2.1000   -0.4600   -0.7680 n         1 62A     -0.374000
      6 C2          1.5760   -2.0120   -2.5890 c3        1 62A     -0.167000
      7 C3          0.3030   -2.5430   -1.7870 c3        1 62A     -0.183000
      8 C4          0.3220   -4.0610   -1.7540 c3        1 62A     -0.052000
      9 N5         -0.7300   -4.5330   -0.9470 n3        1 62A     -0.334000
     10 C6         -0.8010   -5.9580   -0.6000 c2        1 62A      0.154000
     11 N7         -1.7870   -6.8390   -1.2750 n3        1 62A     -0.323000
     12 N8          0.0380   -6.4710    0.3370 n1        1 62A     -0.341000
     13 C9          2.3160    0.8630   -0.1360 c2        1 62A      0.298000
     14 O10         3.0020    1.6900   -0.6910 o         1 62A     -0.356000
     15 C11         1.7630    1.1480    1.2440 c3        1 62A     -0.059000
     16 N12         1.0110    2.3710    1.2150 n3        1 62A     -0.263000
     17 C13        -0.3810    2.3980    1.7010 c2        1 62A      0.110000
     18 N14        -1.2540    3.5360    1.3540 n1        1 62A     -0.145000
     19 C15        -0.7010    4.6710    0.6550 c1        1 62A     -0.121000
     20 C16         0.7470    4.6870    0.2980 c1        1 62A     -0.064000
     21 C17         1.5960    3.5520    0.6510 c1        1 62A      0.312000
     22 N18         1.2770    5.7550   -0.5410 n3        1 62A     -0.303000
     23 C19        -0.8760    1.3170    2.6780 c2        1 62A     -0.055000
     24 C20        -1.1420    0.0240    2.2040 c2        1 62A     -0.109000
     25 C21        -1.7520   -0.9180    3.0440 c1        1 62A     -0.125000
     26 C22        -2.0980   -0.5730    4.3590 c1        1 62A     -0.111000
     27 C23        -1.8330    0.7220    4.8400 c1        1 62A     -0.066000
     28 C24        -1.2240    1.6690    4.0060 c1        1 62A     -0.112000
     29 C25        -2.3050    1.1200    6.2320 c3        1 62A     -0.183000
     30 O26         2.7680    3.5640    0.3640 o         1 62A     -0.354000
     31 N27         0.5610    1.0080   -5.2310 n2        1 62A     -0.082000
     32 C28        -0.2010    2.2860   -5.7300 c1        1 62A     -0.137000
     33 C29        -0.5130    3.1090   -4.5760 c1        1 62A     -0.476000
     34 S30         0.0240    2.4030   -3.3410 ss        1 62A      0.636000
     35 HY          2.6610   -0.2130   -2.6820 h4        1 62A      0.162000
     36 HN1         2.1390   -1.1920   -0.2830 hn        1 62A      0.239000
     37 H21A        2.3680   -2.5770   -2.3670 hc        1 62A      0.109000
     38 H22A        1.4090   -2.0590   -3.5130 hc        1 62A      0.109000
     39 H31        -0.5260   -2.2330   -2.2340 hc        1 62A      0.096000
     40 H32         0.3300   -2.1920   -0.8610 hc        1 62A      0.096000
     41 H41         1.1700   -4.3670   -1.3910 h1        1 62A      0.080000
     42 H42         0.2150   -4.4010   -2.6460 h1        1 62A      0.080000
     43 HN5        -1.3680   -3.9570   -0.6470 hn        1 62A      0.197000
     44 HN71       -1.9300   -7.7180   -0.9580 hn        1 62A      0.183500
     45 HN72       -2.2680   -6.5250   -2.0040 hn        1 62A      0.183500
     46 HN8         0.6700   -5.9080    0.7680 DU        1 62A      0.176000
     47 H111        2.4910    1.2370    1.8630 h1        1 62A      0.147000
     48 H112        1.1770    0.4020    1.5280 h1        1 62A      0.147000
     49 H15        -1.2860    5.4480    0.4150 ha        1 62A      0.172000
     50 H181        1.4580    6.5400   -0.1890 hn        1 62A      0.199000
     51 H182        1.5040    5.5840   -1.3910 hn        1 62A      0.199000
     52 H20        -0.9000   -0.2250    1.2730 ha        1 62A      0.145000
     53 H21        -1.9310   -1.7850    2.7240 ha        1 62A      0.151000
     54 H22        -2.5430   -1.2650    4.9690 ha        1 62A      0.141000
     55 H24        -1.0420    2.5500    4.3330 ha        1 62A      0.141000
     56 H251       -2.4300    0.3140    6.7740 hc        1 62A      0.088333
     57 H252       -3.1460    1.6010    6.1660 hc        1 62A      0.088333
     58 H253       -1.5940    1.7280    6.6780 hc        1 62A      0.088333
     59 H28        -0.4260    2.4930   -6.6630 DU        1 62A      0.176000
     60 H29        -1.0060    4.0050   -4.5910 DU        1 62A      0.176000
@<TRIPOS>BOND
     1    1    3 1   
     2    1    4 1   
     3    2    5 1   
     4    2    6 1   
     5    2   35 1   
     6    3   31 1   
     7    3   34 1   
     8    5   13 1   
     9    5   36 1   
    10    6    7 1   
    11    6   37 1   
    12    6   38 1   
    13    7    8 1   
    14    7   39 1   
    15    7   40 1   
    16    8    9 1   
    17    8   41 1   
    18    8   42 1   
    19    9   10 1   
    20    9   43 1   
    21   10   11 1   
    22   10   12 1   
    23   11   44 1   
    24   11   45 1   
    25   13   14 1   
    26   13   15 1   
    27   15   16 1   
    28   15   47 1   
    29   15   48 1   
    30   16   17 1   
    31   16   21 1   
    32   17   18 1   
    33   17   23 1   
    34   19   20 1   
    35   19   49 1   
    36   20   22 1   
    37   21   30 1   
    38   22   50 1   
    39   22   51 1   
    40   23   24 1   
    41   23   28 1   
    42   24   25 1   
    43   24   52 1   
    44   25   53 1   
    45   26   27 1   
    46   26   54 1   
    47   27   29 1   
    48   28   55 1   
    49   29   56 1   
    50   29   57 1   
    51   29   58 1   
    52   31   32 1   
    53   32   33 1   
    54   33   34 1   
@<TRIPOS>SUBSTRUCTURE
     1 62A         1 TEMP              0 ****  ****    0 ROOT
