@<TRIPOS>MOLECULE
62A
   64    66     1     0     0
SMALL
bcc


@<TRIPOS>ATOM
      1 CX          1.0590    0.4100   -0.2960 c         1 62A      0.516600
      2 CY          2.3940   -0.2960    0.0620 c3        1 62A      0.034500
      3 CZ          0.7530    0.5470   -1.7060 cc        1 62A      0.129900
      4 OX          0.3480    0.8410    0.6170 o         1 62A     -0.510100
      5 N1          2.7850    0.0200    1.4850 n4        1 62A     -0.686800
      6 C2          2.2470   -1.8080   -0.1950 c3        1 62A     -0.079400
      7 C3          3.2260   -2.3260   -1.2440 c3        1 62A     -0.102400
      8 C4          2.5600   -3.4680   -2.0230 c3        1 62A      0.105800
      9 N5          3.4830   -4.0640   -3.0620 n4        1 62A     -0.786000
     10 C6          2.8620   -5.2310   -3.8020 c2        1 62A      0.612100
     11 N7          3.8180   -5.9740   -4.7000 n4        1 62A     -0.821600
     12 N8          1.6640   -5.6520   -3.7700 n2        1 62A     -0.575100
     13 C9          3.6010    1.2860    1.6640 c         1 62A      0.524100
     14 O10         3.7940    1.9810    0.6850 o         1 62A     -0.370100
     15 C11         4.1410    1.5400    3.0810 c3        1 62A      0.027000
     16 N12         3.3760    2.5080    3.8250 n         1 62A     -0.377300
     17 C13         3.8910    3.7750    4.1890 cc        1 62A      0.674500
     18 N14         3.1610    4.6580    4.8960 nd        1 62A     -0.577300
     19 C15         1.9440    4.3180    5.3740 cd        1 62A      0.274600
     20 C16         1.3810    3.0570    5.1440 cc        1 62A     -0.306200
     21 C17         2.0950    2.1090    4.2950 c         1 62A      0.724700
     22 N18         0.1190    2.6430    5.7240 n4        1 62A     -0.669400
     23 C19         5.2680    4.1570    3.8150 ca        1 62A     -0.242900
     24 C20         6.3580    3.4130    4.3000 ca        1 62A     -0.130000
     25 C21         7.6510    3.8640    4.0560 ca        1 62A     -0.108000
     26 C22         7.8640    5.0430    3.3380 ca        1 62A     -0.060000
     27 C23         6.7810    5.7940    2.8610 ca        1 62A     -0.045300
     28 C24         5.4760    5.3510    3.1120 ca        1 62A     -0.061000
     29 C25         7.0140    7.0640    2.1360 c3        1 62A     -0.079800
     30 O26         1.6410    0.9940    3.9420 o         1 62A     -0.705500
     31 N27         1.3580   -0.1880   -2.6940 nd        1 62A     -0.690000
     32 C28         0.8670    0.2070   -3.8940 cd        1 62A      0.331200
     33 C29        -0.1070    1.2330   -3.8250 cc        1 62A     -0.268400
     34 S30        -0.3850    1.6640   -2.2900 ss        1 62A      0.357700
     35 HY          3.1960    0.1460   -0.6070 hx        1 62A      0.145700
     36 HN1         1.9130    0.1530    2.0490 hn        1 62A      0.485300
     37 H21A        1.1900   -1.9930   -0.5350 hc        1 62A      0.091700
     38 H22A        2.3790   -2.4070    0.7480 hc        1 62A      0.091700
     39 H31         3.5140   -1.5020   -1.9530 hc        1 62A      0.092200
     40 H32         4.1600   -2.6900   -0.7390 hc        1 62A      0.092200
     41 H41         1.6510   -3.0590   -2.5580 hx        1 62A      0.130700
     42 H42         2.2610   -4.2910   -1.3110 hx        1 62A      0.130700
     43 HN5         3.7240   -3.3210   -3.7400 hn        1 62A      0.484300
     44 HN71        3.3020   -6.7440   -5.1910 hn        1 62A      0.519800
     45 HN72        4.5780   -6.4080   -4.1520 hn        1 62A      0.519800
     46 HN8         0.9100   -5.2710   -3.2280 hn        1 62A      0.544400
     47 H111        4.1740    0.5730    3.6650 h1        1 62A      0.142200
     48 H112        5.2050    1.9170    2.9260 h1        1 62A      0.142200
     49 H15         1.4460    5.1140    5.9760 h4        1 62A      0.230000
     50 H181        0.2200    2.5410    6.7450 hn        1 62A      0.478800
     51 H182       -0.1650    1.7370    5.3230 hn        1 62A      0.478800
     52 H20         6.2000    2.5180    4.9200 ha        1 62A      0.135000
     53 H21         8.5130    3.3020    4.4540 ha        1 62A      0.173000
     54 H22         8.8950    5.4010    3.1620 ha        1 62A      0.181000
     55 H24         4.6220    5.9560    2.7680 ha        1 62A      0.160000
     56 H251        6.1250    7.3570    1.5240 hc        1 62A      0.075700
     57 H252        7.9010    6.9800    1.4590 hc        1 62A      0.075700
     58 H253        7.2180    7.8860    2.8710 hc        1 62A      0.075700
     59 H28         1.2280   -0.2400   -4.8290 h4        1 62A      0.057100
     60 H29        -0.5870    1.6610   -4.7150 h4        1 62A      0.239000
     61 H12         3.3030   -0.7650    1.8910 hn        1 62A      0.485300
     62 H52         4.3480   -4.3650   -2.5860 hn        1 62A      0.484300
     63 H73         4.2100   -5.3490   -5.4230 hn        1 62A      0.519800
     64 H183       -0.6080    3.3440    5.5270 hn        1 62A      0.478800
@<TRIPOS>BOND
     1    1    2 1   
     2    1    3 1   
     3    1    4 2   
     4    2    5 1   
     5    2    6 1   
     6    2   35 1   
     7    3   31 2   
     8    3   34 1   
     9    5   13 1   
    10    5   36 1   
    11    5   61 1   
    12    6    7 1   
    13    6   37 1   
    14    6   38 1   
    15    7    8 1   
    16    7   39 1   
    17    7   40 1   
    18    8    9 1   
    19    8   41 1   
    20    8   42 1   
    21    9   10 1   
    22    9   43 1   
    23    9   62 1   
    24   10   11 1   
    25   10   12 2   
    26   11   44 1   
    27   11   45 1   
    28   11   63 1   
    29   12   46 1   
    30   13   14 2   
    31   13   15 1   
    32   15   16 1   
    33   15   47 1   
    34   15   48 1   
    35   16   17 1   
    36   16   21 1   
    37   17   18 2   
    38   17   23 1   
    39   18   19 1   
    40   19   20 2   
    41   19   49 1   
    42   20   21 1   
    43   20   22 1   
    44   21   30 2   
    45   22   50 1   
    46   22   51 1   
    47   22   64 1   
    48   23   24 ar  
    49   23   28 ar  
    50   24   25 ar  
    51   24   52 1   
    52   25   26 ar  
    53   25   53 1   
    54   26   27 ar  
    55   26   54 1   
    56   27   28 ar  
    57   27   29 1   
    58   28   55 1   
    59   29   56 1   
    60   29   57 1   
    61   29   58 1   
    62   31   32 1   
    63   32   33 2   
    64   32   59 1   
    65   33   34 1   
    66   33   60 1   
@<TRIPOS>SUBSTRUCTURE
     1 62A         1 TEMP              0 ****  ****    0 ROOT
