@<TRIPOS>MOLECULE
62A
   64    66     1     0     0
SMALL
bcc


@<TRIPOS>ATOM
      1 CX          1.0560    0.4170   -0.2870 c         1 62A      0.516600
      2 CY          2.3860   -0.2910    0.0840 c3        1 62A      0.034500
      3 CZ          0.7500    0.5300   -1.7000 cc        1 62A      0.129900
      4 OX          0.3470    0.8710    0.6170 o         1 62A     -0.510100
      5 N1          2.7780    0.0490    1.5020 n4        1 62A     -0.686800
      6 C2          2.2290   -1.8060   -0.1430 c3        1 62A     -0.079400
      7 C3          3.2040   -2.3510   -1.1830 c3        1 62A     -0.102400
      8 C4          2.5310   -3.5030   -1.9390 c3        1 62A      0.105800
      9 N5          3.4500   -4.1250   -2.9670 n4        1 62A     -0.786000
     10 C6          2.8210   -5.3020   -3.6840 c2        1 62A      0.612100
     11 N7          3.7730   -6.0670   -4.5680 n4        1 62A     -0.821600
     12 N8          1.6210   -5.7150   -3.6440 n2        1 62A     -0.575100
     13 C9          3.6040    1.3120    1.6570 c         1 62A      0.523100
     14 O10         3.8010    1.9880    0.6640 o         1 62A     -0.370100
     15 C11         4.1460    1.5890    3.0690 c3        1 62A      0.027000
     16 N12         3.3870    2.5780    3.7930 n         1 62A     -0.377300
     17 C13         3.9120    3.8480    4.1330 cc        1 62A      0.674500
     18 N14         3.1890    4.7490    4.8230 nd        1 62A     -0.577300
     19 C15         1.9690    4.4280    5.3070 cd        1 62A      0.274600
     20 C16         1.3950    3.1670    5.1010 cc        1 62A     -0.306200
     21 C17         2.1030    2.1980    4.2700 c         1 62A      0.724700
     22 N18         0.1300    2.7750    5.6870 n4        1 62A     -0.669400
     23 C19         5.2920    4.2110    3.7540 ca        1 62A     -0.242900
     24 C20         6.3760    3.4680    4.2530 ca        1 62A     -0.130000
     25 C21         7.6720    3.9040    4.0010 ca        1 62A     -0.108000
     26 C22         7.8960    5.0680    3.2610 ca        1 62A     -0.060000
     27 C23         6.8190    5.8180    2.7690 ca        1 62A     -0.045300
     28 C24         5.5100    5.3900    3.0290 ca        1 62A     -0.061000
     29 C25         7.0620    7.0720    2.0210 c3        1 62A     -0.079800
     30 O26         1.6410    1.0800    3.9380 o         1 62A     -0.705500
     31 N27         1.3510   -0.2280   -2.6730 nd        1 62A     -0.690000
     32 C28         0.8620    0.1470   -3.8810 cd        1 62A      0.331200
     33 C29        -0.1060    1.1800   -3.8310 cc        1 62A     -0.268400
     34 S30        -0.3810    1.6420   -2.3050 ss        1 62A      0.357700
     35 HY          3.1910    0.1340   -0.5920 hx        1 62A      0.145700
     36 HN1         1.9070    0.2000    2.0630 hn        1 62A      0.484800
     37 H21A        2.3560   -2.3880    0.8100 hc        1 62A      0.091700
     38 H22A        1.1700   -1.9910   -0.4810 hc        1 62A      0.091700
     39 H31         4.1360   -2.7110   -0.6700 hc        1 62A      0.092200
     40 H32         3.4970   -1.5420   -1.9070 hc        1 62A      0.092200
     41 H41         1.6240   -3.0990   -2.4830 hx        1 62A      0.130700
     42 H42         2.2260   -4.3110   -1.2120 hx        1 62A      0.130700
     43 HN5         4.3130   -4.4220   -2.4860 hn        1 62A      0.484300
     44 HN71        4.1680   -5.4590   -5.3030 hn        1 62A      0.519800
     45 HN72        4.5300   -6.4950   -4.0120 hn        1 62A      0.519800
     46 HN8         0.8700   -5.3190   -3.1090 hn        1 62A      0.544400
     47 H111        4.1700    0.6330    3.6710 h1        1 62A      0.142200
     48 H112        5.2120    1.9560    2.9070 h1        1 62A      0.142200
     49 H15         1.4760    5.2390    5.8930 h4        1 62A      0.230000
     50 H181        0.2300    2.6910    6.7100 hn        1 62A      0.478800
     51 H182       -0.1600    1.8630    5.3030 hn        1 62A      0.478800
     52 H20         6.2100    2.5860    4.8900 ha        1 62A      0.135000
     53 H21         8.5300    3.3430    4.4110 ha        1 62A      0.173000
     54 H22         8.9290    5.4140    3.0800 ha        1 62A      0.181000
     55 H24         4.6610    5.9960    2.6720 ha        1 62A      0.160000
     56 H251        7.9490    6.9690    1.3460 hc        1 62A      0.075700
     57 H252        6.1760    7.3600    1.4030 hc        1 62A      0.075700
     58 H253        7.2720    7.9070    2.7410 hc        1 62A      0.075700
     59 H28         1.2200   -0.3200   -4.8070 h4        1 62A      0.057100
     60 H29        -0.5820    1.5940   -4.7300 h4        1 62A      0.239000
     61 H12         3.2910   -0.7310    1.9220 hn        1 62A      0.484800
     62 H52         3.6950   -3.3960   -3.6590 hn        1 62A      0.484300
     63 H73         3.2520   -6.8430   -5.0440 hn        1 62A      0.519800
     64 H183       -0.5910    3.4770    5.4760 hn        1 62A      0.478800
@<TRIPOS>BOND
     1    1    2 1   
     2    1    3 1   
     3    1    4 2   
     4    2    5 1   
     5    2    6 1   
     6    2   35 1   
     7    3   31 2   
     8    3   34 1   
     9    5   13 1   
    10    5   36 1   
    11    5   61 1   
    12    6    7 1   
    13    6   37 1   
    14    6   38 1   
    15    7    8 1   
    16    7   39 1   
    17    7   40 1   
    18    8    9 1   
    19    8   41 1   
    20    8   42 1   
    21    9   10 1   
    22    9   43 1   
    23    9   62 1   
    24   10   11 1   
    25   10   12 2   
    26   11   44 1   
    27   11   45 1   
    28   11   63 1   
    29   12   46 1   
    30   13   14 2   
    31   13   15 1   
    32   15   16 1   
    33   15   47 1   
    34   15   48 1   
    35   16   17 1   
    36   16   21 1   
    37   17   18 2   
    38   17   23 1   
    39   18   19 1   
    40   19   20 2   
    41   19   49 1   
    42   20   21 1   
    43   20   22 1   
    44   21   30 2   
    45   22   50 1   
    46   22   51 1   
    47   22   64 1   
    48   23   24 ar  
    49   23   28 ar  
    50   24   25 ar  
    51   24   52 1   
    52   25   26 ar  
    53   25   53 1   
    54   26   27 ar  
    55   26   54 1   
    56   27   28 ar  
    57   27   29 1   
    58   28   55 1   
    59   29   56 1   
    60   29   57 1   
    61   29   58 1   
    62   31   32 1   
    63   32   33 2   
    64   32   59 1   
    65   33   34 1   
    66   33   60 1   
@<TRIPOS>SUBSTRUCTURE
     1 62A         1 TEMP              0 ****  ****    0 ROOT
