@<TRIPOS>MOLECULE
62A
   64    66     1     0     0
SMALL
bcc


@<TRIPOS>ATOM
      1 CX          1.0500    0.4080   -0.2670 c         1 62A      0.516600
      2 CY          2.3870   -0.2950    0.0920 c3        1 62A      0.034500
      3 CZ          0.7310    0.5200   -1.6770 cc        1 62A      0.129900
      4 OX          0.3470    0.8560    0.6440 o         1 62A     -0.510100
      5 N1          2.7900    0.0450    1.5060 ny        1 62A     -0.686800
      6 C2          2.2340   -1.8110   -0.1360 c3        1 62A     -0.079400
      7 C3          3.2030   -2.3490   -1.1850 c3        1 62A     -0.102400
      8 C4          2.5280   -3.5040   -1.9370 c3        1 62A      0.105800
      9 N5          3.4410   -4.1200   -2.9740 ny        1 62A     -0.786000
     10 C6          2.8110   -5.2990   -3.6870 c2        1 62A      0.612100
     11 N7          3.7580   -6.0590   -4.5800 nz        1 62A     -0.821600
     12 N8          1.6130   -5.7170   -3.6370 n2        1 62A     -0.575100
     13 C9          3.6110    1.3120    1.6550 c         1 62A      0.523100
     14 O10         3.7960    1.9900    0.6620 o         1 62A     -0.370100
     15 C11         4.1630    1.5910    3.0620 c3        1 62A      0.027000
     16 N12         3.4060    2.5740    3.7950 n         1 62A     -0.377300
     17 C13         3.9270    3.8460    4.1320 cc        1 62A      0.674500
     18 N14         3.2050    4.7430    4.8300 nd        1 62A     -0.577300
     19 C15         1.9910    4.4140    5.3250 cd        1 62A      0.274600
     20 C16         1.4230    3.1500    5.1220 cc        1 62A     -0.306200
     21 C17         2.1290    2.1860    4.2840 c         1 62A      0.724700
     22 N18         0.1660    2.7490    5.7210 nz        1 62A     -0.669400
     23 C19         5.3010    4.2180    3.7390 ca        1 62A     -0.242900
     24 C20         6.3940    3.4820    4.2270 ca        1 62A     -0.130000
     25 C21         7.6850    3.9260    3.9640 ca        1 62A     -0.108000
     26 C22         7.8940    5.0920    3.2230 ca        1 62A     -0.060000
     27 C23         6.8080    5.8360    2.7410 ca        1 62A     -0.045300
     28 C24         5.5050    5.4000    3.0130 ca        1 62A     -0.062000
     29 C25         7.0360    7.0920    1.9920 c3        1 62A     -0.079800
     30 O26         1.6690    1.0660    3.9550 o         1 62A     -0.705500
     31 N27         1.3270   -0.2340   -2.6560 nd        1 62A     -0.690000
     32 C28         0.8260    0.1410   -3.8590 cd        1 62A      0.331200
     33 C29        -0.1460    1.1700   -3.8000 cc        1 62A     -0.268400
     34 S30        -0.4090    1.6290   -2.2700 ss        1 62A      0.357700
     35 HY          3.1840    0.1340   -0.5910 hx        1 62A      0.145700
     36 HN1         1.9230    0.1910    2.0750 hn        1 62A      0.485300
     37 H21A        1.1730   -2.0000   -0.4650 hc        1 62A      0.091700
     38 H22A        2.3730   -2.3930    0.8160 hc        1 62A      0.091700
     39 H31         4.1410   -2.7070   -0.6810 hc        1 62A      0.092200
     40 H32         3.4860   -1.5390   -1.9110 hc        1 62A      0.092200
     41 H41         2.2330   -4.3140   -1.2080 hx        1 62A      0.130700
     42 H42         1.6150   -3.1030   -2.4720 hx        1 62A      0.130700
     43 HN5         4.3090   -4.4150   -2.5000 hn        1 62A      0.484300
     44 HN71        4.5220   -6.4850   -4.0310 hn        1 62A      0.519800
     45 HN72        3.2360   -6.8370   -5.0520 hn        1 62A      0.519800
     46 HN8         0.8650   -5.3250   -3.0950 hn        1 62A      0.544400
     47 H111        4.1990    0.6340    3.6640 h1        1 62A      0.142200
     48 H112        5.2260    1.9630    2.8920 h1        1 62A      0.142200
     49 H15         1.4990    5.2220    5.9160 h4        1 62A      0.230000
     50 H181        0.2760    2.6660    6.7420 hn        1 62A      0.478800
     51 H182       -0.5610    3.4480    5.5170 hn        1 62A      0.478800
     52 H20         6.2400    2.5980    4.8650 ha        1 62A      0.135000
     53 H21         8.5500    3.3700    4.3640 ha        1 62A      0.173000
     54 H22         8.9240    5.4440    3.0310 ha        1 62A      0.181000
     55 H24         4.6480    6.0000    2.6660 ha        1 62A      0.160000
     56 H251        7.9170    6.9940    1.3080 hc        1 62A      0.075700
     57 H252        7.2480    7.9270    2.7100 hc        1 62A      0.075700
     58 H253        6.1430    7.3750    1.3830 hc        1 62A      0.075700
     59 H28         1.1770   -0.3230   -4.7890 h4        1 62A      0.057100
     60 H29        -0.6320    1.5830   -4.6940 h4        1 62A      0.239000
     61 H12         3.3100   -0.7330    1.9210 hn        1 62A      0.485300
     62 H52         3.6770   -3.3900   -3.6670 hn        1 62A      0.484300
     63 H73         4.1440   -5.4490   -5.3180 hn        1 62A      0.519800
     64 H183       -0.1220    1.8360    5.3380 hn        1 62A      0.478800
@<TRIPOS>BOND
     1    1    2 1   
     2    1    3 1   
     3    1    4 2   
     4    2    5 1   
     5    2    6 1   
     6    2   35 1   
     7    3   31 2   
     8    3   34 1   
     9    5   13 1   
    10    5   36 1   
    11    5   61 1   
    12    6    7 1   
    13    6   37 1   
    14    6   38 1   
    15    7    8 1   
    16    7   39 1   
    17    7   40 1   
    18    8    9 1   
    19    8   41 1   
    20    8   42 1   
    21    9   10 1   
    22    9   43 1   
    23    9   62 1   
    24   10   11 1   
    25   10   12 2   
    26   11   44 1   
    27   11   45 1   
    28   11   63 1   
    29   12   46 1   
    30   13   14 2   
    31   13   15 1   
    32   15   16 1   
    33   15   47 1   
    34   15   48 1   
    35   16   17 1   
    36   16   21 1   
    37   17   18 2   
    38   17   23 1   
    39   18   19 1   
    40   19   20 2   
    41   19   49 1   
    42   20   21 1   
    43   20   22 1   
    44   21   30 2   
    45   22   50 1   
    46   22   51 1   
    47   22   64 1   
    48   23   24 ar  
    49   23   28 ar  
    50   24   25 ar  
    51   24   52 1   
    52   25   26 ar  
    53   25   53 1   
    54   26   27 ar  
    55   26   54 1   
    56   27   28 ar  
    57   27   29 1   
    58   28   55 1   
    59   29   56 1   
    60   29   57 1   
    61   29   58 1   
    62   31   32 1   
    63   32   33 2   
    64   32   59 1   
    65   33   34 1   
    66   33   60 1   
@<TRIPOS>SUBSTRUCTURE
     1 62A         1 TEMP              0 ****  ****    0 ROOT
