@<TRIPOS>MOLECULE
62D
   35    37     1     0     0
SMALL
bcc


@<TRIPOS>ATOM
      1 N1          0.1930   -0.9510   -0.0260 na        1 62D     -0.251300
      2 N3          1.7820    0.3700    1.0480 nc        1 62D     -0.451100
      3 C4          1.4740   -0.3360   -0.0740 cd        1 62D      0.421700
      4 C5          1.9670    0.4870   -2.3270 c3        1 62D      0.082100
      5 C6          0.6690    0.2090    1.8850 ca        1 62D      0.054400
      6 C7          0.4270    0.7050    3.1760 ca        1 62D      0.049000
      7 C8         -0.7810    0.3750    3.7770 ca        1 62D     -0.184600
      8 C10        -3.1720   -0.2920    4.9940 cc        1 62D      0.576800
      9 C1         -1.7670   -0.4430    3.1280 ca        1 62D      0.202400
     10 C2         -1.5460   -0.9480    1.8370 ca        1 62D     -0.090000
     11 C3         -0.3310   -0.6190    1.2250 ca        1 62D     -0.006200
     12 N2          2.3700   -0.4370   -1.2330 n4        1 62D     -0.679000
     13 C9         -1.0520    0.8850    5.1380 c         1 62D      0.722100
     14 O1         -0.3010    1.5990    5.8050 o         1 62D     -0.510500
     15 N4         -2.2960    0.5120    5.7220 n         1 62D     -0.503400
     16 N5         -4.4730   -0.6680    5.6470 n4        1 62D     -0.736000
     17 C11        -5.4220    0.4990    5.6950 c3        1 62D      0.115800
     18 N6         -2.9760   -0.7600    3.7730 nd        1 62D     -0.583100
     19 C12        -6.7540    0.1130    6.2990 c3        1 62D     -0.146100
     20 HN1        -0.2290   -1.5290   -0.7090 hn        1 62D      0.341700
     21 H5          1.9740    1.5460   -1.9450 hx        1 62D      0.123033
     22 H5A         0.9370    0.2250   -2.6880 hx        1 62D      0.123033
     23 H5B         2.7070    0.3820   -3.1690 hx        1 62D      0.123033
     24 H7          1.1700    1.3370    3.7000 ha        1 62D      0.211000
     25 H2         -2.2960   -1.5760    1.3290 ha        1 62D      0.188000
     26 HN2         3.3270   -0.1950   -0.9140 hn        1 62D      0.487300
     27 HN4        -2.4990    0.8370    6.6450 hn        1 62D      0.364500
     28 HN5        -4.2900   -1.0140    6.5980 hn        1 62D      0.480300
     29 H11        -5.5590    0.8650    4.6360 hx        1 62D      0.114700
     30 H11A       -4.9380    1.3160    6.3040 hx        1 62D      0.114700
     31 H12        -7.4040    1.0280    6.3010 hc        1 62D      0.092367
     32 H12A       -7.2730   -0.6750    5.7000 hc        1 62D      0.092367
     33 H12B       -6.6510   -0.2370    7.3560 hc        1 62D      0.092367
     34 H22         2.3790   -1.4110   -1.5700 hn        1 62D      0.487300
     35 H52        -4.9120   -1.4340    5.1080 hn        1 62D      0.480300
@<TRIPOS>BOND
     1    1    3 1   
     2    1   11 1   
     3    1   20 1   
     4    2    3 2   
     5    2    5 1   
     6    3   12 1   
     7    4   12 1   
     8    4   21 1   
     9    4   22 1   
    10    4   23 1   
    11    5    6 ar  
    12    5   11 ar  
    13    6    7 ar  
    14    6   24 1   
    15    7    9 ar  
    16    7   13 1   
    17    8   15 1   
    18    8   16 1   
    19    8   18 2   
    20    9   10 ar  
    21    9   18 1   
    22   10   11 ar  
    23   10   25 1   
    24   12   26 1   
    25   12   34 1   
    26   13   14 2   
    27   13   15 1   
    28   15   27 1   
    29   16   17 1   
    30   16   28 1   
    31   16   35 1   
    32   17   19 1   
    33   17   29 1   
    34   17   30 1   
    35   19   31 1   
    36   19   32 1   
    37   19   33 1   
@<TRIPOS>SUBSTRUCTURE
     1 62D         1 TEMP              0 ****  ****    0 ROOT
