@<TRIPOS>MOLECULE
62D
   34    36     1     0     0
SMALL
bcc


@<TRIPOS>ATOM
      1 N1          0.1140   -0.4100   -0.1350 na        1 62D     -0.295300
      2 N3          1.8960    0.2790    1.2060 nc        1 62D     -0.606100
      3 C4          1.5050   -0.0780   -0.0700 cd        1 62D      0.664700
      4 C5          1.8230   -0.1600   -2.4970 c3        1 62D      0.174100
      5 C6          0.7530    0.1290    1.9920 ca        1 62D      0.137400
      6 C7          0.5610    0.3410    3.3620 ca        1 62D     -0.025000
      7 C8         -0.7050    0.1130    3.8930 ca        1 62D     -0.159600
      8 C10        -3.2100   -0.3520    4.9440 cc        1 62D      0.500800
      9 C1         -1.8050   -0.3260    3.0860 ca        1 62D      0.112400
     10 C2         -1.6370   -0.5430    1.7020 ca        1 62D     -0.065000
     11 C3         -0.3720   -0.3170    1.1730 ca        1 62D     -0.068200
     12 N2          2.3530   -0.1770   -1.1650 nh        1 62D     -0.790200
     13 C9         -0.9130    0.3280    5.3360 c         1 62D      0.726100
     14 O1         -0.0690    0.7050    6.1560 o         1 62D     -0.552500
     15 N4         -2.2210    0.0780    5.8360 n         1 62D     -0.511400
     16 N5         -4.5810   -0.6050    5.5070 n4        1 62D     -0.723000
     17 C11        -5.2970    0.6820    5.7820 c3        1 62D      0.111800
     18 N6         -3.0690   -0.5490    3.6470 nd        1 62D     -0.546100
     19 C12        -6.7000    0.4540    6.3010 c3        1 62D     -0.141100
     20 HN1        -0.3520   -0.8220   -0.9010 hn        1 62D      0.319700
     21 H5          1.2010   -1.0790   -2.6710 h1        1 62D      0.055700
     22 H5A         1.1940    0.7480   -2.7020 h1        1 62D      0.055700
     23 H5B         2.6850   -0.1740   -3.2170 h1        1 62D      0.055700
     24 H7          1.3900    0.6790    4.0090 ha        1 62D      0.192000
     25 H2         -2.4750   -0.8780    1.0730 ha        1 62D      0.164000
     26 HN2         3.2480    0.2520   -1.0350 hn        1 62D      0.460800
     27 HN4        -2.3920    0.2010    6.8090 hn        1 62D      0.344500
     28 HN5        -4.4990   -1.1570    6.3690 hn        1 62D      0.468800
     29 H11        -5.3230    1.2660    4.8150 hx        1 62D      0.114200
     30 H11A       -4.6910    1.2640    6.5350 hx        1 62D      0.114200
     31 H12        -6.7020   -0.1060    7.2690 hc        1 62D      0.082700
     32 H12A       -7.1670    1.4570    6.4800 hc        1 62D      0.082700
     33 H12B       -7.3340   -0.0950    5.5610 hc        1 62D      0.082700
     34 H52        -5.1250   -1.1550    4.8240 hn        1 62D      0.468800
@<TRIPOS>BOND
     1    1    3 1   
     2    1   11 1   
     3    1   20 1   
     4    2    3 2   
     5    2    5 1   
     6    3   12 1   
     7    4   12 1   
     8    4   21 1   
     9    4   22 1   
    10    4   23 1   
    11    5    6 ar  
    12    5   11 ar  
    13    6    7 ar  
    14    6   24 1   
    15    7    9 ar  
    16    7   13 1   
    17    8   15 1   
    18    8   16 1   
    19    8   18 2   
    20    9   10 ar  
    21    9   18 1   
    22   10   11 ar  
    23   10   25 1   
    24   12   26 1   
    25   13   14 2   
    26   13   15 1   
    27   15   27 1   
    28   16   17 1   
    29   16   28 1   
    30   16   34 1   
    31   17   19 1   
    32   17   29 1   
    33   17   30 1   
    34   19   31 1   
    35   19   32 1   
    36   19   33 1   
@<TRIPOS>SUBSTRUCTURE
     1 62D         1 TEMP              0 ****  ****    0 ROOT
