@<TRIPOS>MOLECULE
62D
   33    35     1     0     0
SMALL
bcc


@<TRIPOS>ATOM
      1 N1         -3.0240    1.3020   -0.2360 na        1 62D     -0.294300
      2 N3         -3.4140   -0.9900   -0.1130 nc        1 62D     -0.594100
      3 C4         -3.9880    0.2360   -0.2500 cd        1 62D      0.584700
      4 C5         -5.9440    1.5520    0.3380 c3        1 62D      0.159100
      5 C6         -2.0240   -0.7490   -0.0830 ca        1 62D      0.054400
      6 C7         -0.9510   -1.6260    0.0300 ca        1 62D      0.000000
      7 C8          0.3400   -1.0920    0.0380 ca        1 62D     -0.219600
      8 C10         2.9230   -0.0220    0.0310 cc        1 62D      0.674800
      9 C1          0.5960    0.3100   -0.0650 ca        1 62D      0.220400
     10 C2         -0.4860    1.2130   -0.1780 ca        1 62D     -0.149000
     11 C3         -1.7690    0.6820   -0.1860 ca        1 62D     -0.030200
     12 N2         -5.3670    0.4930   -0.4490 nh        1 62D     -0.763200
     13 C9          1.4870   -2.0070    0.1520 c         1 62D      0.722100
     14 O1          1.4140   -3.2460    0.2420 o         1 62D     -0.625500
     15 N4          2.7650   -1.4230    0.1690 n         1 62D     -0.513400
     16 N5          4.2590    0.4490   -0.0800 nh        1 62D     -0.800200
     17 C11         4.4860    1.8810   -0.0580 c3        1 62D      0.193800
     18 N6          1.8920    0.8280   -0.0550 nd        1 62D     -0.681100
     19 C12         5.9660    2.2330   -0.0610 c3        1 62D     -0.109100
     20 HN1        -3.1900    2.2130   -0.5760 hn        1 62D      0.303700
     21 H5         -5.8100    1.4150    1.4450 h1        1 62D      0.044367
     22 H5A        -5.4870    2.5330    0.0440 h1        1 62D      0.044367
     23 H5B        -7.0430    1.5900    0.1090 h1        1 62D      0.044367
     24 H7         -1.1000   -2.7150    0.1140 ha        1 62D      0.173000
     25 H2         -0.3090    2.2950   -0.2550 ha        1 62D      0.154000
     26 HN2        -5.8980   -0.3590   -0.3930 hn        1 62D      0.416800
     27 HN4         3.5560   -2.0280    0.1810 hn        1 62D      0.333500
     28 HN5         4.9190   -0.0670    0.4660 hn        1 62D      0.404800
     29 H11         3.9970    2.3160   -0.9760 h1        1 62D      0.058700
     30 H11A        4.0020    2.3600    0.8430 h1        1 62D      0.058700
     31 H12         6.4780    1.8490    0.8540 hc        1 62D      0.045367
     32 H12A        6.4810    1.8150   -0.9590 hc        1 62D      0.045367
     33 H12B        6.0620    3.3450   -0.0810 hc        1 62D      0.045367
@<TRIPOS>BOND
     1    1    3 1   
     2    1   11 1   
     3    1   20 1   
     4    2    3 2   
     5    2    5 1   
     6    3   12 1   
     7    4   12 1   
     8    4   21 1   
     9    4   22 1   
    10    4   23 1   
    11    5    6 ar  
    12    5   11 ar  
    13    6    7 ar  
    14    6   24 1   
    15    7    9 ar  
    16    7   13 1   
    17    8   15 1   
    18    8   16 1   
    19    8   18 2   
    20    9   10 ar  
    21    9   18 1   
    22   10   11 ar  
    23   10   25 1   
    24   12   26 1   
    25   13   14 2   
    26   13   15 1   
    27   15   27 1   
    28   16   17 1   
    29   16   28 1   
    30   17   19 1   
    31   17   29 1   
    32   17   30 1   
    33   19   31 1   
    34   19   32 1   
    35   19   33 1   
@<TRIPOS>SUBSTRUCTURE
     1 62D         1 TEMP              0 ****  ****    0 ROOT
