@<TRIPOS>MOLECULE
62D
   33    29     1     0     0
SMALL
bcc


@<TRIPOS>ATOM
      1 N1          1.5530   -0.0710   -3.2080 n2        1 62D     -0.209500
      2 N3          3.3080   -0.4180   -1.9250 n2        1 62D     -0.209500
      3 C4          2.9100   -0.2320   -3.2060 c1        1 62D      0.106000
      4 C5          4.4090    0.8930   -4.8170 c3        1 62D     -0.117000
      5 C6          2.2040   -0.3730   -1.1290 c1        1 62D     -0.034500
      6 C7          2.0330   -0.5570    0.2610 c1        1 62D     -0.001000
      7 C8          0.7460   -0.5180    0.8210 c1        1 62D     -0.198000
      8 C10        -1.8540   -0.2540    2.0660 c1        1 62D      0.223000
      9 C1         -0.3520   -0.3000    0.0130 c1        1 62D      0.080000
     10 C2         -0.1790   -0.1180   -1.3670 c1        1 62D     -0.148000
     11 C3          1.1190   -0.1570   -1.9280 c1        1 62D     -0.034500
     12 N2          4.0140   -0.2830   -4.1000 n2        1 62D     -0.248000
     13 C9          0.5890   -0.5090    2.3390 c2        1 62D      0.357000
     14 O1          1.6060   -0.5020    3.0710 o         1 62D     -0.350000
     15 N4         -0.6940   -0.3470    2.9130 n2        1 62D     -0.343000
     16 N5         -3.1770   -0.4250    2.6320 n3        1 62D     -0.281000
     17 C11        -3.8480    0.7020    3.2730 c3        1 62D     -0.060000
     18 N6         -1.6890   -0.1620    0.6110 n2        1 62D     -0.257000
     19 C12        -5.2570    0.3120    3.6250 c3        1 62D     -0.227000
     20 HN1         1.0420    0.0680   -3.9290 DU        1 62D      0.254000
     21 H5          3.5930    1.3700   -5.1510 h1        1 62D      0.083667
     22 H5A         4.9830    0.6340   -5.5900 h1        1 62D      0.083667
     23 H5B         4.9110    1.4820   -4.2220 h1        1 62D      0.083667
     24 H7          2.8150   -0.6800    0.8390 ha        1 62D      0.173000
     25 H2         -0.9790   -0.0680   -1.9670 ha        1 62D      0.155000
     26 HN2         4.4750   -1.0790   -4.2240 hn        1 62D      0.213000
     27 HN4        -0.7840   -0.2590    3.8410 hn        1 62D      0.250000
     28 HN5        -3.5790   -1.2600    2.6250 hn        1 62D      0.222000
     29 H11        -3.8660    1.4790    2.6450 h1        1 62D      0.084500
     30 H11A       -3.3640    0.9530    4.0880 h1        1 62D      0.084500
     31 H12        -5.2420   -0.3360    4.3560 hc        1 62D      0.088667
     32 H12A       -5.6900   -0.0880    2.8430 hc        1 62D      0.088667
     33 H12B       -5.7550    1.1060    3.9020 hc        1 62D      0.088667
@<TRIPOS>BOND
     1    1    3 1   
     2    1   11 1   
     3    2    3 1   
     4    2    5 1   
     5    4   12 1   
     6    4   21 1   
     7    4   22 1   
     8    4   23 1   
     9    5   11 1   
    10    6    7 1   
    11    6   24 1   
    12    7   13 1   
    13    8   16 1   
    14    8   18 1   
    15    9   10 1   
    16    9   18 1   
    17   10   25 1   
    18   12   26 1   
    19   13   14 1   
    20   13   15 1   
    21   15   27 1   
    22   16   17 1   
    23   16   28 1   
    24   17   19 1   
    25   17   29 1   
    26   17   30 1   
    27   19   31 1   
    28   19   32 1   
    29   19   33 1   
@<TRIPOS>SUBSTRUCTURE
     1 62D         1 TEMP              0 ****  ****    0 ROOT
