@<TRIPOS>MOLECULE
62D
   34    36     1     0     0
SMALL
bcc


@<TRIPOS>ATOM
      1 N1          0.1300   -0.4200   -0.1230 na        1 62D     -0.295300
      2 N3          1.8880    0.3530    1.2030 nc        1 62D     -0.606100
      3 C4          1.5100   -0.0430   -0.0650 cd        1 62D      0.664700
      4 C5          1.8350   -0.1700   -2.4890 c3        1 62D      0.174100
      5 C6          0.7500    0.1860    1.9920 ca        1 62D      0.137400
      6 C7          0.5490    0.4220    3.3570 ca        1 62D     -0.025000
      7 C8         -0.7100    0.1660    3.8910 ca        1 62D     -0.159600
      8 C10        -3.2020   -0.3540    4.9510 cc        1 62D      0.500800
      9 C1         -1.7950   -0.3250    3.0930 ca        1 62D      0.112400
     10 C2         -1.6180   -0.5680    1.7150 ca        1 62D     -0.065000
     11 C3         -0.3600   -0.3140    1.1810 ca        1 62D     -0.068200
     12 N2          2.3630   -0.1400   -1.1570 nu        1 62D     -0.790200
     13 C9         -0.9280    0.4070    5.3290 c         1 62D      0.726100
     14 O1         -0.0970    0.8280    6.1410 o         1 62D     -0.552500
     15 N4         -2.2270    0.1270    5.8330 ns        1 62D     -0.511400
     16 N5         -4.5640   -0.6380    5.5170 ny        1 62D     -0.723000
     17 C11        -5.3210    0.6330    5.7640 c3        1 62D      0.111800
     18 N6         -3.0520   -0.5750    3.6580 nd        1 62D     -0.546100
     19 C12        -6.7170    0.3720    6.2870 c3        1 62D     -0.141100
     20 HN1        -0.3220   -0.8640   -0.8800 hn        1 62D      0.319700
     21 H5          1.1770    0.7130   -2.7150 h1        1 62D      0.055700
     22 H5A         2.6970   -0.1730   -3.2080 h1        1 62D      0.055700
     23 H5B         1.2420   -1.1120   -2.6430 h1        1 62D      0.055700
     24 H7          1.3650    0.8000    3.9960 ha        1 62D      0.192000
     25 H2         -2.4440   -0.9420    1.0920 ha        1 62D      0.164000
     26 HN2         3.2440    0.3190   -1.0350 hn        1 62D      0.460800
     27 HN4        -2.4040    0.2660    6.8030 hn        1 62D      0.344500
     28 HN5        -4.4660   -1.1680    6.3910 hn        1 62D      0.468800
     29 H11        -4.7340    1.2490    6.5040 hx        1 62D      0.114200
     30 H11A       -5.3640    1.1940    4.7850 hx        1 62D      0.114200
     31 H12        -7.3320   -0.2120    5.5580 hc        1 62D      0.082700
     32 H12A       -7.2150    1.3640    6.4430 hc        1 62D      0.082700
     33 H12B       -6.7020   -0.1670    7.2660 hc        1 62D      0.082700
     34 H52        -5.0900   -1.2190    4.8460 hn        1 62D      0.468800
@<TRIPOS>BOND
     1    1    3 1   
     2    1   11 1   
     3    1   20 1   
     4    2    3 2   
     5    2    5 1   
     6    3   12 1   
     7    4   12 1   
     8    4   21 1   
     9    4   22 1   
    10    4   23 1   
    11    5    6 ar  
    12    5   11 ar  
    13    6    7 ar  
    14    6   24 1   
    15    7    9 ar  
    16    7   13 1   
    17    8   15 1   
    18    8   16 1   
    19    8   18 2   
    20    9   10 ar  
    21    9   18 1   
    22   10   11 ar  
    23   10   25 1   
    24   12   26 1   
    25   13   14 2   
    26   13   15 1   
    27   15   27 1   
    28   16   17 1   
    29   16   28 1   
    30   16   34 1   
    31   17   19 1   
    32   17   29 1   
    33   17   30 1   
    34   19   31 1   
    35   19   32 1   
    36   19   33 1   
@<TRIPOS>SUBSTRUCTURE
     1 62D         1 TEMP              0 ****  ****    0 ROOT
