@<TRIPOS>MOLECULE
62I
   53    54     1     0     0
SMALL
bcc


@<TRIPOS>ATOM
      1 C1         -0.2360   -0.0540   -0.1340 c3        1 62I     -0.056100
      2 O2          1.6660   -1.5740   -0.4330 oh        1 62I     -0.576800
      3 C5         -0.8980   -0.9080    2.0260 c3        1 62I      0.130100
      4 C2          1.2440   -0.3510    0.1350 c3        1 62I      0.093100
      5 C3          1.5300   -0.3310    1.6400 c3        1 62I      0.085100
      6 O3          2.8540   -0.7060    1.9380 oh        1 62I     -0.577800
      7 C4          0.5560   -1.2820    2.3510 c3        1 62I      0.096100
      8 O4          0.7010   -1.2340    3.7560 oh        1 62I     -0.596800
      9 C6         -1.3190    0.3920    2.7060 c3        1 62I      0.109400
     10 O6         -2.7200    0.2720    3.0210 os        1 62I     -0.543900
     11 CAW        -3.2270    1.2560    3.8600 c         1 62I      0.633100
     12 OAX        -2.4960    2.2140    4.0860 o         1 62I     -0.479000
     13 CAY        -4.6010    0.9770    4.3470 c3        1 62I     -0.155100
     14 O5         -1.1250   -0.8770    0.6130 os        1 62I     -0.431600
     15 SAG        -0.5570   -0.2970   -1.8990 s6        1 62I      1.447900
     16 OAH         0.3370    0.5790   -2.5120 o         1 62I     -0.605300
     17 OAJ        -0.5020   -1.6730   -2.1480 o         1 62I     -0.605300
     18 NAB        -2.0850    0.2230   -2.0690 n3        1 62I     -0.822500
     19 CAC        -2.5890    1.4780   -1.5740 c3        1 62I      0.224300
     20 CAD        -3.6550    1.2760   -0.4920 c3        1 62I     -0.139400
     21 CAA        -3.1150   -0.5830   -2.6780 c3        1 62I      0.224300
     22 CAF        -4.2590   -0.9060   -1.7140 c3        1 62I     -0.139400
     23 CAE        -4.7520    0.3380   -0.9870 c3        1 62I      0.230100
     24 OAK        -5.5420   -0.0100    0.1670 os        1 62I     -0.606500
     25 SAL        -5.8020   -1.3520    0.9730 s6        1 62I      1.669400
     26 OAN        -6.4780   -1.0080    2.1050 o         1 62I     -0.566300
     27 OAO        -6.0410   -2.4000    0.1400 o         1 62I     -0.566300
     28 NAM        -4.0950   -1.6920    1.6090 n4        1 62I     -0.830500
     29 H1         -0.4060    1.0200    0.1550 h2        1 62I      0.091700
     30 H2          1.0250   -2.2610   -0.2010 ho        1 62I      0.421000
     31 H3         -1.5530   -1.7570    2.3770 h1        1 62I      0.064700
     32 H4          1.8860    0.4250   -0.3840 h1        1 62I      0.135700
     33 H5          1.4210    0.7120    2.0530 h1        1 62I      0.099700
     34 H6          3.1160   -1.4090    1.3220 ho        1 62I      0.432000
     35 H7          0.7460   -2.3390    2.0010 h1        1 62I      0.057700
     36 H8          1.6530   -1.2050    3.9390 ho        1 62I      0.448000
     37 H9         -0.7420    0.5410    3.6600 h1        1 62I      0.091700
     38 H10        -1.1860    1.2840    2.0420 h1        1 62I      0.091700
     39 H11        -5.1250    0.2210    3.7150 hc        1 62I      0.086367
     40 H12        -4.5370    0.5950    5.3990 hc        1 62I      0.086367
     41 H13        -5.1900    1.9290    4.3500 hc        1 62I      0.086367
     42 H16        -1.7420    2.0910   -1.1520 h1        1 62I      0.084950
     43 H17        -3.1780    0.8710    0.4410 hc        1 62I      0.067200
     44 H18        -4.1070    2.2690   -0.2330 hc        1 62I      0.067200
     45 H19        -3.5370   -0.0310   -3.5690 h1        1 62I      0.084950
     46 H20        -5.1010   -1.3660   -2.2980 hc        1 62I      0.067200
     47 H21        -3.9020   -1.6810   -0.9870 hc        1 62I      0.067200
     48 H22        -5.4850    0.9040   -1.6360 h1        1 62I      0.117700
     49 H23        -3.7950   -2.6510    1.4300 hn        1 62I      0.479800
     50 H24        -3.3800   -1.0740    1.1970 hn        1 62I      0.479800
     51 H25        -3.0390    2.0660   -2.4270 h1        1 62I      0.084950
     52 H26        -2.6720   -1.5550   -3.0480 h1        1 62I      0.084950
     53 HAM3       -4.0330   -1.5260    2.6220 hn        1 62I      0.479800
@<TRIPOS>BOND
     1    1    4 1   
     2    1   14 1   
     3    1   15 1   
     4    1   29 1   
     5    2    4 1   
     6    2   30 1   
     7    3    7 1   
     8    3    9 1   
     9    3   14 1   
    10    3   31 1   
    11    4    5 1   
    12    4   32 1   
    13    5    6 1   
    14    5    7 1   
    15    5   33 1   
    16    6   34 1   
    17    7    8 1   
    18    7   35 1   
    19    8   36 1   
    20    9   10 1   
    21    9   37 1   
    22    9   38 1   
    23   10   11 1   
    24   11   12 2   
    25   11   13 1   
    26   13   39 1   
    27   13   40 1   
    28   13   41 1   
    29   15   16 2   
    30   15   17 2   
    31   15   18 1   
    32   18   19 1   
    33   18   21 1   
    34   19   20 1   
    35   19   42 1   
    36   19   51 1   
    37   20   23 1   
    38   20   43 1   
    39   20   44 1   
    40   21   22 1   
    41   21   45 1   
    42   21   52 1   
    43   22   23 1   
    44   22   46 1   
    45   22   47 1   
    46   23   24 1   
    47   23   48 1   
    48   24   25 1   
    49   25   26 2   
    50   25   27 2   
    51   25   28 1   
    52   28   49 1   
    53   28   50 1   
    54   28   53 1   
@<TRIPOS>SUBSTRUCTURE
     1 62I         1 TEMP              0 ****  ****    0 ROOT
