@<TRIPOS>MOLECULE
62I
   53    54     1     0     0
SMALL
bcc


@<TRIPOS>ATOM
      1 C1         -0.2340   -0.0480   -0.1320 c3        1 62I     -0.056100
      2 O2          1.6730   -1.5620   -0.4270 oh        1 62I     -0.576800
      3 C5         -0.8980   -0.9030    2.0270 c3        1 62I      0.130100
      4 C2          1.2460   -0.3400    0.1390 c3        1 62I      0.093100
      5 C3          1.5290   -0.3180    1.6450 c3        1 62I      0.085100
      6 O3          2.8540   -0.6890    1.9460 oh        1 62I     -0.577800
      7 C4          0.5570   -1.2720    2.3550 c3        1 62I      0.096100
      8 O4          0.6990   -1.2220    3.7600 oh        1 62I     -0.596800
      9 C6         -1.3250    0.3960    2.7050 c3        1 62I      0.109400
     10 O6         -2.7260    0.2700    3.0200 os        1 62I     -0.543900
     11 CAW        -3.2370    1.2520    3.8580 c         1 62I      0.634100
     12 OAX        -2.5100    2.2120    4.0860 o         1 62I     -0.479000
     13 CAY        -4.6110    0.9670    4.3450 c3        1 62I     -0.155100
     14 O5         -1.1220   -0.8740    0.6140 os        1 62I     -0.431600
     15 SAG        -0.5510   -0.2930   -1.8970 s6        1 62I      1.447900
     16 OAH         0.3410    0.5860   -2.5090 o         1 62I     -0.605300
     17 OAJ        -0.4920   -1.6680   -2.1460 o         1 62I     -0.605300
     18 NAB        -2.0810    0.2230   -2.0700 n3        1 62I     -0.822500
     19 CAC        -2.5890    1.4760   -1.5770 c3        1 62I      0.224300
     20 CAD        -3.6570    1.2720   -0.4970 c3        1 62I     -0.139400
     21 CAA        -3.1070   -0.5860   -2.6820 c3        1 62I      0.224300
     22 CAF        -4.2520   -0.9120   -1.7200 c3        1 62I     -0.139400
     23 CAE        -4.7500    0.3300   -0.9930 c3        1 62I      0.230100
     24 OAK        -5.5410   -0.0190    0.1590 os        1 62I     -0.606500
     25 SAL        -5.7980   -1.3620    0.9650 s6        1 62I      1.669400
     26 OAN        -6.4770   -1.0200    2.0960 o         1 62I     -0.566300
     27 OAO        -6.0320   -2.4110    0.1320 o         1 62I     -0.566300
     28 NAM        -4.0910   -1.6970    1.6040 nz        1 62I     -0.830500
     29 H1         -0.4080    1.0260    0.1560 h2        1 62I      0.091700
     30 H2          1.0330   -2.2510   -0.1960 ho        1 62I      0.421000
     31 H3         -1.5510   -1.7540    2.3770 h1        1 62I      0.064700
     32 H4          1.8860    0.4380   -0.3790 h1        1 62I      0.135700
     33 H5          1.4160    0.7250    2.0570 h1        1 62I      0.099700
     34 H6          3.1190   -1.3910    1.3310 ho        1 62I      0.432000
     35 H7          0.7510   -2.3280    2.0060 h1        1 62I      0.057700
     36 H8          1.6510   -1.1900    3.9460 ho        1 62I      0.448000
     37 H9         -0.7490    0.5490    3.6600 h1        1 62I      0.091700
     38 H10        -1.1960    1.2880    2.0410 h1        1 62I      0.091700
     39 H11        -5.2020    1.9180    4.3490 hc        1 62I      0.086033
     40 H12        -5.1310    0.2110    3.7100 hc        1 62I      0.086033
     41 H13        -4.5460    0.5840    5.3960 hc        1 62I      0.086033
     42 H16        -1.7450    2.0920   -1.1540 h1        1 62I      0.084950
     43 H17        -4.1120    2.2640   -0.2390 hc        1 62I      0.067200
     44 H18        -3.1810    0.8690    0.4360 hc        1 62I      0.067200
     45 H19        -3.5290   -0.0350   -3.5740 h1        1 62I      0.084950
     46 H20        -3.8940   -1.6870   -0.9930 hc        1 62I      0.067200
     47 H21        -5.0920   -1.3740   -2.3060 hc        1 62I      0.067200
     48 H22        -5.4830    0.8950   -1.6440 h1        1 62I      0.117700
     49 H23        -3.3770   -1.0770    1.1930 hn        1 62I      0.479800
     50 H24        -4.0310   -1.5310    2.6170 hn        1 62I      0.479800
     51 H25        -3.0390    2.0630   -2.4310 h1        1 62I      0.084950
     52 H26        -2.6600   -1.5570   -3.0500 h1        1 62I      0.084950
     53 HAM3       -3.7880   -2.6550    1.4250 hn        1 62I      0.479800
@<TRIPOS>BOND
     1    1    4 1   
     2    1   14 1   
     3    1   15 1   
     4    1   29 1   
     5    2    4 1   
     6    2   30 1   
     7    3    7 1   
     8    3    9 1   
     9    3   14 1   
    10    3   31 1   
    11    4    5 1   
    12    4   32 1   
    13    5    6 1   
    14    5    7 1   
    15    5   33 1   
    16    6   34 1   
    17    7    8 1   
    18    7   35 1   
    19    8   36 1   
    20    9   10 1   
    21    9   37 1   
    22    9   38 1   
    23   10   11 1   
    24   11   12 2   
    25   11   13 1   
    26   13   39 1   
    27   13   40 1   
    28   13   41 1   
    29   15   16 2   
    30   15   17 2   
    31   15   18 1   
    32   18   19 1   
    33   18   21 1   
    34   19   20 1   
    35   19   42 1   
    36   19   51 1   
    37   20   23 1   
    38   20   43 1   
    39   20   44 1   
    40   21   22 1   
    41   21   45 1   
    42   21   52 1   
    43   22   23 1   
    44   22   46 1   
    45   22   47 1   
    46   23   24 1   
    47   23   48 1   
    48   24   25 1   
    49   25   26 2   
    50   25   27 2   
    51   25   28 1   
    52   28   49 1   
    53   28   50 1   
    54   28   53 1   
@<TRIPOS>SUBSTRUCTURE
     1 62I         1 TEMP              0 ****  ****    0 ROOT
