@<TRIPOS>MOLECULE
62K
   49    43     1     0     0
SMALL
bcc


@<TRIPOS>ATOM
      1 N1          1.9740   -0.6540   -0.9130 n1        1 62K      0.066000
      2 S1          6.5800   -1.0380    4.0720 ss        1 62K      2.871000
      3 N2          3.3500   -0.7730   -0.8660 n2        1 62K     -0.241000
      4 N3          8.1890   -0.8550    3.8000 n2        1 62K     -0.953000
      5 N5          0.9740   -0.5200   -4.3590 n         1 62K     -0.320000
      6 CAA        -7.7110    1.5320    0.2780 c3        1 62K     -0.210500
      7 CAB        -5.9330    2.6610    1.5670 c3        1 62K     -0.210500
      8 OAD        -3.7430   -1.3290   -0.0820 o         1 62K     -0.357000
      9 OAE         3.1830   -0.7740   -3.5870 o         1 62K     -0.342000
     10 OAF         6.2820   -2.3520    4.5700 o         1 62K     -0.939000
     11 OAG         6.1390   -0.2180    5.1660 o         1 62K     -0.939000
     12 CAH         4.5970   -1.7640    0.7350 c1        1 62K     -0.207000
     13 CAI         4.2940    0.5900    1.0950 c1        1 62K     -0.084500
     14 CAJ         5.4100   -1.8310    1.8550 c1        1 62K      0.012000
     15 CAK         5.1070    0.5230    2.2150 c1        1 62K     -0.084500
     16 CAL        -2.7220   -0.3600   -3.2370 c1        1 62K     -0.027000
     17 CAM        -1.6540   -0.3690   -4.1320 c1        1 62K     -0.187000
     18 CAN        -1.1740   -0.4480   -1.3780 c1        1 62K     -0.007000
     19 CAO        -5.4140    0.6240    0.2710 c3        1 62K     -0.013000
     20 OAS        -4.5020    0.6870   -0.7990 os        1 62K     -0.282000
     21 CAT        -3.6130   -0.3980   -0.8520 c2        1 62K      0.353000
     22 CAU         4.0390   -0.5540    0.3550 c1        1 62K      0.152000
     23 CAV        -2.4820   -0.4000   -1.8570 c1        1 62K     -0.150000
     24 CAW         5.6650   -0.6870    2.5950 c1        1 62K     -0.862000
     25 CAX         1.9970   -0.6220   -3.3720 c2        1 62K      0.333000
     26 CAY         1.3630   -0.5860   -2.0650 c2        1 62K     -0.150000
     27 CAZ        -0.3440   -0.4170   -3.6540 c2        1 62K      0.100000
     28 CBA        -0.1030   -0.4570   -2.2720 c2        1 62K     -0.091000
     29 CBB        -6.2410    1.8890    0.3040 c3        1 62K     -0.131000
     30 HN2         3.8110   -1.0260   -1.6100 hn        1 62K      0.260000
     31 HN3         8.5480   -0.0160    3.7280 hn        1 62K      0.242000
     32 HN3A        8.7290   -1.5890    3.7450 hn        1 62K      0.242000
     33 HN5         1.0990   -0.5150   -5.2630 hn        1 62K      0.263000
     34 HAA        -7.9210    0.9570    1.0430 hc        1 62K      0.077833
     35 HAAA       -8.2470    2.3500    0.3270 hc        1 62K      0.077833
     36 HAAB       -7.9170    1.0560   -0.5550 hc        1 62K      0.077833
     37 HAB        -4.9620    2.7430    1.6700 hc        1 62K      0.077833
     38 HABA       -6.3320    3.5550    1.5090 hc        1 62K      0.077833
     39 HABB       -6.3050    2.1860    2.3390 hc        1 62K      0.077833
     40 HAH         4.4180   -2.5700    0.2140 ha        1 62K      0.148000
     41 HAI         3.9010    1.4420    0.8270 ha        1 62K      0.160500
     42 HAJ         5.8030   -2.6830    2.1230 ha        1 62K      0.157000
     43 HAK         5.2870    1.3290    2.7370 ha        1 62K      0.160500
     44 HAL        -3.6390   -0.3260   -3.5720 ha        1 62K      0.161000
     45 HAM        -1.8220   -0.3410   -5.0930 ha        1 62K      0.149000
     46 HAN        -1.0080   -0.4760   -0.4160 ha        1 62K      0.174000
     47 HAO        -6.0040   -0.1480    0.1520 h1        1 62K      0.107500
     48 HAOA       -4.9240    0.5330    1.1140 h1        1 62K      0.107500
     49 HBB        -6.0260    2.4380   -0.4740 hc        1 62K      0.100000
@<TRIPOS>BOND
     1    1   26 1   
     2    2   10 1   
     3    2   11 1   
     4    3   22 1   
     5    3   30 1   
     6    4   31 1   
     7    4   32 1   
     8    5   25 1   
     9    5   27 1   
    10    5   33 1   
    11    6   29 1   
    12    6   34 1   
    13    6   35 1   
    14    6   36 1   
    15    7   29 1   
    16    7   37 1   
    17    7   38 1   
    18    7   39 1   
    19    8   21 1   
    20    9   25 1   
    21   12   22 1   
    22   12   40 1   
    23   13   15 1   
    24   13   41 1   
    25   14   24 1   
    26   14   42 1   
    27   15   43 1   
    28   16   23 1   
    29   16   44 1   
    30   17   27 1   
    31   17   45 1   
    32   18   28 1   
    33   18   46 1   
    34   19   20 1   
    35   19   29 1   
    36   19   47 1   
    37   19   48 1   
    38   20   21 1   
    39   21   23 1   
    40   25   26 1   
    41   26   28 1   
    42   27   28 1   
    43   29   49 1   
@<TRIPOS>SUBSTRUCTURE
     1 62K         1 TEMP              0 ****  ****    0 ROOT
