@<TRIPOS>MOLECULE
62K
   49    51     1     0     0
SMALL
bcc


@<TRIPOS>ATOM
      1 N1         -0.6890    1.1950   -0.0580 n2        1 62K     -0.308400
      2 S1         -6.7860   -1.6860    0.1640 sy        1 62K      1.532200
      3 N2         -1.9140    1.6700   -0.0580 nh        1 62K     -0.440700
      4 N3         -7.1090   -1.9910   -1.3750 n3        1 62K     -1.026700
      5 N5          1.7570    3.8910   -0.1070 n         1 62K     -0.466100
      6 CAA         8.3130   -1.6600    1.2800 c3        1 62K     -0.091600
      7 CAB         8.5990   -3.3980   -0.4860 c3        1 62K     -0.091600
      8 OAD         3.7810   -2.2030   -0.1070 o         1 62K     -0.545000
      9 OAF        -7.8230   -0.8950    0.7050 o         1 62K     -0.659800
     10 OAG        -6.4740   -2.8980    0.8170 o         1 62K     -0.659800
     11 CAH        -4.3240    1.4400    0.0100 ca        1 62K     -0.193000
     12 CAI        -2.9580   -0.5810    0.0500 ca        1 62K     -0.193000
     13 CAJ        -5.4640    0.6520    0.0540 ca        1 62K      0.011000
     14 CAK        -4.1200   -1.3390    0.0950 ca        1 62K      0.011000
     15 CAL         4.5380    1.3810   -0.1200 ca        1 62K     -0.028000
     16 CAM         3.9630    2.6560   -0.1210 ca        1 62K     -0.187000
     17 CAN         2.3420    0.3090   -0.0900 ca        1 62K     -0.006000
     18 CAO         6.3650   -2.3980   -0.1040 c3        1 62K      0.142400
     19 OAS         5.7280   -1.1070   -0.1060 os        1 62K     -0.443900
     20 CAU        -3.0460    0.8280    0.0020 ca        1 62K      0.233600
     21 CAV         3.7500    0.2270   -0.1050 ca        1 62K     -0.169600
     22 CAW        -5.3880   -0.7460    0.0890 ca        1 62K     -0.417500
     23 CAX         0.4030    3.5080   -0.0900 c         1 62K      0.606200
     24 CAY         0.3530    1.9900   -0.0780 cc        1 62K      0.290900
     25 CAZ         2.5730    2.7490   -0.1070 ca        1 62K      0.092600
     26 CBA         1.7600    1.5570   -0.0910 ca        1 62K     -0.174900
     27 CBB         7.8670   -2.1350   -0.0860 c3        1 62K     -0.071700
     28 HN2        -2.0910    2.6660   -0.0510 hn        1 62K      0.464800
     29 HN3        -7.6870   -1.4190   -1.9370 hn        1 62K      0.446800
     30 HN3A       -6.7730   -2.7860   -1.8580 hn        1 62K      0.446800
     31 HN5         2.0880    4.8200   -0.1130 hn        1 62K      0.349500
     32 HAA         7.7330   -0.7530    1.5760 hc        1 62K      0.038700
     33 HAAA        8.1490   -2.4540    2.0470 hc        1 62K      0.038700
     34 HAAB        9.4000   -1.4030    1.2640 hc        1 62K      0.038700
     35 HAB         8.3550   -4.2330    0.2150 hc        1 62K      0.038700
     36 HABA        8.3130   -3.7080   -1.5200 hc        1 62K      0.038700
     37 HABB        9.7020   -3.2250   -0.4590 hc        1 62K      0.038700
     38 HAH        -4.4250    2.5360   -0.0130 ha        1 62K      0.156000
     39 HAI        -1.9820   -1.0890    0.0580 ha        1 62K      0.156000
     40 HAJ        -6.4570    1.1370    0.0810 ha        1 62K      0.157000
     41 HAK        -4.0420   -2.4400    0.1550 ha        1 62K      0.157000
     42 HAL         5.6370    1.2840   -0.1300 ha        1 62K      0.160000
     43 HAM         4.5980    3.5520   -0.1330 ha        1 62K      0.149000
     44 HAN         1.7380   -0.6140   -0.0770 ha        1 62K      0.174000
     45 HAO         6.0290   -2.9680    0.8000 h1        1 62K      0.055200
     46 HAOA        6.0540   -2.9500   -1.0290 h1        1 62K      0.055200
     47 HBB         8.0910   -1.3270   -0.8380 hc        1 62K      0.061700
     48 OAE        -0.5570    4.2900   -0.0860 o         1 62K     -0.617500
     49 CAT         4.3580   -1.1110   -0.1050 c         1 62K      0.650700
@<TRIPOS>BOND
     1    1    3 1   
     2    1   24 2   
     3    2    4 1   
     4    2    9 2   
     5    2   10 2   
     6    2   22 1   
     7    3   20 1   
     8    3   28 1   
     9    4   29 1   
    10    4   30 1   
    11    5   23 1   
    12    5   25 1   
    13    5   31 1   
    14    6   27 1   
    15    6   32 1   
    16    6   33 1   
    17    6   34 1   
    18    7   27 1   
    19    7   35 1   
    20    7   36 1   
    21    7   37 1   
    22    8   49 2   
    23   11   13 ar  
    24   11   20 ar  
    25   11   38 1   
    26   12   14 ar  
    27   12   20 ar  
    28   12   39 1   
    29   13   22 ar  
    30   13   40 1   
    31   14   22 ar  
    32   14   41 1   
    33   15   16 ar  
    34   15   21 ar  
    35   15   42 1   
    36   16   25 ar  
    37   16   43 1   
    38   17   21 ar  
    39   17   26 ar  
    40   17   44 1   
    41   18   19 1   
    42   18   27 1   
    43   18   45 1   
    44   18   46 1   
    45   19   49 1   
    46   21   49 1   
    47   23   24 1   
    48   23   48 2   
    49   24   26 1   
    50   25   26 ar  
    51   27   47 1   
@<TRIPOS>SUBSTRUCTURE
     1 62K         1 TEMP              0 ****  ****    0 ROOT
