@<TRIPOS>MOLECULE
62K
   50    45     1     0     0
SMALL
bcc


@<TRIPOS>ATOM
      1 N1         -0.2050    0.2850   -0.0850 n2        1 62K     -0.036000
      2 S1          4.1250   -0.6720    5.0650 s4        1 62K      2.085800
      3 N2          1.1420    0.2830   -0.0770 n7        1 62K     -0.170000
      4 N3          4.3190    1.3790    5.8400 n9        1 62K     -0.486000
      5 N5         -0.7470   -0.3870   -3.6200 ns        1 62K     -0.262000
      6 CAA        -9.2430   -1.8290   -0.7310 c3        1 62K     -0.194500
      7 CAB       -11.1680   -0.2280   -0.6220 c3        1 62K     -0.194500
      8 OAD        -0.7790   -0.9510    4.8300 o         1 62K     -0.252000
      9 OAF         5.4580   -0.9580    5.1650 o         1 62K     -0.465400
     10 OAG         3.2470   -1.0990    6.0310 o         1 62K     -0.465400
     11 CAH         5.1910    0.4510    1.8510 c1        1 62K     -0.156000
     12 CAI         1.3650   -0.1640    2.3340 c2        1 62K     -0.309000
     13 CAJ         4.4040    0.1120    2.6900 c1        1 62K     -0.152000
     14 CAK         2.1210   -0.3520    3.4700 c2        1 62K      0.172000
     15 CAL        -6.9490    1.6950   -3.6180 c1        1 62K     -0.226000
     16 CAM        -1.9810   -2.5410   -3.8130 c1        1 62K      0.274000
     17 CAN        -3.4910    0.5170   -1.0580 c1        1 62K     -0.046000
     18 CAO        -9.1450    0.1480    0.7510 c2        1 62K     -0.250000
     19 OAS        -6.7100    0.3390   -1.5080 oh        1 62K     -0.196000
     20 CAU         1.8620    0.1130    1.0520 c2        1 62K      0.196000
     21 CAV        -6.8780    1.0540   -2.6130 c1        1 62K     -0.086000
     22 CAW         3.5120   -0.2860    3.6960 c2        1 62K     -1.048000
     23 CAX        -0.2710    0.3800   -2.5940 c2        1 62K      0.312000
     24 CAY        -0.8920    0.3240   -1.2080 c2        1 62K      0.102000
     25 CAZ        -1.8460   -1.2460   -3.5430 c2        1 62K     -0.389000
     26 CBA        -2.3000    0.4120   -1.1380 c1        1 62K     -0.213000
     27 CBB        -9.8090   -0.5870   -0.1480 c2        1 62K     -0.106000
     28 HN2         1.6490    0.5020   -0.9330 hn        1 62K      0.281000
     29 HN3         5.2840    1.5430    6.0760 hn        1 62K      0.210667
     30 HN3A        4.0280    2.0530    5.1540 hn        1 62K      0.210667
     31 HN5        -0.3250   -0.2660   -4.5200 hn        1 62K      0.266000
     32 HAA        -8.1850   -1.9920   -0.4080 hc        1 62K      0.087000
     33 HAAA       -9.2700   -1.7800   -1.8490 hc        1 62K      0.087000
     34 HAAB       -9.8490   -2.7120   -0.4080 hc        1 62K      0.087000
     35 HAB       -11.8870   -1.0470   -0.3710 hc        1 62K      0.087000
     36 HABA      -11.1670   -0.0940   -1.7330 hc        1 62K      0.087000
     37 HABB      -11.5310    0.7180   -0.1510 hc        1 62K      0.087000
     38 HAH         2.9630    0.1910    0.8840 h4        1 62K      0.185000
     39 HAI         0.2670   -0.2580    2.4710 ha        1 62K      0.184000
     40 HAJ         5.9090    0.7440    1.1230 ha        1 62K      0.248000
     41 HAK         1.5130   -0.6150    4.3740 ha        1 62K      0.167000
     42 HAL        -7.0140    2.2660   -4.5070 ha        1 62K      0.246000
     43 HAM        -2.8170   -0.7730   -3.2230 h4        1 62K      0.200000
     44 HAN        -4.5570    0.6060   -1.0160 ha        1 62K      0.268000
     45 HAO        -7.6080    0.1740   -1.1440 ho        1 62K      0.257000
     46 HAOA       -8.1480   -0.1280    1.1170 ha        1 62K      0.115500
     47 HBB        -9.5680    1.0600    1.1920 ha        1 62K      0.115500
     48 CAT        -1.7690   -1.2880    5.3640 c1        1 62K      0.253000
     49 H33         3.7560    1.4830    6.6690 hn        1 62K      0.210667
     50 OAE         0.7330    1.1070   -2.7740 o         1 62K     -0.377000
@<TRIPOS>BOND
     1    1    3 1   
     2    1   24 1   
     3    2    9 1   
     4    2   10 1   
     5    2   22 1   
     6    3   20 1   
     7    3   28 1   
     8    4   29 1   
     9    4   30 1   
    10    4   49 1   
    11    5   23 1   
    12    5   25 1   
    13    5   31 1   
    14    6   27 1   
    15    6   32 1   
    16    6   33 1   
    17    6   34 1   
    18    7   27 1   
    19    7   35 1   
    20    7   36 1   
    21    7   37 1   
    22    8   48 1   
    23   11   13 1   
    24   11   40 1   
    25   12   14 1   
    26   12   20 1   
    27   12   39 1   
    28   13   22 1   
    29   14   22 1   
    30   14   41 1   
    31   15   21 1   
    32   15   42 1   
    33   16   25 1   
    34   17   26 1   
    35   17   44 1   
    36   18   27 1   
    37   18   46 1   
    38   18   47 1   
    39   19   21 1   
    40   19   45 1   
    41   20   38 1   
    42   23   24 1   
    43   23   50 1   
    44   24   26 1   
    45   25   43 1   
@<TRIPOS>SUBSTRUCTURE
     1 62K         1 TEMP              0 ****  ****    0 ROOT
