@<TRIPOS>MOLECULE
62K
   49    46     1     0     0
SMALL
bcc


@<TRIPOS>ATOM
      1 N1          0.7060    1.2680    0.3750 n2        1 62K     -0.316400
      2 S1          5.3990   -0.6250    5.1150 sy        1 62K      1.513800
      3 N2          1.8550    0.6500    0.2270 nh        1 62K     -0.437100
      4 N3          6.5280    0.4860    5.3130 n3        1 62K     -1.022700
      5 N5         -0.8090    0.8900   -2.9650 n         1 62K     -0.395700
      6 CAA       -10.9920   -1.1580   -1.1340 c3        1 62K     -0.061900
      7 CAB       -12.9540   -0.6840    0.3520 c3        1 62K     -0.061900
      8 OAD        -7.6050   -0.1520   -0.5040 o         1 62K     -0.467000
      9 OAF         5.9960   -1.8810    4.9020 o         1 62K     -0.655800
     10 OAG         4.4590   -0.5370    6.1670 o         1 62K     -0.655800
     11 CAH         6.1210    0.0270    1.5830 c1        1 62K     -0.146500
     12 CAI         2.3940    0.5060    2.6300 ce        1 62K     -0.232000
     13 CAJ         5.4090   -0.0480    2.5450 ch        1 62K     -0.145300
     14 CAK         3.2710    0.1310    3.7010 ce        1 62K      0.082000
     15 CAL        -4.5120    0.0730   -2.1190 cg        1 62K      0.094000
     16 CAM        -3.2260    0.3540   -2.4020 cg        1 62K     -0.102000
     17 CAN        -2.2710    2.8990   -0.1060 c1        1 62K     -0.072500
     18 CAO       -10.6840    0.0630    0.9900 c2        1 62K     -0.225000
     19 OAS        -7.7930   -1.1220   -2.4470 oh        1 62K     -0.572100
     20 CAU         2.6810    0.3400    1.3150 c2        1 62K      0.138000
     21 CAV        -5.6600   -0.1800   -1.8760 ch        1 62K     -0.194200
     22 CAW         4.6000   -0.1350    3.6840 cf        1 62K     -0.275800
     23 CAX         0.2040    1.2570   -2.0750 c         1 62K      0.585800
     24 CAY        -0.0970    1.5560   -0.6370 ce        1 62K      0.330200
     25 CAZ        -2.0750    0.6220   -2.6410 c1        1 62K      0.041200
     26 CBA        -1.2870    2.2680   -0.3660 cg        1 62K     -0.173200
     27 CBB       -11.4940   -0.5540    0.1250 c2        1 62K     -0.123400
     28 HN2         2.2450    0.4850   -0.6900 hn        1 62K      0.459800
     29 HN3         6.3940    1.3140    5.8380 hn        1 62K      0.450300
     30 HN3A        7.4330    0.4250    4.9200 hn        1 62K      0.450300
     31 HN5        -0.5460    0.7490   -3.9230 hn        1 62K      0.353500
     32 HAA        -9.8870   -1.0090   -1.2480 hc        1 62K      0.039367
     33 HAAA      -11.5060   -0.6980   -2.0140 hc        1 62K      0.039367
     34 HAAB      -11.2040   -2.2560   -1.1430 hc        1 62K      0.039367
     35 HAB       -13.2450   -1.7640    0.3770 hc        1 62K      0.039367
     36 HABA      -13.5180   -0.1920   -0.4790 hc        1 62K      0.039367
     37 HABB      -13.2640   -0.2130    1.3160 hc        1 62K      0.039367
     38 HAH         3.6370   -0.1130    0.9740 h4        1 62K      0.170000
     39 HAI         1.4270    0.9340    2.9520 ha        1 62K      0.161000
     40 HAJ         6.7680    0.0840    0.7450 ha        1 62K      0.171500
     41 HAK         2.7550    0.0650    4.6880 ha        1 62K      0.163000
     42 HAL        -3.1920   -5.8410   -2.1370 ha        1 62K      0.000000
     43 HAM        -3.0870   -5.3430   -2.5830 ha        1 62K      0.000000
     44 HAN        -3.1540    3.4490    0.1070 ha        1 62K      0.178500
     45 HAO        -7.2810   -1.3390   -3.2390 ho        1 62K      0.434000
     46 HAOA       -9.6020    0.1540    0.8140 ha        1 62K      0.118000
     47 HBB       -11.0500    0.5100    1.9220 ha        1 62K      0.118000
     48 OAE         1.3620    1.3060   -2.5320 o         1 62K     -0.590100
     49 CAT        -7.0150   -0.4530   -1.5420 c         1 62K      0.674300
@<TRIPOS>BOND
     1    1    3 1   
     2    1   24 2   
     3    2    4 1   
     4    2    9 2   
     5    2   10 2   
     6    2   22 1   
     7    3   20 1   
     8    3   28 1   
     9    4   29 1   
    10    4   30 1   
    11    5   23 1   
    12    5   25 1   
    13    5   31 1   
    14    6   27 1   
    15    6   32 1   
    16    6   33 1   
    17    6   34 1   
    18    7   27 1   
    19    7   35 1   
    20    7   36 1   
    21    7   37 1   
    22    8   49 2   
    23   11   13 3   
    24   11   40 1   
    25   12   14 1   
    26   12   20 2   
    27   12   39 1   
    28   13   22 1   
    29   14   22 2   
    30   14   41 1   
    31   15   16 1   
    32   15   21 3   
    33   16   25 3   
    34   17   26 3   
    35   17   44 1   
    36   18   27 2   
    37   18   46 1   
    38   18   47 1   
    39   19   45 1   
    40   19   49 1   
    41   20   38 1   
    42   21   49 1   
    43   23   24 1   
    44   23   48 2   
    45   24   26 1   
    46   42   43 1   
@<TRIPOS>SUBSTRUCTURE
     1 62K         1 TEMP              0 ****  ****    0 ROOT
