@<TRIPOS>MOLECULE
62K
   50    47     1     0     0
SMALL
bcc


@<TRIPOS>ATOM
      1 N1          1.0730    0.0340   -0.0970 n2        1 62K     -0.409400
      2 S1          2.5140   -0.6860    3.9550 sy        1 62K      1.527800
      3 N2          1.7740    1.0500   -0.6010 nh        1 62K     -0.529300
      4 N3          3.8290   -0.2460    5.3470 n4        1 62K     -0.780500
      5 N5         -0.8500   -0.7730   -3.0680 n         1 62K     -0.377700
      6 CAA        -9.6170   -2.8460   -0.0660 c3        1 62K     -0.125800
      7 CAB       -11.2240    0.4200   -0.9460 c2        1 62K     -0.250100
      8 OAD        -7.0620   -0.5920    0.7790 o         1 62K     -0.534000
      9 OAF         2.8990   -1.9860    3.7220 o         1 62K     -0.568300
     10 OAG         1.3720   -0.3880    4.6590 o         1 62K     -0.568300
     11 CAH         3.9990    0.8550    0.6680 c2        1 62K     -0.234300
     12 CAI         2.0950    2.2190    1.5590 c2        1 62K     -0.131200
     13 CAJ         3.7780    0.2910    1.8180 c1        1 62K      0.319200
     14 CAK         2.2760    1.6930    2.7840 ce        1 62K     -0.080000
     15 CAL        -4.4150   -0.6740   -1.5180 cg        1 62K      0.056000
     16 CAM        -3.1780   -0.7090   -2.0500 cg        1 62K     -0.051000
     17 CAN        -1.0270   -2.6910    0.2430 c1        1 62K     -0.031500
     18 CAO       -10.0470    0.8270    1.3330 c2        1 62K     -0.250100
     19 OAS        -7.8330   -0.5870   -1.3070 oh        1 62K     -0.586100
     20 CAU         2.7280    1.6840    0.2790 c3        1 62K      0.312900
     21 CAV        -5.5110   -0.6430   -1.0320 ch        1 62K     -0.092200
     22 CAW         2.9890    0.3870    2.9080 ce        1 62K     -0.646200
     23 CAX         0.3440   -0.7190   -2.3650 c         1 62K      0.572800
     24 CAY         0.3520   -0.7650   -0.8530 ce        1 62K      0.418200
     25 CAZ        -2.0670   -0.7460   -2.5110 c1        1 62K     -0.006800
     26 CBA        -0.4030   -1.8010   -0.2580 cg        1 62K     -0.206200
     27 CBB       -10.6360    0.6250    0.1940 c1        1 62K     -0.050800
     28 HN2         2.0990    0.9770   -1.5580 hn        1 62K      0.442800
     29 HN3         4.4220   -1.0490    5.5340 hn        1 62K      0.448133
     30 HN3A        4.4200    0.5330    5.0830 hn        1 62K      0.448133
     31 HN5        -0.8030   -0.7890   -4.0720 hn        1 62K      0.364500
     32 HAA        -8.7650   -2.4680    0.5430 hc        1 62K      0.031450
     33 HAAA       -9.2650   -3.0710   -1.0970 hc        1 62K      0.031450
     34 HAAB      -10.0260   -3.7690    0.3980 hc        1 62K      0.031450
     35 HAB       -10.4120   -2.0670   -0.1080 hc        1 62K      0.031450
     36 HABA      -11.0660    1.0740   -1.8160 ha        1 62K      0.138500
     37 HABB      -11.9230   -0.4150   -1.1040 ha        1 62K      0.138500
     38 HAH         3.1660    2.5640   -0.2920 h1        1 62K      0.129700
     39 HAI         1.4300    3.0890    1.4010 ha        1 62K      0.191000
     40 HAJ         4.8930    0.9100    0.0400 ha        1 62K      0.221000
     41 HAK         1.8560    2.1340    3.7000 ha        1 62K      0.174000
     42 HAL        -0.1910    4.7270    1.0760 ha        1 62K      0.001000
     43 HAM         0.3870    5.0430    1.2350 ha        1 62K      0.001000
     44 HAN        -1.5960   -3.4830    0.6680 ha        1 62K      0.188500
     45 HAO        -8.6780   -0.5570   -0.8120 ho        1 62K      0.468000
     46 HAOA      -10.4910    1.4550    2.1190 ha        1 62K      0.138500
     47 HBB        -9.0700    0.3770    1.5770 ha        1 62K      0.138500
     48 CAT        -6.7950   -0.6060   -0.4270 c         1 62K      0.678300
     49 H33         3.3490   -0.0020    6.2090 hn        1 62K      0.448133
     50 OAE         1.4130   -0.6140   -2.9960 o         1 62K     -0.584100
@<TRIPOS>BOND
     1    1    3 1   
     2    1   24 2   
     3    2    4 1   
     4    2    9 2   
     5    2   10 2   
     6    2   22 1   
     7    3   20 1   
     8    3   28 1   
     9    4   29 1   
    10    4   30 1   
    11    4   49 1   
    12    5   23 1   
    13    5   25 1   
    14    5   31 1   
    15    6   32 1   
    16    6   33 1   
    17    6   34 1   
    18    6   35 1   
    19    7   27 2   
    20    7   36 1   
    21    7   37 1   
    22    8   48 2   
    23   11   13 2   
    24   11   20 1   
    25   11   40 1   
    26   12   14 2   
    27   12   20 1   
    28   12   39 1   
    29   13   22 2   
    30   14   22 1   
    31   14   41 1   
    32   15   16 1   
    33   15   21 3   
    34   16   25 3   
    35   17   26 3   
    36   17   44 1   
    37   18   27 2   
    38   18   46 1   
    39   18   47 1   
    40   19   45 1   
    41   19   48 1   
    42   20   38 1   
    43   21   48 1   
    44   23   24 1   
    45   23   50 2   
    46   24   26 1   
    47   42   43 1   
@<TRIPOS>SUBSTRUCTURE
     1 62K         1 TEMP              0 ****  ****    0 ROOT
