@<TRIPOS>MOLECULE
62N
   44    43     1     0     0
SMALL
bcc


@<TRIPOS>ATOM
      1 C1          1.0740    0.1630    1.9930 c3        1 62N      0.092000
      2 F1         -3.9560   -1.9670   -7.8030 f         1 62N     -0.161667
      3 N1          0.6640    0.2880    0.6710 n         1 62N     -0.334000
      4 C2          2.5730    0.2110    2.0440 c3        1 62N     -0.022000
      5 F2         -1.8760   -1.4300   -8.1420 f         1 62N     -0.161667
      6 N2         -0.9150   -0.3600   -1.2120 n         1 62N     -0.388000
      7 O2          3.1050   -0.9760    1.3950 oh        1 62N     -0.327000
      8 C3          3.0860    0.2630    3.4330 c3        1 62N      0.005000
      9 F3         -3.3480    0.1140   -7.7630 f         1 62N     -0.161667
     10 O3          4.5150    0.4810    3.3980 oh        1 62N     -0.310000
     11 C4          2.4490    1.3550    4.2360 c3        1 62N      0.005000
     12 O4          2.8650    1.2210    5.6050 oh        1 62N     -0.298000
     13 C5          0.9340    1.3080    4.1760 c3        1 62N      0.002000
     14 O5          0.4330    1.2570    2.8120 os        1 62N     -0.303000
     15 C6          0.3730    2.5480    4.8620 c3        1 62N     -0.018000
     16 O6         -0.9570    2.3220    5.2180 oh        1 62N     -0.326000
     17 C7         -0.4890   -0.4840    0.1820 c2        1 62N      0.380000
     18 O7         -1.0800   -1.2280    0.9310 o         1 62N     -0.310000
     19 C8         -1.8400   -1.3290   -1.7800 c2        1 62N      0.353000
     20 O8         -2.3260   -2.1860   -1.0770 o         1 62N     -0.264000
     21 C9         -2.1490   -1.3020   -3.2560 c2        1 62N     -0.102000
     22 C10        -1.2760   -1.8770   -4.1530 c2        1 62N     -0.113000
     23 C11        -1.5520   -1.8420   -5.5020 c1        1 62N     -0.087000
     24 C12        -2.7110   -1.2270   -5.9580 c1        1 62N     -0.140000
     25 C13        -3.5810   -0.6540   -5.0630 c1        1 62N     -0.085000
     26 C14        -3.3040   -0.6890   -3.7110 c1        1 62N     -0.083000
     27 C15        -2.9820   -1.1220   -7.4680 c3        1 62N      0.465000
     28 H1          0.7680   -0.7230    2.3420 h2        1 62N      0.148000
     29 HN1         1.0840    0.8620    0.1240 hn        1 62N      0.206000
     30 H2          2.8930    1.0320    1.5420 h1        1 62N      0.101000
     31 HN2        -0.5800    0.3130   -1.7360 hn        1 62N      0.233000
     32 HO2         3.4750   -0.7500    0.6200 ho        1 62N      0.224000
     33 H3          2.9080   -0.5840    3.8620 h1        1 62N      0.092000
     34 HO3         4.9220   -0.1840    3.8040 ho        1 62N      0.221000
     35 H4          2.7600    2.2410    3.8880 h1        1 62N      0.141000
     36 HO4         3.0930    0.3490    5.7700 ho        1 62N      0.204000
     37 H5          0.6230    0.5170    4.6550 h1        1 62N      0.112000
     38 H6          0.4220    3.3230    4.2400 h1        1 62N      0.089000
     39 H6A         0.9200    2.7490    5.6990 h1        1 62N      0.089000
     40 HO6        -1.3040    3.0570    5.5240 ho        1 62N      0.205000
     41 H10        -0.4290   -2.3280   -3.8190 ha        1 62N      0.146000
     42 H11        -0.9340   -2.2490   -6.1380 ha        1 62N      0.158000
     43 H13        -4.4110   -0.2130   -5.3880 ha        1 62N      0.161000
     44 H14        -3.9400   -0.2710   -3.0580 ha        1 62N      0.166000
@<TRIPOS>BOND
     1    1    3 1   
     2    1    4 1   
     3    1   14 1   
     4    1   28 1   
     5    2   27 1   
     6    3   17 1   
     7    3   29 1   
     8    4    7 1   
     9    4    8 1   
    10    4   30 1   
    11    5   27 1   
    12    6   17 1   
    13    6   19 1   
    14    6   31 1   
    15    7   32 1   
    16    8   10 1   
    17    8   11 1   
    18    8   33 1   
    19    9   27 1   
    20   10   34 1   
    21   11   12 1   
    22   11   13 1   
    23   11   35 1   
    24   12   36 1   
    25   13   14 1   
    26   13   15 1   
    27   13   37 1   
    28   15   16 1   
    29   15   38 1   
    30   15   39 1   
    31   16   40 1   
    32   17   18 1   
    33   19   20 1   
    34   19   21 1   
    35   21   22 1   
    36   21   26 1   
    37   22   23 1   
    38   22   41 1   
    39   23   42 1   
    40   24   25 1   
    41   24   27 1   
    42   25   43 1   
    43   26   44 1   
@<TRIPOS>SUBSTRUCTURE
     1 62N         1 TEMP              0 ****  ****    0 ROOT
