@<TRIPOS>MOLECULE
62N
   46    47     1     0     0
SMALL
bcc


@<TRIPOS>ATOM
      1 C1         -0.2860   -1.0700    0.5480 c3        1 62N      0.347300
      2 F1         -5.8020    1.6090   -7.2640 f         1 62N     -0.203633
      3 N1         -0.6830   -2.2780   -0.2950 n4        1 62N     -0.651800
      4 C2          1.2490   -1.0010    0.7500 c3        1 62N      0.118100
      5 F2         -5.0590    0.0240   -8.5650 f         1 62N     -0.203633
      6 N2         -2.5690   -1.2710   -1.7260 n4        1 62N     -0.584600
      7 O2          1.5830   -2.1580    1.4780 oh        1 62N     -0.617800
      8 C3          1.5350    0.3110    1.5090 c3        1 62N      0.083100
      9 F3         -3.8750    1.8320   -8.2620 f         1 62N     -0.203633
     10 O3          2.9430    0.3790    1.5910 oh        1 62N     -0.582800
     11 C4          0.9910    1.5170    0.7080 c3        1 62N      0.092100
     12 O4          1.0650    2.6740    1.5160 oh        1 62N     -0.576800
     13 C5         -0.5010    1.3230    0.4000 c3        1 62N      0.135100
     14 O5         -0.7200    0.0330   -0.2150 os        1 62N     -0.499600
     15 C6         -1.0420    2.2820   -0.6690 c3        1 62N      0.135400
     16 O6         -2.3010    1.7860   -1.1030 oh        1 62N     -0.666800
     17 C7         -2.1220   -2.2390   -0.6930 c         1 62N      0.519100
     18 O7         -2.9170   -3.0040   -0.1670 o         1 62N     -0.314100
     19 C8         -1.9530   -1.5090   -3.1370 c         1 62N      0.633700
     20 O8         -0.9620   -2.2210   -3.1170 o         1 62N     -0.457100
     21 C9         -2.6700   -0.8700   -4.2220 ca        1 62N     -0.209600
     22 C10        -2.6260   -1.5100   -5.4770 ca        1 62N     -0.058000
     23 C11        -3.2800   -0.9330   -6.5660 ca        1 62N     -0.077000
     24 C12        -3.9600    0.2740   -6.4070 ca        1 62N     -0.069300
     25 C13        -3.9910    0.9220   -5.1640 ca        1 62N     -0.077000
     26 C14        -3.3490    0.3550   -4.0700 ca        1 62N     -0.058000
     27 C15        -4.6680    0.9240   -7.6110 c3        1 62N      0.687200
     28 H1         -0.8360   -1.1480    1.5360 hx        1 62N      0.137700
     29 HN1        -0.5150   -3.1250    0.2870 hn        1 62N      0.517300
     30 H2          1.7960   -0.9910   -0.2360 h1        1 62N      0.096700
     31 HN2        -2.3420   -0.2880   -1.4320 hn        1 62N      0.521300
     32 HO2         2.4640   -2.0210    1.8710 ho        1 62N      0.486000
     33 H3          1.0690    0.2870    2.5330 h1        1 62N      0.088700
     34 HO3         3.1670    0.9590    2.3350 ho        1 62N      0.452000
     35 H4          1.5830    1.6350   -0.2410 h1        1 62N      0.086700
     36 HO4         1.9490    3.0550    1.4020 ho        1 62N      0.448000
     37 H5         -1.1080    1.3790    1.3450 h1        1 62N      0.097700
     38 H6         -0.3800    2.2840   -1.5760 h1        1 62N      0.100700
     39 H6A        -1.1060    3.3130   -0.2330 h1        1 62N      0.100700
     40 HO6        -2.9900    2.3490   -0.7260 ho        1 62N      0.447000
     41 H10        -2.0780   -2.4600   -5.6040 ha        1 62N      0.167000
     42 H11        -3.2580   -1.4340   -7.5540 ha        1 62N      0.201000
     43 H13        -4.5270    1.8840   -5.0620 ha        1 62N      0.201000
     44 H14        -3.3450    0.9070   -3.1140 ha        1 62N      0.167000
     45 H12        -0.0790   -2.3290   -1.1370 hn        1 62N      0.517300
     46 H22        -3.5990   -1.3510   -1.8040 hn        1 62N      0.521300
@<TRIPOS>BOND
     1    1    3 1   
     2    1    4 1   
     3    1   14 1   
     4    1   28 1   
     5    2   27 1   
     6    3   17 1   
     7    3   29 1   
     8    3   45 1   
     9    4    7 1   
    10    4    8 1   
    11    4   30 1   
    12    5   27 1   
    13    6   17 1   
    14    6   19 1   
    15    6   31 1   
    16    6   46 1   
    17    7   32 1   
    18    8   10 1   
    19    8   11 1   
    20    8   33 1   
    21    9   27 1   
    22   10   34 1   
    23   11   12 1   
    24   11   13 1   
    25   11   35 1   
    26   12   36 1   
    27   13   14 1   
    28   13   15 1   
    29   13   37 1   
    30   15   16 1   
    31   15   38 1   
    32   15   39 1   
    33   16   40 1   
    34   17   18 2   
    35   19   20 2   
    36   19   21 1   
    37   21   22 ar  
    38   21   26 ar  
    39   22   23 ar  
    40   22   41 1   
    41   23   24 ar  
    42   23   42 1   
    43   24   25 ar  
    44   24   27 1   
    45   25   26 ar  
    46   25   43 1   
    47   26   44 1   
@<TRIPOS>SUBSTRUCTURE
     1 62N         1 TEMP              0 ****  ****    0 ROOT
