@<TRIPOS>MOLECULE
62N
   46    47     1     0     0
SMALL
bcc


@<TRIPOS>ATOM
      1 C1         -0.2280   -1.0940    0.5130 c3        1 62N      0.347300
      2 F1         -5.8970    1.5790   -7.1910 f         1 62N     -0.203633
      3 N1         -0.5880   -2.2940   -0.3580 ny        1 62N     -0.651800
      4 C2          1.3050   -0.9740    0.7060 c3        1 62N      0.118100
      5 F2         -5.1100    0.0520   -8.5360 f         1 62N     -0.203633
      6 N2         -2.5200   -1.3210   -1.7500 ny        1 62N     -0.584600
      7 O2          1.6860   -2.1360    1.4030 oh        1 62N     -0.617800
      8 C3          1.5490    0.3280    1.4960 c3        1 62N      0.083100
      9 F3         -3.9880    1.8930   -8.1980 f         1 62N     -0.203633
     10 O3          2.9540    0.4450    1.5710 oh        1 62N     -0.582800
     11 C4          0.9560    1.5330    0.7300 c3        1 62N      0.092100
     12 O4          0.9940    2.6720    1.5660 oh        1 62N     -0.576800
     13 C5         -0.5300    1.2930    0.4270 c3        1 62N      0.135100
     14 O5         -0.7080    0.0110   -0.2200 os        1 62N     -0.499600
     15 C6         -1.1140    2.2580   -0.6140 c3        1 62N      0.135400
     16 O6         -2.3580    1.7270   -1.0520 oh        1 62N     -0.666800
     17 C7         -2.0300   -2.2980   -0.7450 c         1 62N      0.519100
     18 O7         -2.7920   -3.1040   -0.2330 o         1 62N     -0.314100
     19 C8         -1.9070   -1.5010   -3.1710 c         1 62N      0.633700
     20 O8         -0.8900   -2.1770   -3.1750 o         1 62N     -0.457100
     21 C9         -2.6550   -0.8610   -4.2350 ca        1 62N     -0.209600
     22 C10        -2.5970   -1.4680   -5.5060 ca        1 62N     -0.058000
     23 C11        -3.2810   -0.8890   -6.5750 ca        1 62N     -0.077000
     24 C12        -4.0020    0.2890   -6.3800 ca        1 62N     -0.069300
     25 C13        -4.0460    0.9040   -5.1220 ca        1 62N     -0.077000
     26 C14        -3.3750    0.3340   -4.0470 ca        1 62N     -0.058000
     27 C15        -4.7430    0.9420   -7.5640 c3        1 62N      0.687200
     28 H1         -0.7670   -1.2170    1.5020 hx        1 62N      0.137700
     29 HN1        -0.3850   -3.1490    0.2010 hn        1 62N      0.517300
     30 H2          1.8430   -0.9190   -0.2830 h1        1 62N      0.096700
     31 HN2        -3.5460   -1.4360   -1.8230 hn        1 62N      0.521300
     32 HO2         2.5640   -1.9770    1.7930 ho        1 62N      0.486000
     33 H3          1.0920    0.2610    2.5220 h1        1 62N      0.088700
     34 HO3         3.1630    1.0140    2.3270 ho        1 62N      0.452000
     35 H4          1.5360    1.6970   -0.2200 h1        1 62N      0.086700
     36 HO4         1.8620    3.0870    1.4560 ho        1 62N      0.448000
     37 H5         -1.1320    1.3030    1.3770 h1        1 62N      0.097700
     38 H6         -0.4600    2.3060   -1.5250 h1        1 62N      0.100700
     39 H6A        -1.2120    3.2750   -0.1510 h1        1 62N      0.100700
     40 HO6        -3.0640    2.2560   -0.6560 ho        1 62N      0.447000
     41 H10        -2.0170   -2.3950   -5.6600 ha        1 62N      0.167000
     42 H11        -3.2490   -1.3640   -7.5750 ha        1 62N      0.201000
     43 H13        -4.6150    1.8440   -4.9920 ha        1 62N      0.201000
     44 H14        -3.3840    0.8620   -3.0780 ha        1 62N      0.167000
     45 H12         0.0110   -2.3020   -1.2050 hn        1 62N      0.517300
     46 H22        -2.3260   -0.3380   -1.4330 hn        1 62N      0.521300
@<TRIPOS>BOND
     1    1    3 1   
     2    1    4 1   
     3    1   14 1   
     4    1   28 1   
     5    2   27 1   
     6    3   17 1   
     7    3   29 1   
     8    3   45 1   
     9    4    7 1   
    10    4    8 1   
    11    4   30 1   
    12    5   27 1   
    13    6   17 1   
    14    6   19 1   
    15    6   31 1   
    16    6   46 1   
    17    7   32 1   
    18    8   10 1   
    19    8   11 1   
    20    8   33 1   
    21    9   27 1   
    22   10   34 1   
    23   11   12 1   
    24   11   13 1   
    25   11   35 1   
    26   12   36 1   
    27   13   14 1   
    28   13   15 1   
    29   13   37 1   
    30   15   16 1   
    31   15   38 1   
    32   15   39 1   
    33   16   40 1   
    34   17   18 2   
    35   19   20 2   
    36   19   21 1   
    37   21   22 ar  
    38   21   26 ar  
    39   22   23 ar  
    40   22   41 1   
    41   23   24 ar  
    42   23   42 1   
    43   24   25 ar  
    44   24   27 1   
    45   25   26 ar  
    46   25   43 1   
    47   26   44 1   
@<TRIPOS>SUBSTRUCTURE
     1 62N         1 TEMP              0 ****  ****    0 ROOT
