@<TRIPOS>MOLECULE
62N
   46    47     1     0     0
SMALL
bcc


@<TRIPOS>ATOM
      1 C1         -0.3040   -1.0780    0.5520 c3        1 62N      0.347300
      2 F1         -5.7610    1.6310   -7.2920 f         1 62N     -0.203633
      3 N1         -0.6960   -2.2830   -0.2980 n4        1 62N     -0.651800
      4 C2          1.2300   -1.0110    0.7660 c3        1 62N      0.118100
      5 F2         -5.0120    0.0480   -8.5910 f         1 62N     -0.203633
      6 N2         -2.5700   -1.2700   -1.7400 n4        1 62N     -0.584600
      7 O2          1.5570   -2.1710    1.4930 oh        1 62N     -0.617800
      8 C3          1.5110    0.2980    1.5310 c3        1 62N      0.083100
      9 F3         -3.8270    1.8530   -8.2760 f         1 62N     -0.203633
     10 O3          2.9190    0.3640    1.6240 oh        1 62N     -0.582800
     11 C4          0.9750    1.5070    0.7300 c3        1 62N      0.092100
     12 O4          1.0440    2.6620    1.5420 oh        1 62N     -0.576800
     13 C5         -0.5150    1.3160    0.4100 c3        1 62N      0.135100
     14 O5         -0.7310    0.0280   -0.2110 os        1 62N     -0.499600
     15 C6         -1.0480    2.2790   -0.6600 c3        1 62N      0.135400
     16 O6         -2.3040    1.7850   -1.1050 oh        1 62N     -0.666800
     17 C7         -2.1320   -2.2410   -0.7060 c         1 62N      0.519100
     18 O7         -2.9310   -3.0070   -0.1890 o         1 62N     -0.314100
     19 C8         -1.9450   -1.5040   -3.1460 c         1 62N      0.633700
     20 O8         -0.9550   -2.2170   -3.1220 o         1 62N     -0.457100
     21 C9         -2.6540   -0.8610   -4.2350 ca        1 62N     -0.209600
     22 C10        -2.6010   -1.4970   -5.4920 ca        1 62N     -0.058000
     23 C11        -3.2470   -0.9170   -6.5830 ca        1 62N     -0.077000
     24 C12        -3.9270    0.2910   -6.4250 ca        1 62N     -0.069300
     25 C13        -3.9650    0.9350   -5.1810 ca        1 62N     -0.077000
     26 C14        -3.3310    0.3650   -4.0840 ca        1 62N     -0.058000
     27 C15        -4.6250    0.9450   -7.6330 c3        1 62N      0.687200
     28 H1         -0.8610   -1.1590    1.5360 hx        1 62N      0.137700
     29 HN1        -0.0860   -2.3320   -1.1350 hn        1 62N      0.517300
     30 H2          1.7840   -0.9990   -0.2160 h1        1 62N      0.096700
     31 HN2        -2.3440   -0.2880   -1.4410 hn        1 62N      0.521300
     32 HO2         2.4350   -2.0360    1.8920 ho        1 62N      0.486000
     33 H3          1.0380    0.2710    2.5510 h1        1 62N      0.088700
     34 HO3         3.1380    0.9420    2.3710 ho        1 62N      0.452000
     35 H4          1.5740    1.6280   -0.2150 h1        1 62N      0.086700
     36 HO4         1.9290    3.0420    1.4350 ho        1 62N      0.448000
     37 H5         -1.1290    1.3690    1.3510 h1        1 62N      0.097700
     38 H6         -1.1130    3.3080   -0.2210 h1        1 62N      0.100700
     39 H6A        -0.3790    2.2820   -1.5620 h1        1 62N      0.100700
     40 HO6        -2.9950    2.3480   -0.7320 ho        1 62N      0.447000
     41 H10        -2.0540   -2.4490   -5.6170 ha        1 62N      0.167000
     42 H11        -3.2190   -1.4160   -7.5720 ha        1 62N      0.201000
     43 H13        -4.5010    1.8980   -5.0800 ha        1 62N      0.201000
     44 H14        -3.3330    0.9130   -3.1270 ha        1 62N      0.167000
     45 H12        -0.5330   -3.1320    0.2830 hn        1 62N      0.517300
     46 H22        -3.5990   -1.3480   -1.8250 hn        1 62N      0.521300
@<TRIPOS>BOND
     1    1    3 1   
     2    1    4 1   
     3    1   14 1   
     4    1   28 1   
     5    2   27 1   
     6    3   17 1   
     7    3   29 1   
     8    3   45 1   
     9    4    7 1   
    10    4    8 1   
    11    4   30 1   
    12    5   27 1   
    13    6   17 1   
    14    6   19 1   
    15    6   31 1   
    16    6   46 1   
    17    7   32 1   
    18    8   10 1   
    19    8   11 1   
    20    8   33 1   
    21    9   27 1   
    22   10   34 1   
    23   11   12 1   
    24   11   13 1   
    25   11   35 1   
    26   12   36 1   
    27   13   14 1   
    28   13   15 1   
    29   13   37 1   
    30   15   16 1   
    31   15   38 1   
    32   15   39 1   
    33   16   40 1   
    34   17   18 2   
    35   19   20 2   
    36   19   21 1   
    37   21   22 ar  
    38   21   26 ar  
    39   22   23 ar  
    40   22   41 1   
    41   23   24 ar  
    42   23   42 1   
    43   24   25 ar  
    44   24   27 1   
    45   25   26 ar  
    46   25   43 1   
    47   26   44 1   
@<TRIPOS>SUBSTRUCTURE
     1 62N         1 TEMP              0 ****  ****    0 ROOT
