@<TRIPOS>MOLECULE
62N
   44    45     1     0     0
SMALL
bcc


@<TRIPOS>ATOM
      1 C1          3.2270    0.5910   -0.3080 c3        1 62N      0.240500
      2 F1         -6.7250   -1.0320    2.2360 f         1 62N     -0.233300
      3 N1          1.8450    0.9680   -0.0860 n         1 62N     -0.524900
      4 C2          4.2030    1.7550    0.0240 c3        1 62N      0.091100
      5 F2         -7.6710   -1.0790    0.2860 f         1 62N     -0.233300
      6 N2         -0.4560    0.3760   -0.5950 n         1 62N     -0.608500
      7 O2          4.0860    2.8150   -0.9060 oh        1 62N     -0.600800
      8 C3          5.6480    1.2470   -0.1130 c3        1 62N      0.108100
      9 F3         -7.3670    0.8140    1.3000 f         1 62N     -0.233300
     10 O3          6.5660    2.2210    0.3520 oh        1 62N     -0.607800
     11 C4          5.8580    0.0000    0.7610 c3        1 62N      0.117100
     12 O4          7.1330   -0.5670    0.5220 oh        1 62N     -0.593800
     13 C5          4.8050   -1.0610    0.3940 c3        1 62N      0.151100
     14 O5          3.5020   -0.5080    0.5850 os        1 62N     -0.447600
     15 C6          4.9020   -2.2670    1.3310 c3        1 62N      0.135400
     16 O6          4.3520   -3.3720    0.6350 oh        1 62N     -0.594800
     17 C7          0.8890    0.4800   -1.0250 c         1 62N      0.753100
     18 O7          1.2190    0.2330   -2.1990 o         1 62N     -0.549100
     19 C8         -1.5230    0.0720   -1.4510 c         1 62N      0.679700
     20 O8         -1.3800   -0.1210   -2.6630 o         1 62N     -0.504100
     21 C9         -2.8600   -0.0230   -0.7890 ca        1 62N     -0.121600
     22 C10        -3.6720   -1.1200   -1.0960 ca        1 62N     -0.098000
     23 C11        -4.9340   -1.2350   -0.5120 ca        1 62N     -0.086000
     24 C12        -5.3790   -0.2480    0.3690 ca        1 62N     -0.147300
     25 C13        -4.5770    0.8570    0.6650 ca        1 62N     -0.086000
     26 C14        -3.3140    0.9680    0.0860 ca        1 62N     -0.098000
     27 C15        -6.7490   -0.3810    1.0260 c3        1 62N      0.686200
     28 H1          3.3790    0.2670   -1.3820 h2        1 62N      0.110700
     29 HN1         1.5850    0.9150    0.8780 hn        1 62N      0.292500
     30 H2          4.0270    2.1360    1.0670 h1        1 62N      0.059700
     31 HN2        -0.6710    0.5260    0.3640 hn        1 62N      0.319500
     32 HO2         3.1640    3.1020   -0.9110 ho        1 62N      0.426000
     33 H3          5.8650    1.0080   -1.1920 h1        1 62N      0.069700
     34 HO3         6.4060    3.0210   -0.1670 ho        1 62N      0.429000
     35 H4          5.7660    0.2830    1.8470 h1        1 62N      0.058700
     36 HO4         7.7740    0.1490    0.6290 ho        1 62N      0.426000
     37 H5          4.9330   -1.3890   -0.6740 h1        1 62N      0.085700
     38 H6          5.9840   -2.4540    1.5680 h1        1 62N      0.046200
     39 H6A         4.3260   -2.0750    2.2750 h1        1 62N      0.046200
     40 HO6         4.4260   -4.1310    1.2250 ho        1 62N      0.404000
     41 H10        -3.3160   -1.8820   -1.8080 ha        1 62N      0.156500
     42 H11        -5.5800   -2.0950   -0.7510 ha        1 62N      0.159500
     43 H13        -4.9480    1.6380    1.3490 ha        1 62N      0.159500
     44 H14        -2.6930    1.8490    0.3090 ha        1 62N      0.156500
@<TRIPOS>BOND
     1    1    3 1   
     2    1    4 1   
     3    1   14 1   
     4    1   28 1   
     5    2   27 1   
     6    3   17 1   
     7    3   29 1   
     8    4    7 1   
     9    4    8 1   
    10    4   30 1   
    11    5   27 1   
    12    6   17 1   
    13    6   19 1   
    14    6   31 1   
    15    7   32 1   
    16    8   10 1   
    17    8   11 1   
    18    8   33 1   
    19    9   27 1   
    20   10   34 1   
    21   11   12 1   
    22   11   13 1   
    23   11   35 1   
    24   12   36 1   
    25   13   14 1   
    26   13   15 1   
    27   13   37 1   
    28   15   16 1   
    29   15   38 1   
    30   15   39 1   
    31   16   40 1   
    32   17   18 2   
    33   19   20 2   
    34   19   21 1   
    35   21   22 ar  
    36   21   26 ar  
    37   22   23 ar  
    38   22   41 1   
    39   23   24 ar  
    40   23   42 1   
    41   24   25 ar  
    42   24   27 1   
    43   25   26 ar  
    44   25   43 1   
    45   26   44 1   
@<TRIPOS>SUBSTRUCTURE
     1 62N         1 TEMP              0 ****  ****    0 ROOT
