@<TRIPOS>MOLECULE
62P
   30    32     1     0     0
SMALL
bcc


@<TRIPOS>ATOM
      1 C2         -3.3610    0.2630    1.1700 cc        1 62P     -0.113600
      2 C3         -2.5600   -0.2510    0.0740 cc        1 62P      0.047000
      3 S8         -1.6200   -1.6540    0.3330 sy        1 62P      1.412000
      4 O19        -1.8300   -2.0590    1.6580 o         1 62P     -0.636800
      5 O18        -1.8510   -2.5890   -0.6650 o         1 62P     -0.636800
      6 C9         -0.0770   -1.0050    0.2180 cc        1 62P     -0.261000
      7 O13         0.3600   -0.6970   -1.0950 os        1 62P     -0.141200
      8 C12         1.6510   -0.2100   -0.9710 ca        1 62P      0.105100
      9 C17         2.4830    0.2150   -2.0090 ca        1 62P     -0.125000
     10 C16         3.7460    0.6650   -1.6480 ca        1 62P     -0.080000
     11 C15         4.1560    0.6860   -0.2970 ca        1 62P     -0.014600
     12 CL21        5.7180    1.2500    0.0700 cl        1 62P     -0.083400
     13 C14         3.3250    0.2590    0.7370 ca        1 62P     -0.053000
     14 C11         2.0500   -0.1960    0.3980 ca        1 62P     -0.147800
     15 C10         0.9150   -0.7120    1.1430 cd        1 62P      0.079600
     16 C20         0.8770   -0.8730    2.5980 c3        1 62P     -0.080900
     17 N4         -2.5660    0.3410   -1.1270 nd        1 62P     -0.291300
     18 N5         -3.2960    1.3930   -1.3260 n         1 62P     -0.260900
     19 C6         -4.1360    2.0160   -0.3390 c         1 62P      0.669700
     20 O7         -4.7760    3.0220   -0.6720 o         1 62P     -0.587500
     21 C1         -4.1270    1.3630    0.9720 cd        1 62P     -0.227200
     22 H2         -3.3240   -0.2680    2.1370 ha        1 62P      0.181000
     23 H17         2.1500    0.1880   -3.0550 ha        1 62P      0.164000
     24 H16         4.4420    1.0110   -2.4290 ha        1 62P      0.156000
     25 H14         3.6560    0.2760    1.7860 ha        1 62P      0.158000
     26 H201        0.7530    0.1290    3.0850 hc        1 62P      0.074700
     27 H202        0.0290   -1.5320    2.9190 hc        1 62P      0.074700
     28 H203        1.8380   -1.3190    2.9610 hc        1 62P      0.074700
     29 HN5        -3.2590    1.7800   -2.2560 hn        1 62P      0.367500
     30 H1         -4.7640    1.8140    1.7460 ha        1 62P      0.176000
@<TRIPOS>BOND
     1    1    2 1   
     2    1   21 2   
     3    1   22 1   
     4    2    3 1   
     5    2   17 2   
     6    3    4 2   
     7    3    5 2   
     8    3    6 1   
     9    6    7 1   
    10    6   15 2   
    11    7    8 1   
    12    8    9 ar  
    13    8   14 ar  
    14    9   10 ar  
    15    9   23 1   
    16   10   11 ar  
    17   10   24 1   
    18   11   12 1   
    19   11   13 ar  
    20   13   14 ar  
    21   13   25 1   
    22   14   15 1   
    23   15   16 1   
    24   16   26 1   
    25   16   27 1   
    26   16   28 1   
    27   17   18 1   
    28   18   19 1   
    29   18   29 1   
    30   19   20 2   
    31   19   21 1   
    32   21   30 1   
@<TRIPOS>SUBSTRUCTURE
     1 62P         1 TEMP              0 ****  ****    0 ROOT
