@<TRIPOS>MOLECULE
62P
   30    23     1     0     0
SMALL
bcc


@<TRIPOS>ATOM
      1 C2         -0.8900    3.0950    2.2980 c1        1 62P     -0.110000
      2 C3         -0.2260    2.1060    1.6010 c1        1 62P     -0.835000
      3 S8         -0.1370    2.1740   -0.1940 s4        1 62P      2.145800
      4 O19        -1.2050    2.9690   -0.7410 o         1 62P     -0.524400
      5 O18         1.0180    2.9170   -0.6330 o         1 62P     -0.524400
      6 C9         -0.1450    0.5040   -0.8860 c1        1 62P     -0.348000
      7 O13         1.1440    0.1000   -0.6370 os        1 62P     -0.052000
      8 C12         1.3200   -1.1770   -1.2050 c1        1 62P     -0.348000
      9 C17         2.3950   -2.0690   -1.1750 c1        1 62P     -0.110000
     10 C16         2.2670   -3.3300   -1.7460 c1        1 62P     -0.110000
     11 C15         1.0750   -3.7020   -2.3440 c1        1 62P     -0.093000
     12 CL21        1.2040   -5.3350   -2.9760 cl        1 62P     -0.005000
     13 C14         0.0090   -2.8180   -2.3730 c1        1 62P     -0.053000
     14 C11         0.1370   -1.5450   -1.7970 c1        1 62P     -0.032000
     15 C10        -0.7820   -0.5060   -1.6040 c1        1 62P     -0.032000
     16 C20        -2.0830   -0.3660   -2.3500 c2        1 62P     -0.203000
     17 N4          0.3300    1.0560    2.2720 n1        1 62P      0.129000
     18 N5          0.2300    0.9820    3.6410 n2        1 62P     -0.240000
     19 C6         -0.4240    1.9550    4.3310 c1        1 62P      0.308000
     20 O7         -0.3930    1.9560    5.5760 o         1 62P     -0.312000
     21 C1         -0.9900    3.0210    3.6550 c1        1 62P     -0.110000
     22 H2         -1.3000    3.8660    1.8070 ha        1 62P      0.169250
     23 H17         3.2440   -1.8040   -0.7500 ha        1 62P      0.169250
     24 H16         2.9970   -3.9610   -1.6910 ha        1 62P      0.169250
     25 H14        -0.8450   -3.0850   -2.8020 ha        1 62P      0.158000
     26 H201       -1.9320   -0.5290   -3.3020 ha        1 62P      0.114000
     27 H202       -2.4410    0.5540   -2.2240 ha        1 62P      0.114000
     28 H203       -2.7230   -1.0140   -2.0080 ha        1 62P      0.114000
     29 HN5         0.6120    0.2600    4.1010 hn        1 62P      0.281000
     30 H1         -1.4650    3.7280    4.1560 ha        1 62P      0.169250
@<TRIPOS>BOND
     1    1   21 1   
     2    1   22 1   
     3    2    3 1   
     4    2   17 1   
     5    3    4 1   
     6    3    5 1   
     7    6    7 1   
     8    6   15 1   
     9    7    8 1   
    10    8   14 1   
    11    9   10 1   
    12    9   23 1   
    13   10   24 1   
    14   11   12 1   
    15   11   13 1   
    16   13   25 1   
    17   16   26 1   
    18   16   27 1   
    19   16   28 1   
    20   18   19 1   
    21   18   29 1   
    22   19   20 1   
    23   21   30 1   
@<TRIPOS>SUBSTRUCTURE
     1 62P         1 TEMP              0 ****  ****    0 ROOT
