@<TRIPOS>MOLECULE
62P
   30    32     1     0     0
SMALL
bcc


@<TRIPOS>ATOM
      1 C2          0.0810    0.4400    0.1410 cc        1 62P     -0.113600
      2 C3          1.4110   -0.0760   -0.1250 cc        1 62P      0.047000
      3 S8          2.0570    0.0960   -1.6980 sy        1 62P      1.412000
      4 O19         1.0950    0.7540   -2.4750 o         1 62P     -0.636800
      5 O18         3.3260    0.6520   -1.6470 o         1 62P     -0.636800
      6 C9          2.1110   -1.5110   -2.1750 cc        1 62P     -0.261000
      7 O13         3.1530   -2.2840   -1.6020 os        1 62P     -0.141200
      8 C12         3.0390   -3.5530   -2.1450 ca        1 62P      0.105100
      9 C17         3.8600   -4.6500   -1.8740 ca        1 62P     -0.125000
     10 C16         3.5590   -5.8310   -2.5400 ca        1 62P     -0.080000
     11 C15         2.4760   -5.9050   -3.4420 ca        1 62P     -0.014600
     12 CL21        2.1660   -7.3850   -4.2220 cl        1 62P     -0.083400
     13 C14         1.6590   -4.8090   -3.7130 ca        1 62P     -0.053000
     14 C11         1.9420   -3.6120   -3.0540 ca        1 62P     -0.147800
     15 C10         1.3610   -2.2810   -3.0520 cd        1 62P      0.079600
     16 C20         0.1980   -1.8790   -3.8470 c3        1 62P     -0.080900
     17 N4          2.1360   -0.6560    0.8390 nd        1 62P     -0.291300
     18 N5          1.6510   -0.7670    2.0360 n         1 62P     -0.260900
     19 C6          0.3510   -0.3080    2.4480 c         1 62P      0.669700
     20 O7          0.0190   -0.4850    3.6270 o         1 62P     -0.587500
     21 C1         -0.4360    0.3290    1.3890 cd        1 62P     -0.227200
     22 H2         -0.4710    0.9150   -0.6890 ha        1 62P      0.181000
     23 H17         4.7010   -4.5740   -1.1720 ha        1 62P      0.164000
     24 H16         4.1760   -6.7260   -2.3620 ha        1 62P      0.156000
     25 H14         0.8200   -4.8760   -4.4210 ha        1 62P      0.158000
     26 H201        0.0990   -0.7640   -3.8990 hc        1 62P      0.074700
     27 H202       -0.7360   -2.2970   -3.3890 hc        1 62P      0.074700
     28 H203        0.2850   -2.2820   -4.8880 hc        1 62P      0.074700
     29 HN5         2.2550   -1.2050    2.7130 hn        1 62P      0.367500
     30 H1         -1.4320    0.6940    1.6760 ha        1 62P      0.176000
@<TRIPOS>BOND
     1    1    2 1   
     2    1   21 2   
     3    1   22 1   
     4    2    3 1   
     5    2   17 2   
     6    3    4 2   
     7    3    5 2   
     8    3    6 1   
     9    6    7 1   
    10    6   15 2   
    11    7    8 1   
    12    8    9 ar  
    13    8   14 ar  
    14    9   10 ar  
    15    9   23 1   
    16   10   11 ar  
    17   10   24 1   
    18   11   12 1   
    19   11   13 ar  
    20   13   14 ar  
    21   13   25 1   
    22   14   15 1   
    23   15   16 1   
    24   16   26 1   
    25   16   27 1   
    26   16   28 1   
    27   17   18 1   
    28   18   19 1   
    29   18   29 1   
    30   19   20 2   
    31   19   21 1   
    32   21   30 1   
@<TRIPOS>SUBSTRUCTURE
     1 62P         1 TEMP              0 ****  ****    0 ROOT
