@<TRIPOS>MOLECULE
62P
   30    32     1     0     0
SMALL
bcc


@<TRIPOS>ATOM
      1 C2          0.0850    0.4440    0.1390 cc        1 62P     -0.113600
      2 C3          1.4150   -0.0740   -0.1280 cc        1 62P      0.047000
      3 S8          2.0600    0.0950   -1.7010 sy        1 62P      1.412000
      4 O19         1.0980    0.7530   -2.4790 o         1 62P     -0.636800
      5 O18         3.3300    0.6490   -1.6510 o         1 62P     -0.636800
      6 C9          2.1120   -1.5130   -2.1760 cc        1 62P     -0.261000
      7 O13         3.1530   -2.2860   -1.6030 os        1 62P     -0.141200
      8 C12         3.0380   -3.5560   -2.1440 ca        1 62P      0.105100
      9 C17         3.8570   -4.6530   -1.8730 ca        1 62P     -0.125000
     10 C16         3.5540   -5.8340   -2.5370 ca        1 62P     -0.080000
     11 C15         2.4700   -5.9090   -3.4380 ca        1 62P     -0.014600
     12 Cl21        2.1570   -7.3890   -4.2160 cl        1 62P     -0.083400
     13 C14         1.6540   -4.8120   -3.7090 ca        1 62P     -0.053000
     14 C11         1.9390   -3.6150   -3.0520 ca        1 62P     -0.147800
     15 C10         1.3590   -2.2830   -3.0510 cd        1 62P      0.079600
     16 C20         0.1960   -1.8810   -3.8450 c3        1 62P     -0.080900
     17 N4          2.1390   -0.6540    0.8370 nd        1 62P     -0.291300
     18 N5          1.6550   -0.7630    2.0340 ns        1 62P     -0.260900
     19 C6          0.3560   -0.3010    2.4460 c         1 62P      0.669700
     20 O7          0.0250   -0.4770    3.6260 o         1 62P     -0.587500
     21 C1         -0.4310    0.3350    1.3870 cd        1 62P     -0.227200
     22 H2         -0.4670    0.9190   -0.6910 ha        1 62P      0.181000
     23 H17         4.6990   -4.5780   -1.1730 ha        1 62P      0.164000
     24 H16         4.1700   -6.7300   -2.3590 ha        1 62P      0.156000
     25 H14         0.8140   -4.8790   -4.4160 ha        1 62P      0.158000
     26 H201        0.0990   -0.7650   -3.8990 hc        1 62P      0.074700
     27 H202       -0.7380   -2.2960   -3.3850 hc        1 62P      0.074700
     28 H203        0.2810   -2.2860   -4.8860 hc        1 62P      0.074700
     29 HN5         2.2590   -1.2010    2.7110 hn        1 62P      0.367500
     30 H1         -1.4260    0.7020    1.6740 ha        1 62P      0.176000
@<TRIPOS>BOND
     1    1    2 1   
     2    1   21 2   
     3    1   22 1   
     4    2    3 1   
     5    2   17 2   
     6    3    4 2   
     7    3    5 2   
     8    3    6 1   
     9    6    7 1   
    10    6   15 2   
    11    7    8 1   
    12    8    9 ar  
    13    8   14 ar  
    14    9   10 ar  
    15    9   23 1   
    16   10   11 ar  
    17   10   24 1   
    18   11   12 1   
    19   11   13 ar  
    20   13   14 ar  
    21   13   25 1   
    22   14   15 1   
    23   15   16 1   
    24   16   26 1   
    25   16   27 1   
    26   16   28 1   
    27   17   18 1   
    28   18   19 1   
    29   18   29 1   
    30   19   20 2   
    31   19   21 1   
    32   21   30 1   
@<TRIPOS>SUBSTRUCTURE
     1 62P         1 TEMP              0 ****  ****    0 ROOT
