@<TRIPOS>MOLECULE
631
   64    69     1     0     0
SMALL
bcc


@<TRIPOS>ATOM
      1 C01         0.3090    0.9560    3.4230 c3        1 631      0.112700
      2 O02         1.1410    0.6080    2.3220 os        1 631     -0.327900
      3 C03         2.5030    0.6320    2.5560 ca        1 631      0.100100
      4 C04         3.0920    1.0410    3.7530 ca        1 631     -0.169000
      5 C05         4.4860    1.0360    3.8990 ca        1 631     -0.127000
      6 C06         5.2630    0.6170    2.8260 ca        1 631      0.024600
      7 N07         6.6650    0.5250    2.7220 n         1 631     -0.470100
      8 C08         7.0140    0.0100    1.4630 c         1 631      0.728500
      9 O09         8.1740   -0.1960    1.0850 o         1 631     -0.610500
     10 C10         5.7310   -0.2110    0.6640 cx        1 631     -0.143700
     11 C11         5.6310   -1.3750   -0.2820 cx        1 631     -0.079400
     12 C12         5.7920    0.0120   -0.8350 cx        1 631     -0.049400
     13 C13         4.7260    0.6910   -1.5870 ca        1 631     -0.053300
     14 C14         3.8940   -0.0890   -2.4540 ca        1 631     -0.123000
     15 C15         2.9250    0.4820   -3.2350 ca        1 631     -0.101000
     16 C16         2.7430    1.8810   -3.1770 ca        1 631     -0.116000
     17 C17         1.8840    2.8190   -3.8040 cc        1 631     -0.113100
     18 C18         0.8330    2.6210   -4.7820 ce        1 631     -0.067000
     19 C19         0.9980    2.6390   -6.1110 cf        1 631     -0.119200
     20 C20         2.2550    2.8520   -6.8180 ca        1 631     -0.006800
     21 C21         2.3030    3.7500   -7.8950 ca        1 631     -0.108500
     22 C22         3.4970    3.9700   -8.5770 ca        1 631     -0.103500
     23 C23         4.6540    3.2780   -8.2040 ca        1 631     -0.190300
     24 C24         5.9290    3.4810   -8.9450 c3        1 631      0.177100
     25 N25         6.9250    4.2670   -8.1210 n4        1 631     -0.685400
     26 C26         8.3010    4.0960   -8.6480 c3        1 631      0.081600
     27 C27         6.5530    5.7030   -8.0630 c3        1 631      0.081600
     28 C28         4.6060    2.3580   -7.1490 ca        1 631     -0.103500
     29 C29         3.4170    2.1510   -6.4580 ca        1 631     -0.108500
     30 N30         2.2390    4.0630   -3.2730 na        1 631      0.062800
     31 N31         3.2200    4.0130   -2.3850 nc        1 631     -0.260400
     32 C32         3.5800    2.6870   -2.2850 ca        1 631     -0.082000
     33 C33         4.5800    2.0550   -1.4950 ca        1 631     -0.073000
     34 C34         4.6500    0.1980    1.5910 ca        1 631     -0.078300
     35 C35         3.2820    0.2010    1.4540 ca        1 631     -0.096000
     36 H1          0.4820    0.2670    4.2840 h1        1 631      0.046700
     37 H2          0.4830    2.0170    3.7280 h1        1 631      0.046700
     38 H3         -0.7270    0.8280    3.0170 h1        1 631      0.046700
     39 H4          2.4760    1.3730    4.6010 ha        1 631      0.145000
     40 H5          4.9400    1.3570    4.8470 ha        1 631      0.145000
     41 H6          7.2890    0.6660    3.4720 hn        1 631      0.344500
     42 H7          6.4870   -2.0730   -0.3480 hc        1 631      0.091700
     43 H8          4.6550   -1.8870   -0.3680 hc        1 631      0.091700
     44 H9          6.8020    0.2810   -1.2240 hc        1 631      0.105700
     45 H10         4.0530   -1.1790   -2.4770 ha        1 631      0.142000
     46 H11         2.2810   -0.1250   -3.8870 ha        1 631      0.138000
     47 H12        -0.1690    2.4370   -4.3500 ha        1 631      0.159000
     48 H13         0.1240    2.4830   -6.7720 ha        1 631      0.153000
     49 H14         1.3910    4.2870   -8.2020 ha        1 631      0.166500
     50 H15         3.5200    4.6790   -9.4190 ha        1 631      0.138000
     51 H16         6.4040    2.4840   -9.1810 hx        1 631      0.104700
     52 H17         5.7630    4.0420   -9.9080 hx        1 631      0.104700
     53 H19         8.3360    4.4280   -9.7200 hx        1 631      0.104367
     54 H20         9.0130    4.7160   -8.0400 hx        1 631      0.104367
     55 H21         8.5960    3.0140   -8.5820 hx        1 631      0.104367
     56 H22         5.4780    5.7890   -7.7460 hx        1 631      0.104367
     57 H23         6.6830    6.1670   -9.0770 hx        1 631      0.104367
     58 H24         7.2120    6.2300   -7.3220 hx        1 631      0.104367
     59 H25         5.5020    1.7830   -6.8680 ha        1 631      0.138000
     60 H26         3.3820    1.4360   -5.6160 ha        1 631      0.166500
     61 H27         1.7800    4.9280   -3.4570 hn        1 631      0.326700
     62 H28         5.2050    2.6600   -0.8220 ha        1 631      0.158000
     63 H29         2.7860   -0.1150    0.5250 ha        1 631      0.156000
     64 H251        6.8900    3.8910   -7.1600 hn        1 631      0.454800
@<TRIPOS>BOND
     1    1    2 1   
     2    1   36 1   
     3    1   37 1   
     4    1   38 1   
     5    2    3 1   
     6    3    4 ar  
     7    3   35 ar  
     8    4    5 ar  
     9    4   39 1   
    10    5    6 ar  
    11    5   40 1   
    12    6    7 1   
    13    6   34 ar  
    14    7    8 1   
    15    7   41 1   
    16    8    9 2   
    17    8   10 1   
    18   10   11 1   
    19   10   12 1   
    20   10   34 1   
    21   11   12 1   
    22   11   42 1   
    23   11   43 1   
    24   12   13 1   
    25   12   44 1   
    26   13   14 ar  
    27   13   33 ar  
    28   14   15 ar  
    29   14   45 1   
    30   15   16 ar  
    31   15   46 1   
    32   16   17 2   
    33   16   32 ar  
    34   17   18 1   
    35   17   30 1   
    36   18   19 2   
    37   18   47 1   
    38   19   20 1   
    39   19   48 1   
    40   20   21 ar  
    41   20   29 ar  
    42   21   22 ar  
    43   21   49 1   
    44   22   23 ar  
    45   22   50 1   
    46   23   24 1   
    47   23   28 ar  
    48   24   25 1   
    49   24   51 1   
    50   24   52 1   
    51   25   26 1   
    52   25   27 1   
    53   25   64 1   
    54   26   53 1   
    55   26   54 1   
    56   26   55 1   
    57   27   56 1   
    58   27   57 1   
    59   27   58 1   
    60   28   29 ar  
    61   28   59 1   
    62   29   60 1   
    63   30   31 1   
    64   30   61 1   
    65   31   32 2   
    66   32   33 ar  
    67   33   62 1   
    68   34   35 ar  
    69   35   63 1   
@<TRIPOS>SUBSTRUCTURE
     1 631         1 TEMP              0 ****  ****    0 ROOT
