@<TRIPOS>MOLECULE
631
   64    69     1     0     0
SMALL
bcc


@<TRIPOS>ATOM
      1 C01         0.7620    3.1080    2.7730 c3        1 631      0.112700
      2 O02         1.3850    2.1120    1.9700 os        1 631     -0.329900
      3 C03         2.6240    1.6710    2.4010 ca        1 631      0.095100
      4 C04         3.3480    2.2510    3.4420 ca        1 631     -0.169000
      5 C05         4.6050    1.7460    3.8040 ca        1 631     -0.131000
      6 C06         5.1090    0.6590    3.1010 ca        1 631      0.027600
      7 N07         6.3320   -0.0200    3.2630 n         1 631     -0.472100
      8 C08         6.4030   -1.0940    2.3590 c         1 631      0.728500
      9 O09         7.3510   -1.8830    2.2840 o         1 631     -0.602500
     10 C10         5.1390   -1.0800    1.5020 cx        1 631     -0.148700
     11 C11         4.5260   -2.3770    1.0500 cx        1 631     -0.077400
     12 C12         5.2570   -1.5240    0.0560 cx        1 631     -0.046400
     13 C13         4.5780   -0.8210   -1.0440 ca        1 631     -0.046300
     14 C14         3.3810   -1.3790   -1.5970 ca        1 631     -0.110000
     15 C15         2.7310   -0.7990   -2.6550 ca        1 631     -0.095000
     16 C16         3.2620    0.3830   -3.2100 ca        1 631     -0.083000
     17 C17         2.9040    1.2520   -4.2780 cc        1 631     -0.121100
     18 C18         1.7790    1.1810   -5.1660 ce        1 631     -0.032000
     19 C19         1.6390    1.7840   -6.3580 cf        1 631     -0.176200
     20 C20         2.6360    2.5730   -7.0630 ca        1 631     -0.001800
     21 C21         2.3070    3.8500   -7.5460 ca        1 631     -0.122500
     22 C22         3.2410    4.5990   -8.2560 ca        1 631     -0.100500
     23 C23         4.5140    4.0750   -8.5100 ca        1 631     -0.197300
     24 C24         5.5000    4.8450   -9.3160 c3        1 631      0.177100
     25 N25         6.5980    5.4200   -8.4500 n4        1 631     -0.685400
     26 C26         7.7810    5.7850   -9.2690 c3        1 631      0.081600
     27 C27         6.1100    6.5890   -7.6740 c3        1 631      0.081600
     28 C28         4.8430    2.7940   -8.0490 ca        1 631     -0.100500
     29 C29         3.9140    2.0520   -7.3280 ca        1 631     -0.122500
     30 N30         3.8940    2.2460   -4.2870 na        1 631      0.054800
     31 N31         4.8160    2.1080   -3.3520 nc        1 631     -0.261400
     32 C32         4.4860    0.9620   -2.6550 ca        1 631     -0.080000
     33 C33         5.1330    0.3290   -1.5600 ca        1 631     -0.072000
     34 C34         4.3570    0.0640    2.0250 ca        1 631     -0.077300
     35 C35         3.1230    0.5610    1.6770 ca        1 631     -0.096000
     36 H1          0.6530    2.7590    3.8280 h1        1 631      0.045367
     37 H2          1.3430    4.0620    2.7340 h1        1 631      0.045367
     38 H3         -0.2410    3.2390    2.2940 h1        1 631      0.045367
     39 H4          2.9470    3.1100    3.9980 ha        1 631      0.143000
     40 H5          5.1660    2.2070    4.6280 ha        1 631      0.144000
     41 H6          6.9600    0.1380    4.0070 hn        1 631      0.343500
     42 H7          3.4230   -2.4400    1.0160 hc        1 631      0.092200
     43 H8          4.9970   -3.3240    1.3790 hc        1 631      0.092200
     44 H9          6.2740   -1.8690   -0.2460 hc        1 631      0.112700
     45 H10         2.9890   -2.3070   -1.1510 ha        1 631      0.144000
     46 H11         1.8120   -1.2340   -3.0740 ha        1 631      0.140000
     47 H12         0.9510    0.5560   -4.7740 ha        1 631      0.161000
     48 H13         0.6810    1.6830   -6.9030 ha        1 631      0.156000
     49 H14         1.2990    4.2570   -7.3640 ha        1 631      0.167000
     50 H15         2.9660    5.5970   -8.6310 ha        1 631      0.139500
     51 H16         5.9920    4.1680  -10.0750 hx        1 631      0.105700
     52 H17         5.0090    5.7020   -9.8590 hx        1 631      0.105700
     53 H19         8.1960    4.8640   -9.7600 hx        1 631      0.104367
     54 H20         7.4780    6.5250  -10.0570 hx        1 631      0.104367
     55 H21         8.5650    6.2430   -8.6080 hx        1 631      0.104367
     56 H22         5.9090    7.4450   -8.3710 hx        1 631      0.104367
     57 H23         5.1600    6.3040   -7.1460 hx        1 631      0.104367
     58 H24         6.8890    6.8910   -6.9240 hx        1 631      0.104367
     59 H25         5.8290    2.3580   -8.2730 ha        1 631      0.139500
     60 H26         4.1720    1.0400   -6.9720 ha        1 631      0.167000
     61 H27         3.8980    3.0410   -4.8850 hn        1 631      0.313700
     62 H28         6.0530    0.7620   -1.1430 ha        1 631      0.157000
     63 H29         2.5280    0.1270    0.8610 ha        1 631      0.156000
     64 H251        6.8750    4.6860   -7.7800 hn        1 631      0.453800
@<TRIPOS>BOND
     1    1    2 1   
     2    1   36 1   
     3    1   37 1   
     4    1   38 1   
     5    2    3 1   
     6    3    4 ar  
     7    3   35 ar  
     8    4    5 ar  
     9    4   39 1   
    10    5    6 ar  
    11    5   40 1   
    12    6    7 1   
    13    6   34 ar  
    14    7    8 1   
    15    7   41 1   
    16    8    9 2   
    17    8   10 1   
    18   10   11 1   
    19   10   12 1   
    20   10   34 1   
    21   11   12 1   
    22   11   42 1   
    23   11   43 1   
    24   12   13 1   
    25   12   44 1   
    26   13   14 ar  
    27   13   33 ar  
    28   14   15 ar  
    29   14   45 1   
    30   15   16 ar  
    31   15   46 1   
    32   16   17 2   
    33   16   32 ar  
    34   17   18 1   
    35   17   30 1   
    36   18   19 2   
    37   18   47 1   
    38   19   20 1   
    39   19   48 1   
    40   20   21 ar  
    41   20   29 ar  
    42   21   22 ar  
    43   21   49 1   
    44   22   23 ar  
    45   22   50 1   
    46   23   24 1   
    47   23   28 ar  
    48   24   25 1   
    49   24   51 1   
    50   24   52 1   
    51   25   26 1   
    52   25   27 1   
    53   25   64 1   
    54   26   53 1   
    55   26   54 1   
    56   26   55 1   
    57   27   56 1   
    58   27   57 1   
    59   27   58 1   
    60   28   29 ar  
    61   28   59 1   
    62   29   60 1   
    63   30   31 1   
    64   30   61 1   
    65   31   32 2   
    66   32   33 ar  
    67   33   62 1   
    68   34   35 ar  
    69   35   63 1   
@<TRIPOS>SUBSTRUCTURE
     1 631         1 TEMP              0 ****  ****    0 ROOT
