@<TRIPOS>MOLECULE
631
   64    69     1     0     0
SMALL
bcc


@<TRIPOS>ATOM
      1 C01         0.2970    0.9620    3.4180 c3        1 631      0.112700
      2 O02         1.1160    0.6060    2.3100 os        1 631     -0.327900
      3 C03         2.4800    0.5940    2.5390 ca        1 631      0.100100
      4 C04         3.0830    0.9740    3.7380 ca        1 631     -0.169000
      5 C05         4.4770    0.9330    3.8790 ca        1 631     -0.127000
      6 C06         5.2390    0.5080    2.7990 ca        1 631      0.024600
      7 N07         6.6380    0.3830    2.6880 ns        1 631     -0.470100
      8 C08         6.9700   -0.1260    1.4220 c         1 631      0.728500
      9 O09         8.1230   -0.3550    1.0370 o         1 631     -0.610500
     10 C10         5.6790   -0.3040    0.6250 cx        1 631     -0.143700
     11 C11         5.5480   -1.4540   -0.3350 cx        1 631     -0.079400
     12 C12         5.7400   -0.0650   -0.8710 cx        1 631     -0.049400
     13 C13         4.6890    0.6490   -1.6110 ca        1 631     -0.053300
     14 C14         3.8390   -0.0990   -2.4890 ca        1 631     -0.123000
     15 C15         2.8820    0.5050   -3.2590 ca        1 631     -0.101000
     16 C16         2.7310    1.9070   -3.1800 ca        1 631     -0.116000
     17 C17         1.8920    2.8730   -3.7910 cc        1 631     -0.113100
     18 C18         0.8360    2.7130   -4.7710 ce        1 631     -0.067000
     19 C19         1.0000    2.7490   -6.0990 cf        1 631     -0.119200
     20 C20         2.2600    2.9480   -6.8030 ca        1 631     -0.006800
     21 C21         2.3270    3.8640   -7.8650 ca        1 631     -0.108500
     22 C22         3.5250    4.0710   -8.5440 ca        1 631     -0.103500
     23 C23         4.6680    3.3470   -8.1840 ca        1 631     -0.190300
     24 C24         5.9470    3.5360   -8.9220 c3        1 631      0.177100
     25 N25         6.9590    4.2840   -8.0830 nx        1 631     -0.685400
     26 C26         8.3310    4.0940   -8.6160 c3        1 631      0.081600
     27 C27         6.6190    5.7270   -7.9970 c3        1 631      0.081600
     28 C28         4.6000    2.4100   -7.1450 ca        1 631     -0.103500
     29 C29         3.4070    2.2160   -6.4570 ca        1 631     -0.108500
     30 N30         2.2740    4.1010   -3.2410 na        1 631      0.062800
     31 N31         3.2550    4.0160   -2.3560 nc        1 631     -0.260400
     32 C32         3.5870    2.6800   -2.2770 ca        1 631     -0.082000
     33 C33         4.5740    2.0150   -1.4980 ca        1 631     -0.073000
     34 C34         4.6120    0.1190    1.5610 ca        1 631     -0.078300
     35 C35         3.2440    0.1570    1.4290 ca        1 631     -0.096000
     36 H1          0.4560    0.2590    4.2710 h1        1 631      0.046700
     37 H2         -0.7430    0.8640    3.0140 h1        1 631      0.046700
     38 H3          0.4980    2.0140    3.7340 h1        1 631      0.046700
     39 H4          2.4770    1.3100    4.5930 ha        1 631      0.145000
     40 H5          4.9410    1.2310    4.8290 ha        1 631      0.145000
     41 H6          7.2680    0.4990    3.4380 hn        1 631      0.344500
     42 H7          4.5580   -1.9400   -0.4240 hc        1 631      0.091700
     43 H8          6.3860   -2.1720   -0.4120 hc        1 631      0.091700
     44 H9          6.7560    0.1840   -1.2600 hc        1 631      0.105700
     45 H10         3.9740   -1.1910   -2.5290 ha        1 631      0.142000
     46 H11         2.2240   -0.0780   -3.9200 ha        1 631      0.138000
     47 H12        -0.1700    2.5430   -4.3400 ha        1 631      0.159000
     48 H13         0.1220    2.6230   -6.7610 ha        1 631      0.153000
     49 H14         1.4260    4.4250   -8.1610 ha        1 631      0.166500
     50 H15         3.5630    4.7940   -9.3730 ha        1 631      0.138500
     51 H16         5.7920    4.1190   -9.8730 hx        1 631      0.104700
     52 H17         6.3990    2.5340   -9.1780 hx        1 631      0.104700
     53 H19         8.6030    3.0050   -8.5710 hx        1 631      0.104367
     54 H20         8.3730    4.4470   -9.6810 hx        1 631      0.104367
     55 H21         9.0570    4.6860   -7.9960 hx        1 631      0.104367
     56 H22         5.5460    5.8300   -7.6770 hx        1 631      0.104367
     57 H23         7.2900    6.2240   -7.2460 hx        1 631      0.104367
     58 H24         6.7580    6.2070   -9.0010 hx        1 631      0.104367
     59 H25         5.4840    1.8110   -6.8750 ha        1 631      0.138500
     60 H26         3.3580    1.4870   -5.6280 ha        1 631      0.166500
     61 H27         1.8340    4.9780   -3.4110 hn        1 631      0.326700
     62 H28         5.2130    2.5950   -0.8160 ha        1 631      0.158000
     63 H29         2.7370   -0.1350    0.4980 ha        1 631      0.156000
     64 H251        6.9170    3.8900   -7.1310 hn        1 631      0.454800
@<TRIPOS>BOND
     1    1    2 1   
     2    1   36 1   
     3    1   37 1   
     4    1   38 1   
     5    2    3 1   
     6    3    4 ar  
     7    3   35 ar  
     8    4    5 ar  
     9    4   39 1   
    10    5    6 ar  
    11    5   40 1   
    12    6    7 1   
    13    6   34 ar  
    14    7    8 1   
    15    7   41 1   
    16    8    9 2   
    17    8   10 1   
    18   10   11 1   
    19   10   12 1   
    20   10   34 1   
    21   11   12 1   
    22   11   42 1   
    23   11   43 1   
    24   12   13 1   
    25   12   44 1   
    26   13   14 ar  
    27   13   33 ar  
    28   14   15 ar  
    29   14   45 1   
    30   15   16 ar  
    31   15   46 1   
    32   16   17 2   
    33   16   32 ar  
    34   17   18 1   
    35   17   30 1   
    36   18   19 2   
    37   18   47 1   
    38   19   20 1   
    39   19   48 1   
    40   20   21 ar  
    41   20   29 ar  
    42   21   22 ar  
    43   21   49 1   
    44   22   23 ar  
    45   22   50 1   
    46   23   24 1   
    47   23   28 ar  
    48   24   25 1   
    49   24   51 1   
    50   24   52 1   
    51   25   26 1   
    52   25   27 1   
    53   25   64 1   
    54   26   53 1   
    55   26   54 1   
    56   26   55 1   
    57   27   56 1   
    58   27   57 1   
    59   27   58 1   
    60   28   29 ar  
    61   28   59 1   
    62   29   60 1   
    63   30   31 1   
    64   30   61 1   
    65   31   32 2   
    66   32   33 ar  
    67   33   62 1   
    68   34   35 ar  
    69   35   63 1   
@<TRIPOS>SUBSTRUCTURE
     1 631         1 TEMP              0 ****  ****    0 ROOT
