@<TRIPOS>MOLECULE
632
   64    61     1     0     0
SMALL
bcc


@<TRIPOS>ATOM
      1 CX         -0.4470    0.1270   -0.5550 c2        1 632      0.251000
      2 CY          0.2710   -1.1480   -0.0920 c3        1 632     -0.066000
      3 CZ         -0.0240    1.4100    0.0320 c2        1 632     -0.479000
      4 OX         -1.3440    0.0920   -1.4060 o         1 632     -0.288000
      5 N5         -0.3940   -2.3750   -0.4720 n3        1 632     -0.320000
      6 C6          1.7160   -1.0870   -0.6190 c3        1 632     -0.141000
      7 C7          2.6020   -2.0370    0.1620 c3        1 632     -0.155000
      8 C8          3.9860   -2.0290   -0.4180 c2        1 632      0.007000
      9 N9          5.0290   -1.8210    0.3180 n2        1 632     -0.114000
     10 C10         6.2850   -1.8350   -0.2240 c1        1 632     -0.066000
     11 N11         5.9780   -2.3480   -3.3030 n3        1 632     -0.409000
     12 N12         7.4020   -1.8190   -0.5710 n1        1 632     -0.083000
     13 C13         1.9940   -0.1810    3.9630 c2        1 632      0.248000
     14 O14         1.3760   -0.7770    3.0610 o         1 632     -0.388000
     15 C15         2.8490    0.9390    3.7310 c1        1 632     -0.309000
     16 C16        -3.4210    6.5310    7.1580 c2        1 632     -0.039000
     17 C17        -2.7380    6.5110    6.0440 c1        1 632     -0.162000
     18 C18        -2.0810    6.5050    4.9210 c2        1 632     -0.136000
     19 C19        -0.8160    7.2480    4.6850 c3        1 632     -0.159000
     20 C20        -3.8680    5.5350    9.3840 c1        1 632      0.203000
     21 C21        -3.2320    5.5770    8.2310 c2        1 632     -0.440000
     22 C22         0.3760    6.4610    4.2850 c1        1 632     -0.157000
     23 C24         1.5540    4.4310    3.8930 c2        1 632     -0.109000
     24 C25         2.7050    5.0480    3.4840 c2        1 632      0.021000
     25 N26         3.8930    4.3700    3.2280 na        1 632     -0.161000
     26 C27         3.9320    2.9720    3.4790 c2        1 632     -0.666000
     27 N28         2.7110    2.2250    3.6910 n         1 632      0.030000
     28 C29         1.4640    2.9510    3.9170 c2        1 632      0.393000
     29 O30         0.4710    2.3010    4.2850 o         1 632     -0.350000
     30 C32         6.4730    2.9360    3.3790 c2        1 632     -0.952000
     31 N33         0.5680    1.5500    1.2770 n3        1 632     -0.067000
     32 C34         0.8710    2.8410    1.5930 c1        1 632     -0.203000
     33 C35         0.4970    3.7010    0.5510 c2        1 632     -0.553000
     34 S36        -0.2020    2.8870   -0.7080 ss        1 632      0.776000
     35 HY         -0.4920   -2.4360   -1.4670 hn        1 632      0.156000
     36 HN5         2.0640   -0.6050    4.9920 h4        1 632      0.112000
     37 H61         0.3050   -1.1410    1.0430 h1        1 632      0.155000
     38 H62        -1.3020   -2.4220   -0.0520 hn        1 632      0.156000
     39 H71         1.7420   -1.3380   -1.7120 hc        1 632      0.091000
     40 H72         2.1010   -0.0410   -0.5020 hc        1 632      0.091000
     41 H81         2.2100   -3.0890    0.0820 hc        1 632      0.134000
     42 H82         2.5870   -1.7560    1.2510 hc        1 632      0.134000
     43 HN9         4.0200   -2.2240   -1.5150 h4        1 632      0.143000
     44 H111        6.5260   -3.1090   -2.9590 hn        1 632      0.136333
     45 H112        6.5260   -1.5140   -3.2640 hn        1 632      0.136333
     46 H12         5.7370   -2.5300   -4.2550 hn        1 632      0.136333
     47 H151        6.0020   -0.2130    3.8290 ha        1 632      0.004750
     48 H152        6.5470    0.1150    4.0700 ha        1 632      0.004750
     49 H17        -2.4690    5.9330    4.0570 ha        1 632      0.137000
     50 H18        -0.5110    7.8300    5.6000 hc        1 632      0.126500
     51 H20        -0.9850    7.9970    3.8590 hc        1 632      0.126500
     52 H21        -2.4620    4.7930    8.0550 ha        1 632      0.197000
     53 H221        1.8360    8.1700    3.2330 ha        1 632      0.004750
     54 H222        2.3210    8.4940    2.8850 ha        1 632      0.004750
     55 H25         2.7650    6.1540    3.3880 h4        1 632      0.195000
     56 H321        6.5950    4.0110    3.2030 h4        1 632      0.179500
     57 H322        4.2630    4.5920    2.3160 hn        1 632      0.195000
     58 H323        7.4680    2.4600    3.3780 h4        1 632      0.179500
     59 H34         0.7320    0.7770    1.8940 hn        1 632      0.296000
     60 H35         0.6510    4.7780    0.5830 h4        1 632      0.193000
     61 S31         5.2570    2.0940    3.6180 ss        1 632      1.397000
     62 N23         0.3940    5.1490    4.2830 nh        1 632     -0.117000
     63 H16        -4.1920    7.3060    7.3190 ha        1 632      0.143000
     64 H23        -0.3820    4.5550    4.5290 hn        1 632      0.198000
@<TRIPOS>BOND
     1    1    2 1   
     2    1    3 1   
     3    1    4 1   
     4    2    5 1   
     5    2    6 1   
     6    2   37 1   
     7    3   31 1   
     8    3   34 1   
     9    5   35 1   
    10    5   38 1   
    11    6    7 1   
    12    6   39 1   
    13    6   40 1   
    14    7    8 1   
    15    7   41 1   
    16    7   42 1   
    17    8    9 1   
    18    8   43 1   
    19    9   10 1   
    20   10   12 1   
    21   11   44 1   
    22   11   45 1   
    23   11   46 1   
    24   13   14 1   
    25   13   15 1   
    26   13   36 1   
    27   15   27 1   
    28   16   17 1   
    29   16   21 1   
    30   16   63 1   
    31   17   18 1   
    32   18   19 1   
    33   18   49 1   
    34   19   22 1   
    35   19   50 1   
    36   19   51 1   
    37   20   21 1   
    38   21   52 1   
    39   22   62 1   
    40   23   24 1   
    41   23   28 1   
    42   23   62 1   
    43   24   25 1   
    44   24   55 1   
    45   25   26 1   
    46   25   57 1   
    47   26   27 1   
    48   26   61 1   
    49   27   28 1   
    50   28   29 1   
    51   30   56 1   
    52   30   58 1   
    53   30   61 1   
    54   31   32 1   
    55   31   59 1   
    56   32   33 1   
    57   33   34 1   
    58   33   60 1   
    59   47   48 1   
    60   53   54 1   
    61   62   64 1   
@<TRIPOS>SUBSTRUCTURE
     1 632         1 TEMP              0 ****  ****    0 ROOT
