@<TRIPOS>MOLECULE
632
   64    66     1     0     0
SMALL
bcc


@<TRIPOS>ATOM
      1 CX         -2.5240    2.3250    1.6850 c         1 632      0.482600
      2 CY         -2.6190    0.9850    0.9390 c3        1 632      0.026700
      3 CZ         -2.5700    3.5450    0.8550 cc        1 632      0.271900
      4 OX         -2.4060    2.3850    2.9120 o         1 632     -0.524100
      5 N5         -1.7680   -0.0170    1.5370 n         1 632     -0.561900
      6 C6         -4.1040    0.5810    0.9340 c3        1 632     -0.081400
      7 C7         -4.3540   -0.6080    0.0330 c3        1 632     -0.088400
      8 C8         -5.8560   -0.8890   -0.0400 c3        1 632      0.169800
      9 N9         -6.1730   -2.0870   -0.7970 nh        1 632     -0.793200
     10 C10        -7.5010   -2.1280   -1.3640 c2        1 632      0.743100
     11 N11        -8.5730   -1.8150   -0.4690 nh        1 632     -0.930800
     12 N12        -7.6380   -2.4350   -2.6310 n2        1 632     -0.874100
     13 C13        -0.5730   -0.4060    0.9540 c         1 632      0.644100
     14 O14        -0.2500   -0.0340   -0.1870 o         1 632     -0.579100
     15 C15         0.2920   -1.3480    1.8120 c3        1 632      0.009000
     16 C16         8.5040    2.3560   -0.9860 ca        1 632     -0.123000
     17 C17         7.6400    2.0460   -2.0360 ca        1 632     -0.131000
     18 C18         6.7780    0.9550   -1.9350 ca        1 632     -0.115000
     19 C19         6.7820    0.1640   -0.7820 ca        1 632     -0.110300
     20 C20         7.6490    0.4760    0.2700 ca        1 632     -0.115000
     21 C21         8.5060    1.5710    0.1670 ca        1 632     -0.131000
     22 C22         5.8800   -1.0310   -0.6910 c3        1 632      0.225100
     23 C24         3.7990   -1.6740    0.3820 cc        1 632     -0.010200
     24 C25         3.5800   -2.8220   -0.3600 cd        1 632      0.046600
     25 N26         2.3830   -3.4980   -0.3720 nd        1 632     -0.620300
     26 C27         1.3730   -3.0250    0.3460 cc        1 632      0.465800
     27 N28         1.4590   -1.8720    1.1480 n         1 632     -0.349300
     28 C29         2.6650   -1.1360    1.1850 c         1 632      0.689700
     29 O30         2.7390   -0.1080    1.8860 o         1 632     -0.636500
     30 C32         0.0750   -5.2520   -0.6730 c3        1 632     -0.048000
     31 N33        -3.2690    3.6460   -0.2910 nd        1 632     -0.606000
     32 C34        -3.1000    4.9050   -0.8170 cd        1 632      0.328200
     33 C35        -2.2700    5.7460   -0.0720 cc        1 632     -0.272400
     34 S36        -1.7210    4.9700    1.2820 ss        1 632      0.053700
     35 HY         -2.2780    1.1350   -0.1320 h1        1 632      0.123700
     36 HN5        -1.9150   -0.1960    2.5030 hn        1 632      0.316500
     37 H61        -4.4420    0.3510    1.9780 hc        1 632      0.061200
     38 H62        -4.6980    1.4610    0.5690 hc        1 632      0.061200
     39 H71        -3.9530   -0.3950   -0.9930 hc        1 632      0.058200
     40 H72        -3.8130   -1.5080    0.4260 hc        1 632      0.058200
     41 H81        -6.2440   -1.0430    1.0080 h1        1 632      0.043200
     42 H82        -6.3690    0.0250   -0.4580 h1        1 632      0.043200
     43 HN9        -5.4750   -2.2820   -1.4940 hn        1 632      0.405800
     44 H111       -9.4140   -2.3120   -0.6680 hn        1 632      0.391300
     45 H112       -8.3410   -1.8410    0.4990 hn        1 632      0.391300
     46 H12        -8.5740   -2.5560   -2.9490 hn        1 632      0.390400
     47 H151       -0.3420   -2.2130    2.1690 h1        1 632      0.101200
     48 H152        0.6450   -0.7560    2.7100 h1        1 632      0.101200
     49 H17         7.6360    2.6650   -2.9460 ha        1 632      0.133500
     50 H18         6.0950    0.7180   -2.7650 ha        1 632      0.138500
     51 H20         7.6540   -0.1450    1.1780 ha        1 632      0.138500
     52 H21         9.1850    1.8140    0.9980 ha        1 632      0.133500
     53 H221        6.5200   -1.9610   -0.6340 h1        1 632      0.050700
     54 H222        5.2620   -1.1080   -1.6350 h1        1 632      0.050700
     55 H25         4.3630   -3.2780   -0.9910 h4        1 632      0.170000
     56 H321        0.8650   -5.9390   -0.2970 h1        1 632      0.081367
     57 H322       -0.9120   -5.7730   -0.6560 h1        1 632      0.081367
     58 H323        0.3250   -4.9660   -1.7190 h1        1 632      0.081367
     59 H34        -3.6050    5.1610   -1.7560 h4        1 632      0.051100
     60 H35        -2.0180    6.7680   -0.3490 h4        1 632      0.188000
     61 S31        -0.1480   -3.8570    0.3640 ss        1 632     -0.154300
     62 N23         5.0360   -1.0310    0.4900 nh        1 632     -0.700000
     63 H16         9.1810    3.2190   -1.0660 ha        1 632      0.132000
     64 H23         4.9690   -0.1370    0.9420 hn        1 632      0.419800
@<TRIPOS>BOND
     1    1    2 1   
     2    1    3 1   
     3    1    4 2   
     4    2    5 1   
     5    2    6 1   
     6    2   35 1   
     7    3   31 2   
     8    3   34 1   
     9    5   13 1   
    10    5   36 1   
    11    6    7 1   
    12    6   37 1   
    13    6   38 1   
    14    7    8 1   
    15    7   39 1   
    16    7   40 1   
    17    8    9 1   
    18    8   41 1   
    19    8   42 1   
    20    9   10 1   
    21    9   43 1   
    22   10   11 1   
    23   10   12 2   
    24   11   44 1   
    25   11   45 1   
    26   12   46 1   
    27   13   14 2   
    28   13   15 1   
    29   15   27 1   
    30   15   47 1   
    31   15   48 1   
    32   16   17 ar  
    33   16   21 ar  
    34   16   63 1   
    35   17   18 ar  
    36   17   49 1   
    37   18   19 ar  
    38   18   50 1   
    39   19   20 ar  
    40   19   22 1   
    41   20   21 ar  
    42   20   51 1   
    43   21   52 1   
    44   22   53 1   
    45   22   54 1   
    46   22   62 1   
    47   23   24 2   
    48   23   28 1   
    49   23   62 1   
    50   24   25 1   
    51   24   55 1   
    52   25   26 2   
    53   26   27 1   
    54   26   61 1   
    55   27   28 1   
    56   28   29 2   
    57   30   56 1   
    58   30   57 1   
    59   30   58 1   
    60   30   61 1   
    61   31   32 1   
    62   32   33 2   
    63   32   59 1   
    64   33   34 1   
    65   33   60 1   
    66   62   64 1   
@<TRIPOS>SUBSTRUCTURE
     1 632         1 TEMP              0 ****  ****    0 ROOT
