@<TRIPOS>MOLECULE
632
   64    57     1     0     0
SMALL
bcc


@<TRIPOS>ATOM
      1 CX         -1.4800   -1.5420   -2.9140 c1        1 632      0.283000
      2 CY         -0.1840   -1.6940   -2.1540 c2        1 632      0.008000
      3 CZ         -2.5010   -2.6760   -2.9160 c2        1 632     -0.397000
      4 OX         -1.7120   -0.5100   -3.5230 o         1 632     -0.276000
      5 N5         -0.4160   -1.4580   -0.7650 n         1 632     -0.370000
      6 C6          0.3540   -3.0960   -2.3450 c3        1 632     -0.163000
      7 C7          1.4510   -3.0830   -3.4280 c3        1 632     -0.178000
      8 C8          2.0250   -4.4950   -3.5930 c3        1 632     -0.036000
      9 N9          2.6870   -4.6020   -4.8800 n3        1 632     -0.349000
     10 C10         2.7530   -5.8670   -5.5470 c2        1 632      0.172000
     11 N11         3.0430   -7.0500   -4.8060 n3        1 632     -0.321000
     12 N12         2.5470   -5.9370   -6.8360 n1        1 632     -0.358000
     13 C13         0.0270   -0.2180   -0.1560 c2        1 632      0.288000
     14 O14        -0.0690    0.8300   -0.7700 o         1 632     -0.341000
     15 C15         0.6900   -0.2380    1.2220 c3        1 632     -0.057000
     16 C16        -4.0620    5.7550    6.5480 c1        1 632     -0.127000
     17 C17        -2.8950    6.3570    7.0010 c1        1 632     -0.127000
     18 C18        -1.6870    6.0920    6.3700 c1        1 632     -0.127000
     19 C19        -1.6460    5.2220    5.2840 c1        1 632     -0.114000
     20 C20        -2.8130    4.6200    4.8330 c1        1 632     -0.123000
     21 C21        -4.0210    4.8860    5.4640 c1        1 632     -0.127000
     22 C22        -0.3120    4.9600    4.5580 c3        1 632     -0.029000
     23 N23        -0.0700    3.5310    4.4910 n3        1 632     -0.238000
     24 C24         0.6620    2.9620    3.3490 c2        1 632     -0.103000
     25 C25         1.8390    3.6580    2.8070 c1        1 632     -0.049000
     26 N26         2.5360    3.1090    1.6820 n1        1 632     -0.205000
     27 C27         2.0450    1.8840    1.0410 c1        1 632     -0.041000
     28 N28         0.9520    1.1220    1.6530 n2        1 632     -0.235000
     29 C29         0.2370    1.6700    2.7640 c2        1 632      0.321000
     30 O30        -0.6960    1.0670    3.2410 o         1 632     -0.374000
     31 S31         2.7550    1.3390   -0.4940 ss        1 632      0.260000
     32 C32         4.1080    2.4000   -0.9300 c3        1 632     -0.349000
     33 N33        -2.7910   -2.9580   -4.2830 n2        1 632     -0.103000
     34 C34        -4.1540   -3.7390   -4.3520 c1        1 632     -0.141000
     35 C35        -4.6490   -3.9070   -3.0070 c1        1 632     -0.477000
     36 S36        -3.6510   -3.2570   -2.0570 ss        1 632      0.657000
     37 HY          0.4660   -1.0490   -2.4870 h4        1 632      0.153000
     38 HN5        -0.8960   -2.0610   -0.2750 hn        1 632      0.238000
     39 H61        -0.3700   -3.6860   -2.6240 hc        1 632      0.101500
     40 H62         0.7290   -3.4170   -1.5050 hc        1 632      0.101500
     41 H71         1.0690   -2.7880   -4.2710 hc        1 632      0.102500
     42 H72         2.1700   -2.4660   -3.1580 hc        1 632      0.102500
     43 H81         1.2950   -5.1530   -3.5450 h1        1 632      0.076000
     44 H82         2.6720   -4.6700   -2.8770 h1        1 632      0.076000
     45 HN9         3.0980   -3.8640   -5.2500 hn        1 632      0.202000
     46 H111        2.9920   -7.0420   -3.8950 hn        1 632      0.187000
     47 H112        3.2880   -7.8180   -5.2450 hn        1 632      0.187000
     48 H12         2.3620   -5.1810   -7.3090 DU        1 632      0.174333
     49 H151        1.5370   -0.7340    1.1710 h1        1 632      0.139000
     50 H152        0.0960   -0.6730    1.8630 h1        1 632      0.139000
     51 H16        -4.9160    5.9420    6.9950 ha        1 632      0.131500
     52 H17        -2.9240    6.9660    7.7610 ha        1 632      0.131500
     53 H18        -0.8700    6.5140    6.6870 ha        1 632      0.131500
     54 H20        -2.7850    4.0150    4.0770 ha        1 632      0.146000
     55 H21        -4.8350    4.4660    5.1490 ha        1 632      0.131500
     56 H221        0.4160    5.3910    5.0470 h1        1 632      0.103500
     57 H222       -0.3560    5.3240    3.6540 h1        1 632      0.103500
     58 H23        -0.3110    2.9970    5.1880 hn        1 632      0.201000
     59 H25         2.1640    4.4700    3.2330 ha        1 632      0.173000
     60 H321        3.7750    3.3130   -1.0730 h1        1 632      0.121333
     61 H322        4.5300    2.0720   -1.7550 h1        1 632      0.121333
     62 H323        4.7690    2.4030   -0.2030 h1        1 632      0.121333
     63 H34        -4.5860   -4.0540   -5.1570 DU        1 632      0.174333
     64 H35        -5.4780   -4.3570   -2.7500 DU        1 632      0.174333
@<TRIPOS>BOND
     1    1    3 1   
     2    1    4 1   
     3    2    5 1   
     4    2    6 1   
     5    2   37 1   
     6    3   33 1   
     7    3   36 1   
     8    5   13 1   
     9    5   38 1   
    10    6    7 1   
    11    6   39 1   
    12    6   40 1   
    13    7    8 1   
    14    7   41 1   
    15    7   42 1   
    16    8    9 1   
    17    8   43 1   
    18    8   44 1   
    19    9   10 1   
    20    9   45 1   
    21   10   11 1   
    22   10   12 1   
    23   11   46 1   
    24   11   47 1   
    25   13   14 1   
    26   13   15 1   
    27   15   28 1   
    28   15   49 1   
    29   15   50 1   
    30   16   21 1   
    31   16   51 1   
    32   17   18 1   
    33   17   52 1   
    34   18   53 1   
    35   19   20 1   
    36   19   22 1   
    37   20   54 1   
    38   21   55 1   
    39   22   23 1   
    40   22   56 1   
    41   22   57 1   
    42   23   24 1   
    43   23   58 1   
    44   24   25 1   
    45   24   29 1   
    46   25   59 1   
    47   26   27 1   
    48   27   31 1   
    49   28   29 1   
    50   29   30 1   
    51   31   32 1   
    52   32   60 1   
    53   32   61 1   
    54   32   62 1   
    55   33   34 1   
    56   34   35 1   
    57   35   36 1   
@<TRIPOS>SUBSTRUCTURE
     1 632         1 TEMP              0 ****  ****    0 ROOT
