@<TRIPOS>MOLECULE
635
   79    78     1     0     0
SMALL
bcc


@<TRIPOS>ATOM
      1 C1         -1.4860   -1.2760   -0.5590 c3        1 635     -0.271000
      2 F1          1.0640    8.9660   -5.2350 f         1 635      0.007000
      3 N1          5.4290    4.1910   -2.1110 n         1 635     -0.248000
      4 O1          2.0530    2.4470    1.0040 os        1 635     -0.263000
      5 C2          1.7630    1.1640    1.2500 c1        1 635      0.062000
      6 N2          1.2810    4.4710   -0.6820 na        1 635     -0.085000
      7 O2          4.2320    2.3780    1.4320 o         1 635     -0.296000
      8 C3          0.3630    1.0150    1.7080 c3        1 635     -0.324000
      9 N3          9.4300    3.4560    6.0930 n3        1 635     -0.248000
     10 O3          7.2910    4.2700   -3.4690 o         1 635     -0.300000
     11 C4          3.3790    2.7450    0.6300 c2        1 635      0.384000
     12 O4         10.9210    2.2870    1.5370 os        1 635     -0.208000
     13 C5          3.5630    3.5060   -0.6100 c2        1 635     -0.249000
     14 O5         11.0430    0.9600    9.1530 oh        1 635     -0.137000
     15 C6          4.8790    3.5990   -1.0100 c2        1 635      0.125000
     16 C7          4.6380    4.8510   -3.1310 c3        1 635     -0.050000
     17 C8          3.4060    4.0730   -3.6710 c3        1 635      0.011000
     18 C9          2.2870    4.3210   -2.7270 c2        1 635     -0.165000
     19 C10         2.4270    4.0690   -1.3060 c2        1 635      0.079000
     20 C11         0.3440    4.9440   -1.6330 c2        1 635     -0.178000
     21 C12         0.9980    4.8570   -2.9190 c2        1 635     -0.016000
     22 C13         0.2940    5.2740   -4.1530 c3        1 635      0.013000
     23 C14         0.5930    6.6200   -4.5450 c1        1 635     -0.169000
     24 C15         0.8190    7.7470   -4.8710 c1        1 635     -0.018000
     25 C16        -0.9000    5.3740   -1.2160 c1        1 635     -0.165000
     26 C17         3.1430    4.6190   -5.0710 c3        1 635     -0.209500
     27 C18         3.6830    2.5800   -3.8070 c3        1 635     -0.209500
     28 C20         7.7340    3.7960   -1.1680 c2        1 635     -0.115000
     29 C21         8.6560    2.8130   -1.3300 c2        1 635      0.026000
     30 C22         9.6390    2.3330   -0.4080 c2        1 635     -0.250000
     31 C23         9.9400    2.8900    0.7890 c2        1 635      0.048000
     32 C24         7.4480    5.3400    0.9050 c1        1 635     -0.175000
     33 C25         7.5790    4.6170   -0.0420 c1        1 635     -0.143000
     34 C26        11.2050    2.9230    2.7900 c3        1 635     -0.027000
     35 C27        10.0730    2.7240    3.7800 c3        1 635     -0.204000
     36 C28        10.5160    3.2140    5.1570 c3        1 635     -0.040000
     37 C29         9.8410    4.1620    7.2860 c3        1 635     -0.123000
     38 C30        10.2530    1.8170    9.6830 c1        1 635     -0.021000
     39 C31         7.9200    2.0430    7.4200 c2        1 635     -0.331000
     40 C32         8.5180    2.4060    6.2730 c2        1 635     -0.038000
     41 H1         -1.6410   -0.2260   -0.8920 hc        1 635      0.068250
     42 H1A        -1.8590   -1.3930    0.4810 hc        1 635      0.068250
     43 H1B        -2.0440   -1.9630   -1.2320 hc        1 635      0.068250
     44 H2         -0.4020   -1.5210   -0.5950 hc        1 635      0.068250
     45 HN2         1.0650    4.3590    0.2820 hn        1 635      0.275000
     46 H3         -0.2280    1.9610    1.7800 hc        1 635      0.113333
     47 H3A        -0.1530    0.3140    1.0000 hc        1 635      0.113333
     48 H3B         0.3970    0.5280    2.7170 hc        1 635      0.113333
     49 H6          5.6250    3.1040   -0.3340 h4        1 635      0.187000
     50 H7          5.3180    5.0860   -4.0020 h1        1 635      0.119500
     51 H7A         4.2740    5.8300   -2.7020 h1        1 635      0.119500
     52 H13         0.5400    4.5720   -5.0000 hc        1 635      0.115500
     53 H14        -0.8210    5.1950   -3.9780 hc        1 635      0.115500
     54 H16        -1.6220    5.7180   -1.9620 ha        1 635      0.071000
     55 H17         2.3480    4.0210   -5.5780 hc        1 635      0.083833
     56 H17A        4.0700    4.5420   -5.6910 hc        1 635      0.083833
     57 H17B        2.8270    5.6890   -5.0270 hc        1 635      0.083833
     58 H18         4.6310    2.4190   -4.3730 hc        1 635      0.083833
     59 H18A        2.8460    2.0900   -4.3620 hc        1 635      0.083833
     60 H18B        3.7650    2.0890   -2.8080 hc        1 635      0.083833
     61 H21         8.6590    2.2810   -2.3050 ha        1 635      0.146000
     62 H22        10.1910    1.4310   -0.7290 ha        1 635      0.153000
     63 H24         9.4670    3.7940    1.2060 h4        1 635      0.153000
     64 H25         7.3190    5.9750    1.7460 ha        1 635      0.235000
     65 H26        11.4180    4.0120    2.6260 h1        1 635      0.103000
     66 H26A       12.1400    2.3980    3.1260 h1        1 635      0.103000
     67 H27         9.1650    3.2810    3.4320 hc        1 635      0.103000
     68 H27A        9.8060    1.6360    3.8180 hc        1 635      0.103000
     69 H28        11.2580    2.4720    5.5770 h1        1 635      0.077000
     70 H28A       11.0590    4.1950    5.0280 h1        1 635      0.077000
     71 H29        10.3650    3.4960    8.0300 h1        1 635      0.088667
     72 H29A       10.5250    5.0050    7.0060 h1        1 635      0.088667
     73 H30         8.9260    4.5910    7.7730 h1        1 635      0.088667
     74 H30A        9.3490    1.4480   10.2220 ha        1 635      0.009000
     75 H31        10.8060    0.0090    9.2470 ho        1 635      0.150000
     76 H31A        8.1430    2.4920    8.3960 ha        1 635      0.118500
     77 H32         7.1330    1.2800    7.4200 ha        1 635      0.118500
     78 H32A        8.2460    1.9010    5.3240 h4        1 635      0.133000
     79 C19         6.8390    4.0960   -2.3290 c2        1 635      0.358000
@<TRIPOS>BOND
     1    1   41 1   
     2    1   42 1   
     3    1   43 1   
     4    1   44 1   
     5    2   24 1   
     6    3   15 1   
     7    3   16 1   
     8    3   79 1   
     9    4    5 1   
    10    4   11 1   
    11    5    8 1   
    12    6   19 1   
    13    6   20 1   
    14    6   45 1   
    15    7   11 1   
    16    8   46 1   
    17    8   47 1   
    18    8   48 1   
    19    9   36 1   
    20    9   37 1   
    21    9   40 1   
    22   10   79 1   
    23   11   13 1   
    24   12   31 1   
    25   12   34 1   
    26   13   15 1   
    27   13   19 1   
    28   14   38 1   
    29   14   75 1   
    30   15   49 1   
    31   16   17 1   
    32   16   50 1   
    33   16   51 1   
    34   17   18 1   
    35   17   26 1   
    36   17   27 1   
    37   18   19 1   
    38   18   21 1   
    39   20   21 1   
    40   20   25 1   
    41   21   22 1   
    42   22   23 1   
    43   22   52 1   
    44   22   53 1   
    45   23   24 1   
    46   25   54 1   
    47   26   55 1   
    48   26   56 1   
    49   26   57 1   
    50   27   58 1   
    51   27   59 1   
    52   27   60 1   
    53   28   29 1   
    54   28   33 1   
    55   28   79 1   
    56   29   30 1   
    57   29   61 1   
    58   30   31 1   
    59   30   62 1   
    60   31   63 1   
    61   32   33 1   
    62   32   64 1   
    63   34   35 1   
    64   34   65 1   
    65   34   66 1   
    66   35   36 1   
    67   35   67 1   
    68   35   68 1   
    69   36   69 1   
    70   36   70 1   
    71   37   71 1   
    72   37   72 1   
    73   37   73 1   
    74   38   74 1   
    75   39   40 1   
    76   39   76 1   
    77   39   77 1   
    78   40   78 1   
@<TRIPOS>SUBSTRUCTURE
     1 635         1 TEMP              0 ****  ****    0 ROOT
