@<TRIPOS>MOLECULE
635
   79    78     1     0     0
SMALL
bcc


@<TRIPOS>ATOM
      1 C1         -3.6460    6.7060    2.0820 c3        1 635     -0.228000
      2 F1          7.4790    4.9710    0.2570 f         1 635     -0.110000
      3 N1         -0.1010    1.9810    1.0130 n         1 635     -0.260000
      4 O1         -1.4290    5.8340    2.0260 os        1 635     -0.284000
      5 C2         -2.1970    7.0390    2.0370 c3        1 635      0.041000
      6 N2          2.5580    5.7130    0.1440 n2        1 635     -0.193000
      7 O2         -1.2460    6.0670   -0.2100 o         1 635     -0.387000
      8 C3         -1.8240    7.8750    3.2720 c3        1 635     -0.228000
      9 N3         -1.0720   -8.2820   -1.8200 n3        1 635     -0.255000
     10 O3         -2.0670    1.7190    2.1800 o         1 635     -0.313000
     11 C4         -0.8300    5.5510    0.7860 c2        1 635      0.367000
     12 O4         -2.2870   -4.2420   -0.1780 os        1 635     -0.212000
     13 C5          0.3100    4.5090    0.6980 c2        1 635     -0.192000
     14 O5          0.3800   -8.2890    0.3520 os        1 635     -0.279000
     15 C6          0.2750    3.2630    1.5810 c2        1 635      0.083000
     16 C7          0.8840    1.5290    0.0520 c3        1 635     -0.041000
     17 C8          1.1030    2.5780   -1.0370 c3        1 635      0.015000
     18 C9          2.1730    3.6390   -0.5870 c2        1 635     -0.149000
     19 C10         1.5670    4.8100   -0.1710 c2        1 635      0.048000
     20 C11         3.7930    5.0980   -0.0800 c1        1 635      0.024000
     21 C12         3.5580    3.8260   -0.5280 c1        1 635     -0.079000
     22 C13         4.6420    2.9330   -0.7230 c1        1 635     -0.068000
     23 C14         5.9440    3.3500   -0.4590 c1        1 635     -0.193000
     24 C15         6.1830    4.6530   -0.0010 c2        1 635      0.102000
     25 C16         5.1290    5.5240    0.1900 c2        1 635     -0.184000
     26 C17        -0.2380    3.2950   -1.3340 c3        1 635     -0.205000
     27 C18         1.5840    1.8970   -2.2910 c3        1 635     -0.205000
     28 C19        -1.2950    1.2560    1.3590 c2        1 635      0.356000
     29 C20        -1.4980   -0.2160    0.8350 c2        1 635     -0.158000
     30 C21        -0.6260   -1.2310    1.2470 c2        1 635     -0.059000
     31 C22        -0.8870   -2.5600    0.9010 c1        1 635     -0.161000
     32 C23        -2.0050   -2.8720    0.1510 c1        1 635      0.107000
     33 C24        -2.8780   -1.8590   -0.2630 c1        1 635     -0.212000
     34 C25        -2.6200   -0.5330    0.0810 c1        1 635     -0.059000
     35 C26        -1.9890   -4.5840   -1.5230 c3        1 635     -0.025000
     36 C27        -2.2230   -6.0980   -1.7350 c3        1 635     -0.162000
     37 C28        -0.8660   -6.8720   -1.5540 c3        1 635     -0.068000
     38 C29         0.2790   -9.0080   -1.8140 c3        1 635     -0.103500
     39 C30         1.0970   -8.7200   -0.5690 c3        1 635     -0.037500
     40 C31        -0.7930   -8.6840    0.6640 c3        1 635     -0.037500
     41 C32        -1.6200   -8.9670   -0.5640 c3        1 635     -0.103500
     42 H1         -3.8640    6.0730    1.3420 hc        1 635      0.088333
     43 H1A        -3.8630    6.2850    2.9490 hc        1 635      0.088333
     44 H1B        -4.1820    7.5400    1.9740 hc        1 635      0.088333
     45 H2         -2.0030    7.5660    1.2080 h1        1 635      0.110000
     46 HN2         2.4240    6.6180    0.4330 DU        1 635      0.279000
     47 H3         -1.7460    7.2880    4.0540 hc        1 635      0.088333
     48 H3A        -0.9740    8.3220    3.1150 hc        1 635      0.088333
     49 H3B        -2.5230    8.5470    3.4350 hc        1 635      0.088333
     50 H6          0.4810    3.3360    2.5420 h4        1 635      0.196000
     51 H7          1.7250    1.3620    0.5080 h1        1 635      0.107000
     52 H7A         0.5710    0.6990   -0.3610 h1        1 635      0.107000
     53 H13         4.4770    2.0260   -1.0430 ha        1 635      0.136000
     54 H14         6.6880    2.7020   -0.5100 ha        1 635      0.144000
     55 H16         5.3010    6.4440    0.4640 ha        1 635      0.152000
     56 H17        -0.5930    2.9830   -2.2110 hc        1 635      0.080333
     57 H17A       -0.0940    4.2500   -1.3670 hc        1 635      0.080333
     58 H17B       -0.8690    3.0910   -0.6430 hc        1 635      0.080333
     59 H18         1.9420    2.5610   -2.9000 hc        1 635      0.080333
     60 H18A        2.2900    1.2460   -2.0630 hc        1 635      0.080333
     61 H18B        0.8310    1.4290   -2.7200 hc        1 635      0.080333
     62 H21         0.1610   -1.0120    1.7750 ha        1 635      0.150000
     63 H22        -0.2690   -3.2790    1.1930 ha        1 635      0.158000
     64 H24        -3.6670   -2.0810   -0.7910 ha        1 635      0.146000
     65 H25        -3.2410    0.1860   -0.2130 ha        1 635      0.145000
     66 H26        -1.0500   -4.3670   -1.7160 h1        1 635      0.084000
     67 H26A       -2.5720   -4.0750   -2.1270 h1        1 635      0.084000
     68 H27        -2.5750   -6.2520   -2.6540 hc        1 635      0.104500
     69 H27A       -2.8700   -6.4220   -1.0820 hc        1 635      0.104500
     70 H28        -0.1940   -6.5120   -2.1860 h1        1 635      0.079000
     71 H28A       -0.5400   -6.7550   -0.6210 h1        1 635      0.079000
     72 H29         0.1180   -9.9760   -1.8670 h1        1 635      0.092250
     73 H29A        0.7850   -8.7330   -2.5920 h1        1 635      0.092250
     74 H30         1.5330   -9.5440   -0.2770 h1        1 635      0.090500
     75 H30A        1.7820   -8.0540   -0.7800 h1        1 635      0.090500
     76 H31        -1.2310   -7.9950    1.1890 h1        1 635      0.090500
     77 H31A       -0.7250   -9.5030    1.2020 h1        1 635      0.090500
     78 H32        -2.5330   -8.6550   -0.4080 h1        1 635      0.092250
     79 H32A       -1.6380   -9.9400   -0.7170 h1        1 635      0.092250
@<TRIPOS>BOND
     1    1    5 1   
     2    1   42 1   
     3    1   43 1   
     4    1   44 1   
     5    2   24 1   
     6    3   15 1   
     7    3   16 1   
     8    3   28 1   
     9    4    5 1   
    10    4   11 1   
    11    5    8 1   
    12    5   45 1   
    13    6   19 1   
    14    6   20 1   
    15    7   11 1   
    16    8   47 1   
    17    8   48 1   
    18    8   49 1   
    19    9   37 1   
    20    9   38 1   
    21    9   41 1   
    22   10   28 1   
    23   11   13 1   
    24   12   32 1   
    25   12   35 1   
    26   13   15 1   
    27   13   19 1   
    28   14   39 1   
    29   14   40 1   
    30   15   50 1   
    31   16   17 1   
    32   16   51 1   
    33   16   52 1   
    34   17   18 1   
    35   17   26 1   
    36   17   27 1   
    37   18   19 1   
    38   18   21 1   
    39   20   25 1   
    40   21   22 1   
    41   22   53 1   
    42   23   24 1   
    43   23   54 1   
    44   24   25 1   
    45   25   55 1   
    46   26   56 1   
    47   26   57 1   
    48   26   58 1   
    49   27   59 1   
    50   27   60 1   
    51   27   61 1   
    52   28   29 1   
    53   29   30 1   
    54   29   34 1   
    55   30   31 1   
    56   30   62 1   
    57   31   63 1   
    58   32   33 1   
    59   33   64 1   
    60   34   65 1   
    61   35   36 1   
    62   35   66 1   
    63   35   67 1   
    64   36   37 1   
    65   36   68 1   
    66   36   69 1   
    67   37   70 1   
    68   37   71 1   
    69   38   39 1   
    70   38   72 1   
    71   38   73 1   
    72   39   74 1   
    73   39   75 1   
    74   40   41 1   
    75   40   76 1   
    76   40   77 1   
    77   41   78 1   
    78   41   79 1   
@<TRIPOS>SUBSTRUCTURE
     1 635         1 TEMP              0 ****  ****    0 ROOT
