@<TRIPOS>MOLECULE
635
   79    83     1     0     0
SMALL
bcc


@<TRIPOS>ATOM
      1 C1          2.8490   -2.1540   -4.9350 c3        1 635     -0.110600
      2 F1          9.0620    2.2180   -3.0190 f         1 635     -0.144900
      3 N1          2.1230    0.1610    1.7240 n         1 635     -0.363000
      4 O1          2.5630   -0.8390   -3.0030 os        1 635     -0.448900
      5 C2          1.8740   -1.2460   -4.2090 c3        1 635      0.150100
      6 N2          4.4680    0.8950   -1.9840 na        1 635     -0.167400
      7 O2          0.5700   -0.4620   -2.0730 o         1 635     -0.570000
      8 C3          1.5190   -0.0190   -5.0230 c3        1 635     -0.110600
      9 N3         -8.6710   -0.3000   -0.0010 n3        1 635     -0.723600
     10 O3          1.6510   -0.2520    3.9400 o         1 635     -0.549100
     11 C4          1.8010   -0.4420   -1.9390 c         1 635      0.655300
     12 O4         -4.2780   -1.0540    1.9010 os        1 635     -0.323900
     13 C5          2.5430   -0.0620   -0.7210 ce        1 635     -0.211200
     14 O5        -11.5440   -0.2070    0.0360 os        1 635     -0.414600
     15 C6          1.7920   -0.1430    0.4260 c2        1 635      0.079600
     16 C7          3.4280    0.6720    2.0890 c3        1 635      0.069000
     17 C8          4.6590   -0.1350    1.5870 c3        1 635      0.015200
     18 C9          4.9240    0.2840    0.1900 cd        1 635     -0.127400
     19 C10         3.9290    0.3350   -0.8060 cc        1 635      0.020900
     20 C11         5.8330    1.1000   -1.7810 ca        1 635     -0.025200
     21 C12         6.1540    0.7670   -0.4090 ca        1 635     -0.087800
     22 C13         7.4690    0.9540    0.0240 ca        1 635     -0.067000
     23 C14         8.4270    1.4360   -0.8510 ca        1 635     -0.192000
     24 C15         8.0940    1.7510   -2.1920 ca        1 635      0.137900
     25 C16         6.7930    1.5890   -2.6770 ca        1 635     -0.186000
     26 C17         5.8050    0.2030    2.5340 c3        1 635     -0.088100
     27 C18         4.4170   -1.6380    1.6640 c3        1 635     -0.088100
     28 C20        -0.2160   -0.3720    2.4710 ca        1 635     -0.198600
     29 C21        -0.8570   -1.4960    3.0150 ca        1 635     -0.050000
     30 C22        -2.2120   -1.7000    2.8030 ca        1 635     -0.188500
     31 C23        -2.9420   -0.7590    2.0470 ca        1 635      0.161100
     32 C24        -2.3120    0.3760    1.5180 ca        1 635     -0.188500
     33 C25        -0.9480    0.5610    1.7330 ca        1 635     -0.050000
     34 C26        -5.0410   -0.1440    1.0930 c3        1 635      0.126400
     35 C27        -6.4470   -0.7190    1.0550 c3        1 635     -0.088400
     36 C28        -7.3580    0.2510    0.3060 c3        1 635      0.172800
     37 C29        -9.4220    0.5810   -0.8890 c3        1 635      0.130800
     38 C30       -10.8380    0.0650   -1.1680 c3        1 635      0.126400
     39 C31       -10.8510   -1.1340    0.8630 c3        1 635      0.126400
     40 C32        -9.4320   -0.6560    1.1890 c3        1 635      0.130800
     41 H1          3.1220   -3.0220   -4.2900 hc        1 635      0.048867
     42 H1A         2.3700   -2.5250   -5.8720 hc        1 635      0.048867
     43 H1B         3.7810   -1.5990   -5.1950 hc        1 635      0.048867
     44 H2          0.9420   -1.8090   -3.9240 h1        1 635      0.074700
     45 HN2         4.0560    0.7720   -2.8770 hn        1 635      0.305700
     46 H3          2.4320    0.5830   -5.2440 hc        1 635      0.048867
     47 H3A         1.0500   -0.3320   -5.9860 hc        1 635      0.048867
     48 H3B         0.7970    0.6160   -4.4550 hc        1 635      0.048867
     49 H6          0.7430   -0.5110    0.2970 h4        1 635      0.179000
     50 H7          3.5090    1.7200    1.6770 h1        1 635      0.076700
     51 H7A         3.4810    0.7340    3.2150 h1        1 635      0.076700
     52 H13         7.7630    0.7230    1.0580 ha        1 635      0.140000
     53 H14         9.4650    1.5830   -0.5180 ha        1 635      0.145000
     54 H16         6.5440    1.8380   -3.7160 ha        1 635      0.149000
     55 H17         5.5060   -0.0140    3.5890 hc        1 635      0.042700
     56 H17A        6.6970   -0.4270    2.2970 hc        1 635      0.042700
     57 H17B        6.0790    1.2810    2.4520 hc        1 635      0.042700
     58 H18         3.6780   -1.9650    0.8940 hc        1 635      0.042700
     59 H18A        5.3720   -2.1860    1.4790 hc        1 635      0.042700
     60 H18B        4.0350   -1.9110    2.6770 hc        1 635      0.042700
     61 H21        -0.2780   -2.2110    3.6210 ha        1 635      0.149500
     62 H22        -2.7280   -2.5790    3.2150 ha        1 635      0.153000
     63 H24        -2.8730    1.1180    0.9340 ha        1 635      0.153000
     64 H25        -0.4530    1.4540    1.3190 ha        1 635      0.149500
     65 H26        -5.0290    0.8720    1.5680 h1        1 635      0.044700
     66 H26A       -4.5940   -0.0900    0.0660 h1        1 635      0.044700
     67 H27        -6.4290   -1.7200    0.5510 hc        1 635      0.067200
     68 H27A       -6.8110   -0.8750    2.1030 hc        1 635      0.067200
     69 H28        -6.8710    0.5130   -0.6770 h1        1 635      0.033200
     70 H28A       -7.4360    1.2050    0.9100 h1        1 635      0.033200
     71 H29        -9.5010    1.6260   -0.4670 h1        1 635      0.041450
     72 H29A       -8.8650    0.6410   -1.8650 h1        1 635      0.041450
     73 H30       -10.8050   -0.8600   -1.8020 h1        1 635      0.054950
     74 H30A      -11.4440    0.8600   -1.6760 h1        1 635      0.054950
     75 H31       -11.4650   -1.1860    1.8000 h1        1 635      0.054950
     76 H31A      -10.8250   -2.1380    0.3620 h1        1 635      0.054950
     77 H32        -8.8870   -1.4950    1.7060 h1        1 635      0.041450
     78 H32A       -9.5040    0.2100    1.9110 h1        1 635      0.041450
     79 C19         1.2220   -0.1670    2.7780 c         1 635      0.683700
@<TRIPOS>BOND
     1    1    5 1   
     2    1   41 1   
     3    1   42 1   
     4    1   43 1   
     5    2   24 1   
     6    3   15 1   
     7    3   16 1   
     8    3   79 1   
     9    4    5 1   
    10    4   11 1   
    11    5    8 1   
    12    5   44 1   
    13    6   19 1   
    14    6   20 1   
    15    6   45 1   
    16    7   11 2   
    17    8   46 1   
    18    8   47 1   
    19    8   48 1   
    20    9   36 1   
    21    9   37 1   
    22    9   40 1   
    23   10   79 2   
    24   11   13 1   
    25   12   31 1   
    26   12   34 1   
    27   13   15 2   
    28   13   19 1   
    29   14   38 1   
    30   14   39 1   
    31   15   49 1   
    32   16   17 1   
    33   16   50 1   
    34   16   51 1   
    35   17   18 1   
    36   17   26 1   
    37   17   27 1   
    38   18   19 2   
    39   18   21 1   
    40   20   21 ar  
    41   20   25 ar  
    42   21   22 ar  
    43   22   23 ar  
    44   22   52 1   
    45   23   24 ar  
    46   23   53 1   
    47   24   25 ar  
    48   25   54 1   
    49   26   55 1   
    50   26   56 1   
    51   26   57 1   
    52   27   58 1   
    53   27   59 1   
    54   27   60 1   
    55   28   29 ar  
    56   28   33 ar  
    57   28   79 1   
    58   29   30 ar  
    59   29   61 1   
    60   30   31 ar  
    61   30   62 1   
    62   31   32 ar  
    63   32   33 ar  
    64   32   63 1   
    65   33   64 1   
    66   34   35 1   
    67   34   65 1   
    68   34   66 1   
    69   35   36 1   
    70   35   67 1   
    71   35   68 1   
    72   36   69 1   
    73   36   70 1   
    74   37   38 1   
    75   37   71 1   
    76   37   72 1   
    77   38   73 1   
    78   38   74 1   
    79   39   40 1   
    80   39   75 1   
    81   39   76 1   
    82   40   77 1   
    83   40   78 1   
@<TRIPOS>SUBSTRUCTURE
     1 635         1 TEMP              0 ****  ****    0 ROOT
