@<TRIPOS>MOLECULE
635
   79    80     1     0     0
SMALL
bcc


@<TRIPOS>ATOM
      1 C1         -0.3490    1.2320    0.2290 c3        1 635     -0.271000
      2 F1         -0.8190    8.7540   -2.4800 f         1 635     -0.103000
      3 N1          5.9070    3.1010   -1.7230 n         1 635     -0.247000
      4 O1          2.5210    2.7970    1.7820 os        1 635     -0.253000
      5 C2          2.2960    3.0060    3.0860 c1        1 635      0.052000
      6 N2          2.4500    5.1100    0.1420 na        1 635     -0.157000
      7 O2          4.6300    2.1510    2.1160 o         1 635     -0.323000
      8 C3          0.8480    2.9530    3.3910 c3        1 635     -0.324000
      9 N3          7.5260    2.4820    5.2450 n3        1 635      0.175000
     10 O3          7.4810    2.3940   -3.2520 o         1 635     -0.306000
     11 C4          3.8620    2.7400    1.3560 c2        1 635      0.393000
     12 O4         11.0140    3.8460    0.4720 os        1 635     -0.253000
     13 C5          4.1350    3.2660    0.0180 c2        1 635     -0.232000
     14 O5          6.1510    0.6720    6.9600 os        1 635     -0.271000
     15 C6          5.3240    2.8180   -0.5220 c2        1 635      0.115000
     16 C7          5.2700    3.9200   -2.7360 c3        1 635     -0.049000
     17 C8          3.7730    3.6220   -3.0390 c3        1 635      0.012000
     18 C9          2.9680    4.2970   -1.9900 c2        1 635     -0.160000
     19 C10         3.2080    4.1650   -0.6290 c2        1 635      0.076000
     20 C11         1.5700    5.7640   -0.7870 c2        1 635     -0.310000
     21 C12         1.8810    5.2670   -2.1680 c2        1 635      0.031000
     22 C13         1.1610    5.7010   -3.2170 c2        1 635     -0.171000
     23 C14         0.0560    6.6220   -3.0180 c2        1 635     -0.199000
     24 C15         0.2200    7.9080   -2.6240 c2        1 635      0.053000
     25 C16         0.6810    6.7420   -0.5640 c1        1 635      0.165000
     26 C17         3.5130    4.1700   -4.4380 c3        1 635     -0.207500
     27 C18         3.4900    2.1240   -3.0660 c3        1 635     -0.207500
     28 C20         8.1070    2.1640   -0.9800 c2        1 635     -0.133000
     29 C21         9.3780    1.4980   -1.3200 c2        1 635     -0.084000
     30 C22        10.4630    1.7990   -0.5730 c2        1 635     -0.156000
     31 C23        10.4240    2.5840    0.7250 c3        1 635      0.084000
     32 C24         8.9960    2.6100    1.2760 c2        1 635     -0.144000
     33 C25         8.1150    2.5370    0.3020 c1        1 635     -0.061000
     34 C26        11.3440    4.5790    1.6520 c3        1 635     -0.031000
     35 C27        12.6240    4.0880    2.2840 c3        1 635     -0.248000
     36 C28         8.0900    3.4180    4.4800 c2        1 635     -0.465000
     37 C29         6.0660    2.3110    5.1580 c3        1 635     -0.126000
     38 C30         5.5910    0.9550    5.6870 c3        1 635     -0.027000
     39 C31         7.5770    0.6380    6.9310 c3        1 635      0.051000
     40 C32         8.2010    1.6930    6.0920 c2        1 635     -0.433000
     41 H1          0.6290    1.6300    0.5790 hc        1 635      0.067750
     42 H1A        -0.5310    1.5620   -0.8170 hc        1 635      0.067750
     43 H1B        -1.1620    1.6150    0.8850 hc        1 635      0.067750
     44 H2         -0.3340    0.1210    0.2690 hc        1 635      0.067750
     45 HN2         1.9760    4.7180    0.9340 hn        1 635      0.197000
     46 H3          0.1770    2.7290    2.5240 hc        1 635      0.113000
     47 H3A         0.7060    2.1660    4.1750 hc        1 635      0.113000
     48 H3B         0.5590    3.9400    3.8350 hc        1 635      0.113000
     49 H6          5.9040    2.1050    0.1190 h4        1 635      0.181000
     50 H7          5.8520    3.8040   -3.6960 h1        1 635      0.119500
     51 H7A         5.3500    4.9960   -2.4050 h1        1 635      0.119500
     52 H13         1.3200    5.3660   -4.2510 ha        1 635      0.155000
     53 H14        -0.9490    6.2210   -3.2340 ha        1 635      0.155000
     54 H16         1.2020    8.3800   -2.4320 h4        1 635      0.158000
     55 H17         2.4960    3.8670   -4.7860 hc        1 635      0.083167
     56 H17A        3.5940    5.2830   -4.4470 hc        1 635      0.083167
     57 H17B        4.2560    3.7490   -5.1590 hc        1 635      0.083167
     58 H18         2.4620    1.9410   -3.4620 hc        1 635      0.083167
     59 H18A        3.5480    1.6840   -2.0430 hc        1 635      0.083167
     60 H18B        4.2270    1.6100   -3.7280 hc        1 635      0.083167
     61 H21         9.4150    0.8920   -2.2360 ha        1 635      0.163000
     62 H22        11.4750    1.5040   -0.8880 ha        1 635      0.154000
     63 H24        11.0180    2.0190    1.5050 h1        1 635      0.115000
     64 H25         8.8240    2.5390    2.3570 ha        1 635      0.193000
     65 H26        11.4650    5.6300    1.2690 h1        1 635      0.097000
     66 H26A       10.4920    4.5410    2.3820 h1        1 635      0.097000
     67 H27        13.4380    4.0310    1.5210 hc        1 635      0.084667
     68 H27A       12.4900    3.0740    2.7310 hc        1 635      0.084667
     69 H28        12.9360    4.7920    3.0920 hc        1 635      0.084667
     70 H28A        9.1620    3.6130    4.5620 h4        1 635      0.143000
     71 H29         7.4650    4.0340    3.8280 h4        1 635      0.143000
     72 H29A        5.5990    3.1360    5.7660 h1        1 635      0.138500
     73 H30         5.7390    2.4210    4.0840 h1        1 635      0.138500
     74 H30A        4.4830    0.9860    5.8580 h1        1 635      0.103500
     75 H31         5.8480    0.1360    4.9640 h1        1 635      0.103500
     76 H31A        7.9020   -0.3760    6.5660 h1        1 635      0.086500
     77 H32         7.8750    0.7640    8.0080 h1        1 635      0.086500
     78 H32A        9.2870    1.8290    6.1790 h4        1 635      0.157000
     79 C19         7.1830    2.5360   -2.0550 c2        1 635      0.378000
@<TRIPOS>BOND
     1    1   41 1   
     2    1   42 1   
     3    1   43 1   
     4    1   44 1   
     5    2   24 1   
     6    3   15 1   
     7    3   16 1   
     8    3   79 1   
     9    4    5 1   
    10    4   11 1   
    11    5    8 1   
    12    6   19 1   
    13    6   20 1   
    14    6   45 1   
    15    7   11 1   
    16    8   46 1   
    17    8   47 1   
    18    8   48 1   
    19    9   36 1   
    20    9   37 1   
    21    9   40 1   
    22   10   79 1   
    23   11   13 1   
    24   12   31 1   
    25   12   34 1   
    26   13   15 1   
    27   13   19 1   
    28   14   38 1   
    29   14   39 1   
    30   15   49 1   
    31   16   17 1   
    32   16   50 1   
    33   16   51 1   
    34   17   18 1   
    35   17   26 1   
    36   17   27 1   
    37   18   19 1   
    38   18   21 1   
    39   20   21 1   
    40   20   25 1   
    41   21   22 1   
    42   22   23 1   
    43   22   52 1   
    44   23   24 1   
    45   23   53 1   
    46   24   54 1   
    47   26   55 1   
    48   26   56 1   
    49   26   57 1   
    50   27   58 1   
    51   27   59 1   
    52   27   60 1   
    53   28   29 1   
    54   28   33 1   
    55   28   79 1   
    56   29   30 1   
    57   29   61 1   
    58   30   31 1   
    59   30   62 1   
    60   31   32 1   
    61   31   63 1   
    62   32   33 1   
    63   32   64 1   
    64   34   35 1   
    65   34   65 1   
    66   34   66 1   
    67   35   67 1   
    68   35   68 1   
    69   35   69 1   
    70   36   70 1   
    71   36   71 1   
    72   37   38 1   
    73   37   72 1   
    74   37   73 1   
    75   38   74 1   
    76   38   75 1   
    77   39   40 1   
    78   39   76 1   
    79   39   77 1   
    80   40   78 1   
@<TRIPOS>SUBSTRUCTURE
     1 635         1 TEMP              0 ****  ****    0 ROOT
