@<TRIPOS>MOLECULE
636
   34    27     1     0     0
SMALL
bcc


@<TRIPOS>ATOM
      1 OX1        -1.1160    2.0370    1.6520 o         1 636     -0.573000
      2 CX0         0.1420    2.0320    1.5980 c1        1 636      0.376000
      3 OX2         0.8180    2.0640    2.6600 o         1 636     -0.573000
      4 CX1         0.8410    2.0150    0.2570 c1        1 636     -0.062000
      5 CX6         1.0920    3.2050   -0.4080 c1        1 636     -0.136000
      6 CX5         1.7800    3.1940   -1.6110 c1        1 636     -0.170000
      7 CX4         2.2190    1.9940   -2.1480 c1        1 636     -0.170000
      8 CX3         1.9680    0.8040   -1.4830 c1        1 636     -0.096000
      9 C3          2.4770   -0.5020   -2.0510 c3        1 636     -0.188000
     10 CX2         1.2790    0.8140   -0.2800 c1        1 636      0.044000
     11 N1          1.0850   -0.3970    0.4370 n3        1 636     -0.223000
     12 CY1        -0.2280   -0.8830    0.6660 c2        1 636      0.084000
     13 CY2        -0.5780   -1.3730    1.9150 c1        1 636     -0.166000
     14 CY0         0.4430   -1.3930    3.0320 c1        1 636      0.361000
     15 OY1         0.2470   -0.7180    4.0760 o         1 636     -0.584000
     16 OY2         1.4750   -2.1070    2.9290 os        1 636     -0.597000
     17 CY6        -1.1430   -0.9240   -0.3750 c1        1 636     -0.169000
     18 CY5        -2.4070   -1.4540   -0.1670 c1        1 636     -0.082000
     19 C5         -3.3870   -1.5490   -1.3170 c3        1 636     -0.161000
     20 CY4        -2.7560   -1.9430    1.0820 c1        1 636     -0.210000
     21 CY3        -1.8420   -1.9030    2.1230 c1        1 636     -0.097000
     22 H2          0.7830    4.0500   -0.0300 ha        1 636      0.119000
     23 H3          1.9570    4.0320   -2.0800 ha        1 636      0.090500
     24 H4          2.7040    1.9860   -2.9950 ha        1 636      0.090500
     25 H5          2.9700   -0.9900   -1.3580 hc        1 636      0.088667
     26 H6          1.7190   -1.0430   -2.3560 hc        1 636      0.088667
     27 H7          3.0730   -0.3190   -2.8070 hc        1 636      0.088667
     28 H8          1.8040   -0.8530    0.7650 hn        1 636      0.229000
     29 H10        -0.8970   -0.5810   -1.2550 ha        1 636      0.189000
     30 H11        -3.4480   -0.6800   -1.7670 hc        1 636      0.062667
     31 H12        -3.0780   -2.2260   -1.9550 hc        1 636      0.062667
     32 H13        -4.2700   -1.8020   -0.9750 hc        1 636      0.062667
     33 H14        -3.6380   -2.3390    1.2220 ha        1 636      0.088000
     34 H15        -2.0880   -2.2470    3.0030 ha        1 636      0.133000
@<TRIPOS>BOND
     1    1    2 1   
     2    2    3 1   
     3    4    5 1   
     4    5   22 1   
     5    6    7 1   
     6    6   23 1   
     7    7   24 1   
     8    8    9 1   
     9    8   10 1   
    10    9   25 1   
    11    9   26 1   
    12    9   27 1   
    13   10   11 1   
    14   11   12 1   
    15   11   28 1   
    16   12   13 1   
    17   12   17 1   
    18   13   21 1   
    19   14   15 1   
    20   17   29 1   
    21   18   19 1   
    22   18   20 1   
    23   19   30 1   
    24   19   31 1   
    25   19   32 1   
    26   20   33 1   
    27   21   34 1   
@<TRIPOS>SUBSTRUCTURE
     1 636         1 TEMP              0 ****  ****    0 ROOT
