@<TRIPOS>MOLECULE
636
   35    36     1     0     0
SMALL
bcc


@<TRIPOS>ATOM
      1 OX1         0.7510   -1.5240    0.3060 o         1 636     -0.546000
      2 CX0         1.3520   -0.5070   -0.0660 c         1 636      0.654700
      3 OX2         1.1720    0.5540    0.7600 oh        1 636     -0.594100
      4 CX1         2.1410   -0.3860   -1.3110 ca        1 636     -0.235600
      5 CX6         1.4800   -0.7310   -2.4920 ca        1 636     -0.057000
      6 CX5         2.1280   -0.6490   -3.7160 ca        1 636     -0.202000
      7 CX4         3.4510   -0.2120   -3.7510 ca        1 636     -0.085000
      8 CX3         4.1470    0.1260   -2.5910 ca        1 636     -0.132300
      9 C3          5.5360    0.6190   -2.7460 c3        1 636     -0.052800
     10 CX2         3.5100    0.0160   -1.3200 ca        1 636      0.233600
     11 N1          4.1490    0.1620   -0.0860 nh        1 636     -0.605000
     12 CY1         5.4080    0.8090    0.0790 ca        1 636      0.111600
     13 CY2         5.5010    2.1920    0.3520 ca        1 636     -0.144600
     14 CY0         4.2900    3.1120    0.3950 c         1 636      0.919200
     15 OY1         4.4640    4.3270    0.1140 o         1 636     -0.833300
     16 OY2         3.1670    2.6250    0.7300 o         1 636     -0.833300
     17 CY6         6.5770    0.0180    0.1030 ca        1 636     -0.134000
     18 CY5         7.8200    0.5920    0.3740 ca        1 636     -0.107300
     19 C5          9.0400   -0.2490    0.3850 c3        1 636     -0.039800
     20 CY4         7.9050    1.9660    0.6260 ca        1 636     -0.152000
     21 CY3         6.7570    2.7490    0.6130 ca        1 636     -0.100000
     22 H2          0.4340   -1.0710   -2.4350 ha        1 636      0.133000
     23 H3          1.6060   -0.9150   -4.6440 ha        1 636      0.120000
     24 H4          3.9600   -0.1240   -4.7240 ha        1 636      0.117000
     25 H5          5.7920    0.7600   -3.8250 hc        1 636      0.046033
     26 H6          5.6660    1.6030   -2.2280 hc        1 636      0.046033
     27 H7          6.2640   -0.1110   -2.3110 hc        1 636      0.046033
     28 H8          1.6310    1.3530    0.4330 ho        1 636      0.489000
     29 H10         6.5120   -1.0650   -0.0870 ha        1 636      0.128000
     30 H11         8.8020   -1.2970    0.6920 hc        1 636      0.030033
     31 H12         9.4940   -0.2800   -0.6370 hc        1 636      0.030033
     32 H13         9.8020    0.1620    1.0920 hc        1 636      0.030033
     33 H14         8.8830    2.4210    0.8380 ha        1 636      0.113000
     34 H15         6.8090    3.8350    0.7980 ha        1 636      0.154000
     35 H121        3.5210    0.4930    0.6390 hn        1 636      0.447800
@<TRIPOS>BOND
     1    1    2 2   
     2    2    3 1   
     3    2    4 1   
     4    3   28 1   
     5    4    5 ar  
     6    4   10 ar  
     7    5    6 ar  
     8    5   22 1   
     9    6    7 ar  
    10    6   23 1   
    11    7    8 ar  
    12    7   24 1   
    13    8    9 1   
    14    8   10 ar  
    15    9   25 1   
    16    9   26 1   
    17    9   27 1   
    18   10   11 1   
    19   11   12 1   
    20   11   35 1   
    21   12   13 ar  
    22   12   17 ar  
    23   13   14 1   
    24   13   21 ar  
    25   14   15 1   
    26   14   16 1   
    27   17   18 ar  
    28   17   29 1   
    29   18   19 1   
    30   18   20 ar  
    31   19   30 1   
    32   19   31 1   
    33   19   32 1   
    34   20   21 ar  
    35   20   33 1   
    36   21   34 1   
@<TRIPOS>SUBSTRUCTURE
     1 636         1 TEMP              0 ****  ****    0 ROOT
