@<TRIPOS>MOLECULE
636
   34    35     1     0     0
SMALL
bcc


@<TRIPOS>ATOM
      1 OX1         0.4620   -1.3050   -0.0770 o         1 636     -0.837300
      2 CX0         1.5820   -0.7140    0.0000 c         1 636      0.907200
      3 OX2         2.0710   -0.3110    1.0910 o         1 636     -0.837300
      4 CX1         2.3680   -0.5380   -1.2930 ca        1 636     -0.169600
      5 CX6         1.9990   -1.3730   -2.3490 ca        1 636     -0.098000
      6 CX5         2.6600   -1.3400   -3.5730 ca        1 636     -0.208000
      7 CX4         3.6970   -0.4320   -3.7570 ca        1 636     -0.142000
      8 CX3         4.0810    0.4390   -2.7370 ca        1 636     -0.133300
      9 C3          5.1510    1.4260   -3.0190 c3        1 636     -0.043800
     10 CX2         3.4310    0.3890   -1.4670 ca        1 636      0.183600
     11 N1          3.7720    1.3310   -0.4790 nh        1 636     -0.605000
     12 CY1         5.0930    1.4090    0.0020 ca        1 636      0.192600
     13 CY2         5.5690    2.6090    0.5980 ca        1 636     -0.136600
     14 CY0         4.7330    3.8680    0.7660 c         1 636      0.914200
     15 OY1         3.5260    3.7760    1.1170 o         1 636     -0.838800
     16 OY2         5.3210    4.9780    0.5760 o         1 636     -0.838800
     17 CY6         5.9840    0.3150   -0.1120 ca        1 636     -0.195000
     18 CY5         7.3010    0.3950    0.3440 ca        1 636     -0.102300
     19 C5          8.1920   -0.7820    0.2210 c3        1 636     -0.029800
     20 CY4         7.7560    1.5780    0.9280 ca        1 636     -0.198000
     21 CY3         6.8900    2.6630    1.0440 ca        1 636     -0.103000
     22 H2          1.1590   -2.0680   -2.1820 ha        1 636      0.142000
     23 H3          2.3640   -2.0160   -4.3850 ha        1 636      0.089000
     24 H4          4.2180   -0.3880   -4.7250 ha        1 636      0.090000
     25 H5          6.0740    1.1800   -2.4330 hc        1 636      0.035367
     26 H6          5.4170    1.4350   -4.1050 hc        1 636      0.035367
     27 H7          4.8240    2.4560   -2.7270 hc        1 636      0.035367
     28 H8          3.0770    1.4840    0.2400 hn        1 636      0.488800
     29 H10         5.6300   -0.6250   -0.5620 ha        1 636      0.128000
     30 H11         9.2600   -0.5020    0.3940 hc        1 636      0.017700
     31 H12         7.9080   -1.5610    0.9720 hc        1 636      0.017700
     32 H13         8.1080   -1.2370   -0.7970 hc        1 636      0.017700
     33 H14         8.7900    1.6540    1.2900 ha        1 636      0.090000
     34 H15         7.2440    3.6120    1.4780 ha        1 636      0.132000
@<TRIPOS>BOND
     1    1    2 1   
     2    2    3 1   
     3    2    4 1   
     4    4    5 ar  
     5    4   10 ar  
     6    5    6 ar  
     7    5   22 1   
     8    6    7 ar  
     9    6   23 1   
    10    7    8 ar  
    11    7   24 1   
    12    8    9 1   
    13    8   10 ar  
    14    9   25 1   
    15    9   26 1   
    16    9   27 1   
    17   10   11 1   
    18   11   12 1   
    19   11   28 1   
    20   12   13 ar  
    21   12   17 ar  
    22   13   14 1   
    23   13   21 ar  
    24   14   15 1   
    25   14   16 1   
    26   17   18 ar  
    27   17   29 1   
    28   18   19 1   
    29   18   20 ar  
    30   19   30 1   
    31   19   31 1   
    32   19   32 1   
    33   20   21 ar  
    34   20   33 1   
    35   21   34 1   
@<TRIPOS>SUBSTRUCTURE
     1 636         1 TEMP              0 ****  ****    0 ROOT
