@<TRIPOS>MOLECULE
636
   34    35     1     0     0
SMALL
bcc


@<TRIPOS>ATOM
      1 OX1         0.7770   -1.8140   -0.0490 o         1 636     -0.846300
      2 CX0         1.8760   -1.1840   -0.0010 c         1 636      0.908200
      3 OX2         2.5000   -0.9870    1.0840 o         1 636     -0.846300
      4 CX1         2.4740   -0.6990   -1.3120 ca        1 636     -0.176600
      5 CX6         2.0760   -1.3860   -2.4610 ca        1 636     -0.102000
      6 CX5         2.5990   -1.0730   -3.7110 ca        1 636     -0.206000
      7 CX4         3.5300   -0.0450   -3.8200 ca        1 636     -0.145000
      8 CX3         3.9370    0.6830   -2.7010 ca        1 636     -0.105300
      9 C3          4.9150    1.7810   -2.8830 c3        1 636     -0.067800
     10 CX2         3.4060    0.3680   -1.4150 ca        1 636      0.160600
     11 N1          3.7150    1.1900   -0.3060 nu        1 636     -0.585000
     12 CY1         5.0930    1.3300    0.0470 ca        1 636      0.132600
     13 CY2         5.6530    2.6070    0.2780 ca        1 636     -0.082600
     14 CY0         4.9030    3.9240    0.1250 c         1 636      0.927200
     15 OY1         4.4340    4.4670    1.1640 o         1 636     -0.838300
     16 OY2         4.8650    4.4540   -1.0230 o         1 636     -0.838300
     17 CY6         5.9100    0.1880    0.2100 ca        1 636     -0.149000
     18 CY5         7.2500    0.2980    0.5800 ca        1 636     -0.127300
     19 C5          8.0830   -0.9180    0.7240 c3        1 636     -0.028800
     20 CY4         7.7930    1.5650    0.8100 ca        1 636     -0.164000
     21 CY3         6.9960    2.6950    0.6630 ca        1 636     -0.132000
     22 H2          1.3300   -2.1890   -2.3460 ha        1 636      0.136000
     23 H3          2.2800   -1.6280   -4.6030 ha        1 636      0.088000
     24 H4          3.9470    0.2090   -4.8050 ha        1 636      0.092000
     25 H5          4.5790    2.7200   -2.3610 hc        1 636      0.050033
     26 H6          5.0660    2.0090   -3.9670 hc        1 636      0.050033
     27 H7          5.9030    1.4920   -2.4440 hc        1 636      0.050033
     28 H8          3.1740    0.9350    0.5110 hn        1 636      0.441800
     29 H10         5.4700   -0.8110    0.0550 ha        1 636      0.140000
     30 H11         7.4750   -1.7740    1.1100 hc        1 636      0.018700
     31 H12         8.5100   -1.2150   -0.2670 hc        1 636      0.018700
     32 H13         8.9330   -0.7430    1.4290 hc        1 636      0.018700
     33 H14         8.8450    1.6650    1.1110 ha        1 636      0.090000
     34 H15         7.4200    3.6930    0.8490 ha        1 636      0.119000
@<TRIPOS>BOND
     1    1    2 1   
     2    2    3 1   
     3    2    4 1   
     4    4    5 ar  
     5    4   10 ar  
     6    5    6 ar  
     7    5   22 1   
     8    6    7 ar  
     9    6   23 1   
    10    7    8 ar  
    11    7   24 1   
    12    8    9 1   
    13    8   10 ar  
    14    9   25 1   
    15    9   26 1   
    16    9   27 1   
    17   10   11 1   
    18   11   12 1   
    19   11   28 1   
    20   12   13 ar  
    21   12   17 ar  
    22   13   14 1   
    23   13   21 ar  
    24   14   15 1   
    25   14   16 1   
    26   17   18 ar  
    27   17   29 1   
    28   18   19 1   
    29   18   20 ar  
    30   19   30 1   
    31   19   31 1   
    32   19   32 1   
    33   20   21 ar  
    34   20   33 1   
    35   21   34 1   
@<TRIPOS>SUBSTRUCTURE
     1 636         1 TEMP              0 ****  ****    0 ROOT
