@<TRIPOS>MOLECULE
636
   34    35     1     0     0
SMALL
bcc


@<TRIPOS>ATOM
      1 OX1         3.7560   -0.2470    2.0800 o         1 636     -0.837300
      2 CX0         2.5660   -0.3170    1.6450 c         1 636      0.907200
      3 OX2         1.7600   -1.2240    1.9950 o         1 636     -0.837300
      4 CX1         2.1060    0.7810    0.6960 ca        1 636     -0.169600
      5 CX6         2.8630    1.9540    0.7070 ca        1 636     -0.098000
      6 CX5         2.5290    3.0480   -0.0850 ca        1 636     -0.208000
      7 CX4         1.4280    2.9600   -0.9300 ca        1 636     -0.142000
      8 CX3         0.6590    1.7980   -0.9930 ca        1 636     -0.133300
      9 C3         -0.4630    1.7460   -1.9600 c3        1 636     -0.043800
     10 CX2         0.9740    0.6820   -0.1580 ca        1 636      0.183600
     11 N1          0.2410   -0.5110   -0.2940 nh        1 636     -0.605000
     12 CY1        -1.1510   -0.5180   -0.0810 ca        1 636      0.192600
     13 CY2        -1.9600   -1.5310   -0.6640 ca        1 636     -0.136600
     14 CY0        -1.4240   -2.6540   -1.5380 c         1 636      0.914200
     15 OY1        -0.3440   -3.2260   -1.2300 o         1 636     -0.838800
     16 OY2        -2.1310   -2.9920   -2.5370 o         1 636     -0.838800
     17 CY6        -1.7820    0.4830    0.6950 ca        1 636     -0.195000
     18 CY5        -3.1630    0.4920    0.8920 ca        1 636     -0.102300
     19 C5         -3.7790    1.5500    1.7280 c3        1 636     -0.029800
     20 CY4        -3.9470   -0.5070    0.3140 ca        1 636     -0.198000
     21 CY3        -3.3390   -1.4980   -0.4530 ca        1 636     -0.103000
     22 H2          3.7430    1.9880    1.3710 ha        1 636      0.142000
     23 H3          3.1290    3.9660   -0.0500 ha        1 636      0.089000
     24 H4          1.1630    3.8140   -1.5710 ha        1 636      0.090000
     25 H5         -0.4020    0.8190   -2.5850 hc        1 636      0.035367
     26 H6         -1.4450    1.7310   -1.4200 hc        1 636      0.035367
     27 H7         -0.4510    2.6320   -2.6410 hc        1 636      0.035367
     28 H8          0.7000   -1.3480    0.0400 hn        1 636      0.488800
     29 H10        -1.1700    1.2700    1.1620 ha        1 636      0.128000
     30 H11        -3.3450    2.5510    1.4820 hc        1 636      0.017700
     31 H12        -4.8850    1.5970    1.5730 hc        1 636      0.017700
     32 H13        -3.5850    1.3460    2.8110 hc        1 636      0.017700
     33 H14        -5.0350   -0.5110    0.4610 ha        1 636      0.090000
     34 H15        -3.9480   -2.2780   -0.9380 ha        1 636      0.132000
@<TRIPOS>BOND
     1    1    2 1   
     2    2    3 1   
     3    2    4 1   
     4    4    5 ar  
     5    4   10 ar  
     6    5    6 ar  
     7    5   22 1   
     8    6    7 ar  
     9    6   23 1   
    10    7    8 ar  
    11    7   24 1   
    12    8    9 1   
    13    8   10 ar  
    14    9   25 1   
    15    9   26 1   
    16    9   27 1   
    17   10   11 1   
    18   11   12 1   
    19   11   28 1   
    20   12   13 ar  
    21   12   17 ar  
    22   13   14 1   
    23   13   21 ar  
    24   14   15 1   
    25   14   16 1   
    26   17   18 ar  
    27   17   29 1   
    28   18   19 1   
    29   18   20 ar  
    30   19   30 1   
    31   19   31 1   
    32   19   32 1   
    33   20   21 ar  
    34   20   33 1   
    35   21   34 1   
@<TRIPOS>SUBSTRUCTURE
     1 636         1 TEMP              0 ****  ****    0 ROOT
