@<TRIPOS>MOLECULE
637
   63    67     1     0     0
SMALL
bcc


@<TRIPOS>ATOM
      1 C1          0.0150   -1.8860    1.2470 c3        1 637      0.251800
      2 C2          0.8250   -1.7300   -0.0740 c3        1 637      0.086100
      3 O3          1.0970   -3.0480   -0.5090 oh        1 637     -0.591800
      4 C4          2.1300   -1.0070    0.3270 c3        1 637      0.100100
      5 O5          3.2690   -1.7190   -0.0870 oh        1 637     -0.576800
      6 C6          2.0680   -0.8660    1.8650 c3        1 637      0.121300
      7 C7         -4.6270    2.2550    1.4700 c3        1 637     -0.171400
      8 N8         -3.3960   -0.6110    1.8190 nc        1 637     -0.530100
      9 C9         -2.4510   -1.5600    1.7820 cd        1 637      0.457700
     10 N10        -1.1980   -1.1070    1.2880 na        1 637     -0.284000
     11 C11        -1.3700    0.2600    1.0160 ca        1 637      0.416800
     12 C12        -2.7720    0.5550    1.3490 ca        1 637     -0.152200
     13 O13         0.8880   -1.5320    2.3310 os        1 637     -0.410600
     14 C14         2.1160    0.5560    2.3140 c2        1 637     -0.071200
     15 C15         1.4510    1.0160    3.3790 c2        1 637     -0.254200
     16 C16         1.5890    2.4180    3.8570 c3        1 637      0.162000
     17 N17         0.2960    3.1630    3.7330 ny        1 637     -0.666800
     18 C18         0.3920    4.6150    4.1400 c         1 637      0.580700
     19 O19         1.4570    4.9620    4.6380 o         1 637     -0.439100
     20 C20        -0.7690    5.4630    3.8720 ca        1 637     -0.207600
     21 C21        -0.5350    6.8550    3.8930 ca        1 637     -0.058000
     22 C22        -1.5620    7.7670    3.6500 cp        1 637     -0.003000
     23 C23        -2.8590    7.2950    3.3830 ca        1 637     -0.103000
     24 C24        -1.2960    9.2030    3.6750 cp        1 637     -0.094000
     25 C25        -2.2060   10.0790    4.2850 ca        1 637     -0.082500
     26 C26        -1.9610   11.4470    4.3160 ca        1 637     -0.162500
     27 C27        -0.1290    9.7180    3.0920 ca        1 637     -0.082500
     28 C28         0.1300   11.0830    3.1100 ca        1 637     -0.162500
     29 C29        -0.7880   11.9560    3.7250 ca        1 637      0.158900
     30 F30        -0.5430   13.2840    3.7490 f         1 637     -0.119900
     31 C31        -2.0720    4.9950    3.6240 ca        1 637      0.164100
     32 O32        -2.3190    3.6470    3.6570 oh        1 637     -0.546100
     33 C33        -3.1090    5.9260    3.3740 ca        1 637      0.062100
     34 O34        -4.3450    5.3670    3.1340 oh        1 637     -0.509100
     35 C35        -3.2150    1.8890    1.1630 ca        1 637      0.504600
     36 N38        -2.3460    2.8180    0.7010 nb        1 637     -0.725000
     37 C39        -1.0730    2.4230    0.4110 ca        1 637      0.608900
     38 N40        -0.5040    1.2000    0.5420 nb        1 637     -0.710000
     39 H1         -0.2620   -2.9700    1.4290 h2        1 637      0.129700
     40 H2          0.2700   -1.1590   -0.8640 h1        1 637      0.090700
     41 HO3         1.5220   -2.9770   -1.3750 ho        1 637      0.436000
     42 H4          2.2140   -0.0080   -0.1820 h1        1 637      0.109700
     43 HO5         3.2000   -2.6240    0.2530 ho        1 637      0.425000
     44 H6          2.9280   -1.4210    2.3480 h1        1 637      0.109700
     45 H7         -5.0060    1.6400    2.3230 hc        1 637      0.076367
     46 H7A        -5.2600    2.0370    0.5710 hc        1 637      0.076367
     47 H7B        -4.7350    3.3410    1.7210 hc        1 637      0.076367
     48 H9         -2.5970   -2.6090    2.0790 h5        1 637      0.094800
     49 H14         2.7890    1.1980    1.7170 ha        1 637      0.145000
     50 H15         0.8030    0.3530    3.9770 ha        1 637      0.164000
     51 H16         1.8880    2.4350    4.9460 hx        1 637      0.110200
     52 H16A        2.3680    2.9890    3.2730 hx        1 637      0.110200
     53 HN17       -0.4210    2.7130    4.3210 hn        1 637      0.468300
     54 H21         0.4830    7.2210    4.1170 ha        1 637      0.175000
     55 H23        -3.6740    8.0100    3.1790 ha        1 637      0.169000
     56 H25        -3.1190    9.6840    4.7560 ha        1 637      0.138500
     57 H26        -2.6710   12.1360    4.7990 ha        1 637      0.163500
     58 H27         0.5880    9.0400    2.6040 ha        1 637      0.138500
     59 H28         1.0420   11.4900    2.6480 ha        1 637      0.163500
     60 HO32       -3.2330    3.4800    3.3570 ho        1 637      0.487000
     61 HO34       -4.9590    6.0750    2.8830 ho        1 637      0.455000
     62 H39        -0.4170    3.2120   -0.0160 h5        1 637      0.056100
     63 H172       -0.0480    3.1160    2.7630 hn        1 637      0.468300
@<TRIPOS>BOND
     1    1    2 1   
     2    1   10 1   
     3    1   13 1   
     4    1   39 1   
     5    2    3 1   
     6    2    4 1   
     7    2   40 1   
     8    3   41 1   
     9    4    5 1   
    10    4    6 1   
    11    4   42 1   
    12    5   43 1   
    13    6   13 1   
    14    6   14 1   
    15    6   44 1   
    16    7   35 1   
    17    7   45 1   
    18    7   46 1   
    19    7   47 1   
    20    8    9 2   
    21    8   12 1   
    22    9   10 1   
    23    9   48 1   
    24   10   11 1   
    25   11   12 ar  
    26   11   38 ar  
    27   12   35 ar  
    28   14   15 2   
    29   14   49 1   
    30   15   16 1   
    31   15   50 1   
    32   16   17 1   
    33   16   51 1   
    34   16   52 1   
    35   17   18 1   
    36   17   53 1   
    37   17   63 1   
    38   18   19 2   
    39   18   20 1   
    40   20   21 ar  
    41   20   31 ar  
    42   21   22 ar  
    43   21   54 1   
    44   22   23 ar  
    45   22   24 1   
    46   23   33 ar  
    47   23   55 1   
    48   24   25 ar  
    49   24   27 ar  
    50   25   26 ar  
    51   25   56 1   
    52   26   29 ar  
    53   26   57 1   
    54   27   28 ar  
    55   27   58 1   
    56   28   29 ar  
    57   28   59 1   
    58   29   30 1   
    59   31   32 1   
    60   31   33 ar  
    61   32   60 1   
    62   33   34 1   
    63   34   61 1   
    64   35   36 ar  
    65   36   37 ar  
    66   37   38 ar  
    67   37   62 1   
@<TRIPOS>SUBSTRUCTURE
     1 637         1 TEMP              0 ****  ****    0 ROOT
