@<TRIPOS>MOLECULE
637
   62    56     1     0     0
SMALL
bcc


@<TRIPOS>ATOM
      1 C1          1.1720   -1.3930   -4.5750 c3        1 637      0.123000
      2 C2          2.4250   -1.4460   -4.2450 c3        1 637      0.027000
      3 O3          3.0960   -2.5790   -4.9600 oh        1 637     -0.301000
      4 C4          2.4750   -1.6970   -2.6560 c3        1 637     -0.025000
      5 O5          2.2850   -3.0450   -2.3820 oh        1 637     -0.325000
      6 C6          1.4450   -0.9480   -2.0930 c3        1 637      0.022000
      7 C7         -1.2250    3.6400   -7.2130 c3        1 637     -0.179000
      8 N8         -0.8460    0.3110   -6.6010 n2        1 637     -0.111000
      9 C9         -0.2480   -0.8150   -6.1290 c1        1 637     -0.017000
     10 N10         0.9820   -0.4740   -5.6660 n3        1 637     -0.199000
     11 C11         1.1450    0.8640   -5.8520 c1        1 637      0.042000
     12 C12         0.0160    1.3480   -6.4300 c1        1 637     -0.172000
     13 O13         0.4070   -0.8740   -3.2820 os        1 637     -0.271000
     14 C14         1.8740    0.3950   -1.5590 c2        1 637     -0.199000
     15 C15         1.1100    1.0370   -0.6610 c1        1 637     -0.138000
     16 C16        -0.2200    0.3950   -0.1700 c2        1 637     -0.010000
     17 N17        -0.0450   -0.1230    1.2040 n         1 637     -0.367000
     18 C18         0.0750    0.8220    2.3310 c2        1 637      0.356000
     19 O19         0.8520    1.7420    2.2650 o         1 637     -0.373000
     20 C20        -0.8710    0.7290    3.4860 c2        1 637     -0.122000
     21 C21        -0.6420   -0.2030    4.5010 c2        1 637     -0.069000
     22 C22        -1.5350   -0.3220    5.5360 c1        1 637     -0.041000
     23 C23        -2.6710    0.4910    5.5730 c1        1 637     -0.143000
     24 C24        -1.3180   -1.2940    6.5580 c1        1 637     -0.053000
     25 C25        -0.4980   -0.9900    7.6510 c1        1 637     -0.130500
     26 C26        -0.2660   -1.9510    8.6400 c1        1 637     -0.130500
     27 C27        -1.9020   -2.5540    6.4540 c1        1 637     -0.090000
     28 C28        -1.6700   -3.5160    7.4420 c1        1 637     -0.164000
     29 C29        -0.8500   -3.2120    8.5360 c1        1 637      0.096000
     30 F30        -0.5290   -4.1880    9.4370 f         1 637     -0.103000
     31 C31        -2.0040    1.5390    3.5250 c1        1 637      0.096000
     32 O32        -2.1670    2.5830    2.5640 o         1 637     -0.259000
     33 C33        -2.8970    1.4200    4.5600 c2        1 637     -0.012000
     34 O34        -4.0350    2.2230    4.5940 oh        1 637     -0.273000
     35 C35        -0.0990    2.6990   -6.6920 c2        1 637      0.094000
     36 N38         0.8990    3.5270   -6.3780 n2        1 637     -0.190000
     37 C39         2.0400    3.0390   -5.7940 c1        1 637     -0.017000
     38 N40         2.1570    1.7090   -5.5340 n1        1 637     -0.186000
     39 H1          0.8530   -2.2710   -4.8210 h2        1 637      0.145000
     40 H2          2.8760   -0.5820   -4.4710 h1        1 637      0.157000
     41 HO3         4.0370   -2.4750   -4.9050 ho        1 637      0.223000
     42 H4          3.3200   -1.4070   -2.3070 h1        1 637      0.122000
     43 HO5         2.9770   -3.3510   -1.8940 ho        1 637      0.216000
     44 H6          1.0610   -1.3810   -1.2780 h1        1 637      0.120000
     45 H7         -1.6850    4.0290   -6.4670 hc        1 637      0.105333
     46 H7A        -0.8340    4.3470   -7.7580 hc        1 637      0.105333
     47 H7B        -1.8810    3.1050   -7.7730 hc        1 637      0.105333
     48 H9         -0.6230   -1.7250   -6.1600 DU        1 637      0.208000
     49 H14         2.7010    0.7940   -1.8640 ha        1 637      0.136000
     50 H15         1.3870    1.9040   -0.3170 ha        1 637      0.134000
     51 H16        -0.9090    1.0490   -0.1760 h4        1 637      0.115500
     52 H16A       -0.4560   -0.3150   -0.7440 h4        1 637      0.115500
     53 HN17       -0.1250   -1.0610    1.3730 hn        1 637      0.238000
     54 H21         0.1860   -0.7940    4.4720 ha        1 637      0.168000
     55 H23        -3.2900    0.4110    6.2880 ha        1 637      0.143000
     56 H25        -0.0980   -0.1240    7.7230 ha        1 637      0.144000
     57 H26         0.3360   -1.7280    9.4420 ha        1 637      0.144000
     58 H27        -2.4610   -2.7620    5.7050 ha        1 637      0.145000
     59 H28        -2.0890   -4.4180    7.3660 ha        1 637      0.152000
     60 HO32       -2.0270    3.4020    2.9710 ho        1 637      0.248000
     61 HO34       -3.9390    2.8190    5.1780 ho        1 637      0.233000
     62 H39         2.7650    3.6440   -5.5660 ha        1 637      0.189000
@<TRIPOS>BOND
     1    1    2 1   
     2    1   10 1   
     3    1   13 1   
     4    1   39 1   
     5    2    3 1   
     6    2    4 1   
     7    2   40 1   
     8    3   41 1   
     9    4    5 1   
    10    4    6 1   
    11    4   42 1   
    12    5   43 1   
    13    6   13 1   
    14    6   14 1   
    15    6   44 1   
    16    7   35 1   
    17    7   45 1   
    18    7   46 1   
    19    7   47 1   
    20    8    9 1   
    21    8   12 1   
    22    9   10 1   
    23   10   11 1   
    24   11   38 1   
    25   12   35 1   
    26   14   15 1   
    27   14   49 1   
    28   15   50 1   
    29   16   17 1   
    30   16   51 1   
    31   16   52 1   
    32   17   18 1   
    33   17   53 1   
    34   18   19 1   
    35   18   20 1   
    36   20   21 1   
    37   20   31 1   
    38   21   22 1   
    39   21   54 1   
    40   23   33 1   
    41   23   55 1   
    42   24   27 1   
    43   25   26 1   
    44   25   56 1   
    45   26   57 1   
    46   27   58 1   
    47   28   29 1   
    48   28   59 1   
    49   29   30 1   
    50   31   33 1   
    51   32   60 1   
    52   33   34 1   
    53   34   61 1   
    54   35   36 1   
    55   36   37 1   
    56   37   62 1   
@<TRIPOS>SUBSTRUCTURE
     1 637         1 TEMP              0 ****  ****    0 ROOT
