@<TRIPOS>MOLECULE
637
   63    67     1     0     0
SMALL
bcc


@<TRIPOS>ATOM
      1 C1          0.8020   -1.2010   -0.0150 c3        1 637      0.253800
      2 C2          1.8160   -1.8250    0.9890 c3        1 637      0.089100
      3 O3          1.9870   -3.1670    0.5730 oh        1 637     -0.593800
      4 C4          1.1130   -1.7760    2.3640 c3        1 637      0.102100
      5 O5          1.1310   -3.0220    3.0130 oh        1 637     -0.578800
      6 C6         -0.3320   -1.3090    2.0690 c3        1 637      0.121300
      7 C7          2.4880    4.6270   -1.3620 c3        1 637     -0.160400
      8 N8          1.3010    1.8190   -2.0570 nc        1 637     -0.529100
      9 C9          0.9430    0.5470   -1.8490 cd        1 637      0.441700
     10 N10         1.1910    0.0860   -0.5270 na        1 637     -0.293000
     11 C11         1.7240    1.1890    0.1640 ca        1 637      0.421800
     12 C12         1.8030    2.2710   -0.8240 ca        1 637     -0.165200
     13 O13        -0.4700   -1.1290    0.6560 os        1 637     -0.418600
     14 C14        -0.7030   -0.0810    2.8280 c2        1 637     -0.070200
     15 C15        -1.3440    0.9590    2.2850 c2        1 637     -0.262200
     16 C16        -1.6670    2.1900    3.0540 c3        1 637      0.169000
     17 N17        -3.1470    2.4390    3.0910 n4        1 637     -0.670800
     18 C18        -3.4890    3.6210    3.9650 c         1 637      0.582700
     19 O19        -4.0540    3.3150    5.0100 o         1 637     -0.441100
     20 C20        -3.1160    4.9650    3.5280 ca        1 637     -0.197600
     21 C21        -3.0480    5.9390    4.5460 ca        1 637     -0.061000
     22 C22        -2.7260    7.2670    4.2620 cp        1 637      0.001000
     23 C23        -2.4740    7.6480    2.9330 ca        1 637     -0.104000
     24 C24        -2.6520    8.2550    5.3340 cp        1 637     -0.098000
     25 C25        -1.6200    9.2050    5.3510 ca        1 637     -0.082500
     26 C26        -1.5400   10.1480    6.3680 ca        1 637     -0.162500
     27 C27        -3.6140    8.2640    6.3560 ca        1 637     -0.082500
     28 C28        -3.5530    9.2030    7.3780 ca        1 637     -0.162500
     29 C29        -2.5110   10.1520    7.3890 ca        1 637      0.160900
     30 F30        -2.4430   11.0660    8.3810 f         1 637     -0.118900
     31 C31        -2.8660    5.3490    2.1980 ca        1 637      0.154100
     32 O32        -2.9370    4.4120    1.2000 oh        1 637     -0.543100
     33 C33        -2.5480    6.6990    1.9160 ca        1 637      0.059100
     34 O34        -2.3220    6.9740    0.5860 oh        1 637     -0.508100
     35 C35         2.3480    3.5070   -0.3900 ca        1 637      0.520600
     36 N38         2.7450    3.6420    0.8940 nb        1 637     -0.714000
     37 C39         2.6220    2.5650    1.7240 ca        1 637      0.643900
     38 N40         2.1310    1.3300    1.4570 nb        1 637     -0.719000
     39 H1          0.6260   -1.8910   -0.8970 h2        1 637      0.126700
     40 H2          2.7990   -1.2880    1.0130 h1        1 637      0.097700
     41 HO3         2.7530   -3.5150    1.0500 ho        1 637      0.434000
     42 H4          1.6420   -1.0750    3.0650 h1        1 637      0.114700
     43 HO5         0.8000   -3.6910    2.3930 ho        1 637      0.424000
     44 H6         -1.0700   -2.1250    2.3360 h1        1 637      0.102700
     45 H7          1.5430    4.7370   -1.9490 hc        1 637      0.071367
     46 H7A         3.3180    4.3830   -2.0740 hc        1 637      0.071367
     47 H7B         2.7240    5.5970   -0.8600 hc        1 637      0.071367
     48 H9          0.5150   -0.1220   -2.6090 h5        1 637      0.087800
     49 H14        -0.4190   -0.1110    3.8960 ha        1 637      0.146000
     50 H15        -1.5970    0.9720    1.2100 ha        1 637      0.166000
     51 H16        -1.1950    3.0900    2.5590 hx        1 637      0.107200
     52 H16A       -1.3070    2.1230    4.1210 hx        1 637      0.107200
     53 HN17       -3.4820    2.6060    2.1320 hn        1 637      0.466300
     54 H21        -3.2550    5.6380    5.5890 ha        1 637      0.175000
     55 H23        -2.2290    8.6970    2.6970 ha        1 637      0.171000
     56 H25        -0.8560    9.2000    4.5590 ha        1 637      0.140000
     57 H26        -0.7290   10.8910    6.3860 ha        1 637      0.165000
     58 H27        -4.4340    7.5300    6.3460 ha        1 637      0.140000
     59 H28        -4.3090    9.2160    8.1780 ha        1 637      0.165000
     60 HO32       -2.8430    4.8560    0.3370 ho        1 637      0.487000
     61 HO34       -2.2020    7.9310    0.4840 ho        1 637      0.457000
     62 H39         2.9850    2.7230    2.7630 h5        1 637      0.058100
     63 H172       -3.6200    1.6030    3.4600 hn        1 637      0.466300
@<TRIPOS>BOND
     1    1    2 1   
     2    1   10 1   
     3    1   13 1   
     4    1   39 1   
     5    2    3 1   
     6    2    4 1   
     7    2   40 1   
     8    3   41 1   
     9    4    5 1   
    10    4    6 1   
    11    4   42 1   
    12    5   43 1   
    13    6   13 1   
    14    6   14 1   
    15    6   44 1   
    16    7   35 1   
    17    7   45 1   
    18    7   46 1   
    19    7   47 1   
    20    8    9 2   
    21    8   12 1   
    22    9   10 1   
    23    9   48 1   
    24   10   11 1   
    25   11   12 ar  
    26   11   38 ar  
    27   12   35 ar  
    28   14   15 2   
    29   14   49 1   
    30   15   16 1   
    31   15   50 1   
    32   16   17 1   
    33   16   51 1   
    34   16   52 1   
    35   17   18 1   
    36   17   53 1   
    37   17   63 1   
    38   18   19 2   
    39   18   20 1   
    40   20   21 ar  
    41   20   31 ar  
    42   21   22 ar  
    43   21   54 1   
    44   22   23 ar  
    45   22   24 1   
    46   23   33 ar  
    47   23   55 1   
    48   24   25 ar  
    49   24   27 ar  
    50   25   26 ar  
    51   25   56 1   
    52   26   29 ar  
    53   26   57 1   
    54   27   28 ar  
    55   27   58 1   
    56   28   29 ar  
    57   28   59 1   
    58   29   30 1   
    59   31   32 1   
    60   31   33 ar  
    61   32   60 1   
    62   33   34 1   
    63   34   61 1   
    64   35   36 ar  
    65   36   37 ar  
    66   37   38 ar  
    67   37   62 1   
@<TRIPOS>SUBSTRUCTURE
     1 637         1 TEMP              0 ****  ****    0 ROOT
