@<TRIPOS>MOLECULE
637
   62    66     1     0     0
SMALL
bcc


@<TRIPOS>ATOM
      1 C1         -3.7230   -1.6080   -0.8610 c3        1 637      0.241800
      2 C2         -3.2050   -2.0740   -2.2620 c3        1 637      0.128100
      3 O3         -4.3580   -2.4500   -2.9810 oh        1 637     -0.581800
      4 C4         -2.2320   -3.2310   -1.9440 c3        1 637      0.080100
      5 O5         -2.5620   -4.3200   -2.7820 oh        1 637     -0.596800
      6 C6         -2.4440   -3.5590   -0.4470 c3        1 637      0.130300
      7 C7         -2.0020    3.6850    1.9050 c3        1 637     -0.156400
      8 N8         -1.4320    1.0750    0.2430 nc        1 637     -0.557100
      9 C9         -1.7320   -0.0520   -0.4160 cd        1 637      0.422700
     10 N10        -3.1100   -0.3800   -0.4120 na        1 637     -0.282000
     11 C11        -3.7310    0.6190    0.3610 ca        1 637      0.440800
     12 C12        -2.6580    1.5440    0.7480 ca        1 637     -0.169200
     13 O13        -3.4670   -2.6840    0.0510 os        1 637     -0.399600
     14 C14        -1.1830   -3.4420    0.3390 c2        1 637     -0.203200
     15 C15        -1.1250   -2.9590    1.5810 c2        1 637     -0.166200
     16 C16         0.1560   -2.8900    2.3580 c3        1 637      0.115200
     17 N17         1.1040   -1.9220    1.8710 n         1 637     -0.547900
     18 C18         2.0650   -2.2390    0.9380 c         1 637      0.674700
     19 O19         2.2180   -3.4200    0.5440 o         1 637     -0.645100
     20 C20         2.9590   -1.1470    0.4630 ca        1 637     -0.188600
     21 C21         2.4450    0.1200    0.1590 ca        1 637     -0.108000
     22 C22         3.2830    1.1500   -0.2810 cp        1 637     -0.032000
     23 C23         4.6610    0.9170   -0.4120 ca        1 637     -0.109000
     24 C24         2.7330    2.4640   -0.6120 cp        1 637     -0.057000
     25 C25         3.2710    3.2090   -1.6720 ca        1 637     -0.088000
     26 C26         2.7610    4.4610   -1.9960 ca        1 637     -0.166500
     27 C27         1.6620    2.9960    0.1190 ca        1 637     -0.088000
     28 C28         1.1370    4.2460   -0.1910 ca        1 637     -0.166500
     29 C29         1.6890    4.9860   -1.2520 ca        1 637      0.130900
     30 F30         1.1850    6.2050   -1.5600 f         1 637     -0.138900
     31 C31         4.3290   -1.3960    0.2940 ca        1 637      0.110100
     32 O32         4.9530   -2.5920    0.5390 oh        1 637     -0.522100
     33 C33         5.1810   -0.3470   -0.1320 ca        1 637      0.100100
     34 O34         6.5360   -0.5180   -0.2840 oh        1 637     -0.492100
     35 C35        -3.0300    2.6800    1.5110 ca        1 637      0.513600
     36 N38        -4.3240    2.8520    1.8580 nb        1 637     -0.715000
     37 C39        -5.2340    1.9200    1.4440 ca        1 637      0.650900
     38 N40        -5.0360    0.8010    0.7070 nb        1 637     -0.684000
     39 H1         -4.8480   -1.4750   -0.8580 h2        1 637      0.148700
     40 H2         -2.6770   -1.2600   -2.8260 h1        1 637      0.069700
     41 HO3        -4.1110   -3.1360   -3.6160 ho        1 637      0.438000
     42 H4         -1.1720   -2.9130   -2.1390 h1        1 637      0.059700
     43 HO5        -1.9730   -5.0480   -2.5470 ho        1 637      0.425000
     44 H6         -2.8710   -4.5970   -0.3260 h1        1 637      0.094700
     45 H7         -1.9830    4.5050    1.1430 hc        1 637      0.064033
     46 H7A        -2.2300    4.1350    2.9030 hc        1 637      0.064033
     47 H7B        -0.9900    3.2110    1.9430 hc        1 637      0.064033
     48 H9         -1.0060   -0.6880   -0.9410 h5        1 637      0.071800
     49 H14        -0.2780   -3.8250   -0.1660 ha        1 637      0.146000
     50 H15        -2.0270   -2.5920    2.0990 ha        1 637      0.147000
     51 H16        -0.0760   -2.6260    3.4300 h1        1 637      0.072200
     52 H16A        0.6480   -3.9080    2.3420 h1        1 637      0.072200
     53 HN17        0.9300   -0.9660    2.0770 hn        1 637      0.321500
     54 H21         1.3620    0.3100    0.2420 ha        1 637      0.149000
     55 H23         5.3440    1.7190   -0.7310 ha        1 637      0.161000
     56 H25         4.1040    2.7970   -2.2640 ha        1 637      0.143500
     57 H26         3.1840    5.0430   -2.8280 ha        1 637      0.150000
     58 H27         1.2190    2.4210    0.9490 ha        1 637      0.143500
     59 H28         0.2920    4.6550    0.3820 ha        1 637      0.150000
     60 HO32        4.2850   -3.3000    0.5780 ho        1 637      0.466000
     61 HO34        6.7470   -1.4460   -0.0950 ho        1 637      0.442000
     62 H39        -6.2840    2.1080    1.7550 h5        1 637      0.059100
@<TRIPOS>BOND
     1    1    2 1   
     2    1   10 1   
     3    1   13 1   
     4    1   39 1   
     5    2    3 1   
     6    2    4 1   
     7    2   40 1   
     8    3   41 1   
     9    4    5 1   
    10    4    6 1   
    11    4   42 1   
    12    5   43 1   
    13    6   13 1   
    14    6   14 1   
    15    6   44 1   
    16    7   35 1   
    17    7   45 1   
    18    7   46 1   
    19    7   47 1   
    20    8    9 2   
    21    8   12 1   
    22    9   10 1   
    23    9   48 1   
    24   10   11 1   
    25   11   12 ar  
    26   11   38 ar  
    27   12   35 ar  
    28   14   15 2   
    29   14   49 1   
    30   15   16 1   
    31   15   50 1   
    32   16   17 1   
    33   16   51 1   
    34   16   52 1   
    35   17   18 1   
    36   17   53 1   
    37   18   19 2   
    38   18   20 1   
    39   20   21 ar  
    40   20   31 ar  
    41   21   22 ar  
    42   21   54 1   
    43   22   23 ar  
    44   22   24 1   
    45   23   33 ar  
    46   23   55 1   
    47   24   25 ar  
    48   24   27 ar  
    49   25   26 ar  
    50   25   56 1   
    51   26   29 ar  
    52   26   57 1   
    53   27   28 ar  
    54   27   58 1   
    55   28   29 ar  
    56   28   59 1   
    57   29   30 1   
    58   31   32 1   
    59   31   33 ar  
    60   32   60 1   
    61   33   34 1   
    62   34   61 1   
    63   35   36 ar  
    64   36   37 ar  
    65   37   38 ar  
    66   37   62 1   
@<TRIPOS>SUBSTRUCTURE
     1 637         1 TEMP              0 ****  ****    0 ROOT
