@<TRIPOS>MOLECULE
637
   63    67     1     0     0
SMALL
bcc


@<TRIPOS>ATOM
      1 C1          0.5490   -0.3340    0.2850 c3        1 637      0.237800
      2 C2          1.3760    0.7680    1.0280 c3        1 637      0.091100
      3 O3          2.5810    0.2030    1.4980 oh        1 637     -0.604800
      4 C4          0.5130    1.1280    2.2540 c3        1 637      0.120100
      5 O5          1.2250    1.3290    3.4520 oh        1 637     -0.639800
      6 C6         -0.4840   -0.0470    2.4020 c3        1 637      0.115300
      7 C7         -1.1650    1.5170   -5.3700 c3        1 637     -0.161400
      8 N8         -1.7350    0.2940   -2.5440 nc        1 637     -0.521100
      9 C9         -1.4610   -0.1100   -1.2980 cd        1 637      0.432700
     10 N10        -0.1240    0.1490   -0.8950 na        1 637     -0.312000
     11 C11         0.5090    0.7230   -2.0130 ca        1 637      0.418800
     12 C12        -0.5300    0.8230   -3.0400 ca        1 637     -0.162200
     13 O13        -0.4160   -0.8500    1.2170 os        1 637     -0.394600
     14 C14        -1.8820    0.4280    2.6070 c2        1 637     -0.098200
     15 C15        -2.3850    0.8540    3.7700 c2        1 637     -0.236200
     16 C16        -1.6570    0.8480    5.0690 c3        1 637      0.158000
     17 N17        -0.8920    2.1090    5.3240 n4        1 637     -0.665800
     18 C18        -1.7510    3.3010    5.6690 c         1 637      0.579700
     19 O19        -2.9380    3.0800    5.8810 o         1 637     -0.435100
     20 C20        -1.0880    4.6070    5.6920 ca        1 637     -0.204600
     21 C21        -1.9070    5.7260    5.4420 ca        1 637     -0.061000
     22 C22        -1.3870    7.0220    5.4610 cp        1 637      0.000000
     23 C23        -0.0250    7.2170    5.7450 ca        1 637     -0.107000
     24 C24        -2.2510    8.1680    5.1910 cp        1 637     -0.097000
     25 C25        -1.7960    9.2240    4.3890 ca        1 637     -0.083000
     26 C26        -2.6110   10.3180    4.1250 ca        1 637     -0.162500
     27 C27        -3.5440    8.2230    5.7330 ca        1 637     -0.083000
     28 C28        -4.3720    9.3100    5.4840 ca        1 637     -0.162500
     29 C29        -3.9070   10.3660    4.6740 ca        1 637      0.159900
     30 F30        -4.7060   11.4250    4.4240 f         1 637     -0.119900
     31 C31         0.2740    4.8040    5.9830 ca        1 637      0.151100
     32 O32         1.0660    3.7150    6.2470 oh        1 637     -0.542100
     33 C33         0.7930    6.1200    6.0070 ca        1 637      0.059100
     34 O34         2.1360    6.2090    6.2950 oh        1 637     -0.508100
     35 C35        -0.1520    1.3930   -4.2850 ca        1 637      0.532600
     36 N38         1.1220    1.8060   -4.4640 nb        1 637     -0.705000
     37 C39         2.0040    1.6560   -3.4320 ca        1 637      0.661900
     38 N40         1.7940    1.1400   -2.1960 nb        1 637     -0.727000
     39 H1          1.2080   -1.2160    0.0180 h2        1 637      0.115700
     40 H2          1.5730    1.6720    0.3960 h1        1 637      0.105700
     41 HO3         3.2270    0.2670    0.7810 ho        1 637      0.449000
     42 H4         -0.0280    2.0960    2.0660 h1        1 637      0.085700
     43 HO5         2.0110    0.7610    3.4540 ho        1 637      0.460000
     44 H6         -0.1630   -0.7310    3.2410 h1        1 637      0.088700
     45 H7         -0.7680    2.0660   -6.2590 hc        1 637      0.073033
     46 H7A        -2.0620    2.0580   -4.9780 hc        1 637      0.073033
     47 H7B        -1.4810    0.4920   -5.6900 hc        1 637      0.073033
     48 H9         -2.1640   -0.6030   -0.6130 h5        1 637      0.083800
     49 H14        -2.5200    0.3930    1.7030 ha        1 637      0.168000
     50 H15        -3.4330    1.1980    3.8360 ha        1 637      0.168000
     51 H16        -0.9050    0.0050    5.1070 hx        1 637      0.109200
     52 H16A       -2.3960    0.7170    5.9150 hx        1 637      0.109200
     53 HN17       -0.3190    2.3450    4.4990 hn        1 637      0.476800
     54 H21        -2.9790    5.5680    5.2290 ha        1 637      0.173000
     55 H23         0.3910    8.2380    5.7720 ha        1 637      0.170000
     56 H25        -0.7850    9.1870    3.9520 ha        1 637      0.140500
     57 H26        -2.2570   11.1460    3.4920 ha        1 637      0.164500
     58 H27        -3.9070    7.4040    6.3730 ha        1 637      0.140500
     59 H28        -5.3840    9.3580    5.9130 ha        1 637      0.164500
     60 HO32        1.9550    4.0230    6.5000 ho        1 637      0.485000
     61 HO34        2.3680    7.1460    6.3960 ho        1 637      0.456000
     62 H39         3.0400    2.0050   -3.6380 h5        1 637      0.063100
     63 H172       -0.2380    1.9570    6.1060 hn        1 637      0.476800
@<TRIPOS>BOND
     1    1    2 1   
     2    1   10 1   
     3    1   13 1   
     4    1   39 1   
     5    2    3 1   
     6    2    4 1   
     7    2   40 1   
     8    3   41 1   
     9    4    5 1   
    10    4    6 1   
    11    4   42 1   
    12    5   43 1   
    13    6   13 1   
    14    6   14 1   
    15    6   44 1   
    16    7   35 1   
    17    7   45 1   
    18    7   46 1   
    19    7   47 1   
    20    8    9 2   
    21    8   12 1   
    22    9   10 1   
    23    9   48 1   
    24   10   11 1   
    25   11   12 ar  
    26   11   38 ar  
    27   12   35 ar  
    28   14   15 2   
    29   14   49 1   
    30   15   16 1   
    31   15   50 1   
    32   16   17 1   
    33   16   51 1   
    34   16   52 1   
    35   17   18 1   
    36   17   53 1   
    37   17   63 1   
    38   18   19 2   
    39   18   20 1   
    40   20   21 ar  
    41   20   31 ar  
    42   21   22 ar  
    43   21   54 1   
    44   22   23 ar  
    45   22   24 1   
    46   23   33 ar  
    47   23   55 1   
    48   24   25 ar  
    49   24   27 ar  
    50   25   26 ar  
    51   25   56 1   
    52   26   29 ar  
    53   26   57 1   
    54   27   28 ar  
    55   27   58 1   
    56   28   29 ar  
    57   28   59 1   
    58   29   30 1   
    59   31   32 1   
    60   31   33 ar  
    61   32   60 1   
    62   33   34 1   
    63   34   61 1   
    64   35   36 ar  
    65   36   37 ar  
    66   37   38 ar  
    67   37   62 1   
@<TRIPOS>SUBSTRUCTURE
     1 637         1 TEMP              0 ****  ****    0 ROOT
