@<TRIPOS>MOLECULE
639
   47    51     1     0     0
SMALL
bcc


@<TRIPOS>ATOM
      1 CBD         0.0000    0.0000    0.0000 ca        1 639     -0.102000
      2 CBC        -5.1090    2.1640   -5.6370 c2        1 639     -0.532000
      3 NAW        -4.7160    1.6210   -3.5180 nu        1 639      0.339000
      4 CAG         2.0820    0.0000    1.1920 ca        1 639     -0.074000
      5 CAK        -5.8750    3.0720   -6.6690 ca        1 639      0.105000
      6 NAT        -2.3430    1.4070   -0.2880 n2        1 639     -0.196000
      7 CBE        -1.9000    0.6750   -1.3080 c2        1 639      0.017000
      8 CAZ        -6.6360    3.7640   -6.0380 ca        1 639     -0.070000
      9 NAS        -2.6180    0.5880   -2.4230 n2        1 639     -0.149000
     10 CBF        -3.7760    1.2350   -2.5140 c2        1 639      0.053000
     11 CAJ        -7.2000    3.5390   -4.8400 c2        1 639     -0.087000
     12 NAV        -0.6950    0.0060   -1.2070 nu        1 639      0.204000
     13 NAU        -4.2110    1.9650   -1.4910 n2        1 639     -0.276000
     14 CBB        -6.5340    2.9780   -3.8060 c2        1 639     -0.112000
     15 NAD         2.6700   -0.0210    4.6230 n1        1 639     -0.041000
     16 CBG        -3.4950    2.0480   -0.3830 c2        1 639      0.076000
     17 CBH        -5.2920    2.1660   -4.1850 c3        1 639      0.067000
     18 CCA        -5.5380    2.8790   -7.8380 ca        1 639     -0.088000
     19 CCB        -6.1560    3.6190   -8.7230 ca        1 639     -0.080000
     20 CCC        -6.7200    5.0230   -8.2750 ca        1 639     -0.014000
     21 CAA        -7.4940    4.7560   -6.9930 ca        1 639     -0.019000
     22 CCD        -7.7320    5.8640   -9.0430 c1        1 639     -0.121000
     23 CAC        -3.9640    1.0020   -6.4250 c3        1 639     -0.041000
     24 CAI         1.3910    0.0000    0.0000 ca        1 639     -0.082500
     25 CBA         1.3830   -0.0110    2.4010 ca        1 639      0.059000
     26 CAH        -0.6980   -0.0010    1.2030 ca        1 639     -0.082500
     27 CAF        -0.0150   -0.0050    2.3990 ca        1 639     -0.074000
     28 CAE         2.0980   -0.0270    3.6420 c1        1 639     -0.108000
     29 H1         -4.1470    1.9820   -4.2580 DU        1 639      0.121000
     30 H2          3.1560   -0.0610    1.0650 ha        1 639      0.118500
     31 H3         -7.8870    4.3220   -4.5450 ha        1 639      0.095000
     32 H4         -0.8250   -0.8680   -1.6790 hn        1 639      0.078000
     33 H5         -4.1140    2.3840    0.4390 h5        1 639      0.147000
     34 H6         -4.7170    2.4920   -8.4300 ha        1 639      0.141000
     35 H7         -6.2500    3.5450   -9.8000 ha        1 639      0.101000
     36 H8         -7.9970    5.5720   -6.4880 ha        1 639      0.098000
     37 H9         -7.5930    2.4720   -2.3230 hc        1 639      0.068000
     38 H10        -6.3770    3.2550   -1.6590 hc        1 639      0.068000
     39 H11        -7.3420    4.0510   -2.7040 hc        1 639      0.068000
     40 H12        -3.0150    1.4980   -6.5930 hc        1 639      0.058667
     41 H13        -3.8720    0.2750   -5.6270 hc        1 639      0.058667
     42 H14        -4.6480    0.9530   -7.2630 hc        1 639      0.058667
     43 H15         2.0200   -0.3360   -0.8160 ha        1 639      0.117000
     44 H16        -1.7300   -0.3230    1.1300 ha        1 639      0.117000
     45 H17        -0.5230   -0.5870    3.1570 ha        1 639      0.118500
     46 CAB        -6.7900    3.1210   -2.6510 c3        1 639     -0.130000
     47 NAB        -8.3600    6.5030   -9.6400 n1        1 639     -0.074000
@<TRIPOS>BOND
     1    1   12 1   
     2    1   24 1   
     3    1   26 1   
     4    2    5 1   
     5    2   17 1   
     6    2   23 1   
     7    3   10 1   
     8    3   17 1   
     9    3   29 1   
    10    4   24 1   
    11    4   25 1   
    12    4   30 1   
    13    5    8 1   
    14    5   18 1   
    15    6    7 1   
    16    6   16 1   
    17    7    9 1   
    18    7   12 1   
    19    8   11 1   
    20    8   21 1   
    21    9   10 1   
    22   10   13 1   
    23   11   14 1   
    24   11   31 1   
    25   12   32 1   
    26   13   16 1   
    27   14   17 1   
    28   14   46 1   
    29   15   28 1   
    30   16   33 1   
    31   17   29 1   
    32   18   19 1   
    33   18   34 1   
    34   19   20 1   
    35   19   35 1   
    36   20   21 1   
    37   20   22 1   
    38   21   36 1   
    39   22   47 1   
    40   23   40 1   
    41   23   41 1   
    42   23   42 1   
    43   24   43 1   
    44   25   27 1   
    45   25   28 1   
    46   26   27 1   
    47   26   44 1   
    48   27   45 1   
    49   37   46 1   
    50   38   46 1   
    51   39   46 1   
@<TRIPOS>SUBSTRUCTURE
     1 639         1 TEMP              0 ****  ****    0 ROOT
