@<TRIPOS>MOLECULE
639
   47    50     1     0     0
SMALL
bcc


@<TRIPOS>ATOM
      1 CBD        -0.2750   -0.0820    0.2050 ca        1 639      0.164600
      2 CBC        -4.8650    2.2810   -5.7390 ca        1 639     -0.071300
      3 NAW        -4.3560    0.4160   -4.2150 nh        1 639     -0.711300
      4 CAG         1.9290    0.2360    1.1890 ca        1 639     -0.076000
      5 CAK        -5.8350    3.0800   -6.4210 ca        1 639     -0.021000
      6 NAT        -2.7540    1.2590   -0.4620 nb        1 639     -0.792000
      7 CBE        -2.1650    0.3500   -1.3370 ca        1 639      0.919900
      8 CAZ        -7.2130    2.8750   -6.1640 ca        1 639     -0.033000
      9 NAS        -2.6300    0.0900   -2.6190 nb        1 639     -0.837000
     10 CBF        -3.7890    0.7620   -2.9770 ca        1 639      0.911900
     11 CAJ        -7.6090    1.8680   -5.2470 ca        1 639     -0.125000
     12 NAV        -1.0480   -0.3950   -0.9320 nh        1 639     -0.719300
     13 NAU        -4.4370    1.6940   -2.1660 nb        1 639     -0.779000
     14 CBB        -6.6840    1.0800   -4.6030 ca        1 639     -0.029300
     15 NAD         2.8330    0.8400    4.5200 n1        1 639     -0.362800
     16 CBG        -3.8570    1.8700   -0.9560 ca        1 639      0.701900
     17 CBH        -5.2830    1.2880   -4.8540 ca        1 639      0.128600
     18 CCA        -5.4630    4.0860   -7.3580 ca        1 639     -0.118000
     19 CCB        -6.4090    4.8490   -7.9940 ca        1 639     -0.102000
     20 CCC        -7.7900    4.6440   -7.7260 ca        1 639     -0.012000
     21 CAA        -8.1830    3.6730   -6.8270 ca        1 639     -0.071000
     22 CCD        -8.7530    5.4470   -8.3960 cg        1 639      0.232800
     23 CAC        -3.4310    2.5480   -6.0160 c3        1 639     -0.064800
     24 CAI         1.1320    0.0040    0.0760 ca        1 639     -0.146000
     25 CBA         1.3470    0.3940    2.4540 ca        1 639     -0.032000
     26 CAH        -0.8510    0.0640    1.4840 ca        1 639     -0.146000
     27 CAF        -0.0440    0.3060    2.5910 ca        1 639     -0.076000
     28 CAE         2.1640    0.6390    3.5900 cg        1 639      0.234800
     29 H1         -3.7500   -0.0730   -4.8450 hn        1 639      0.443800
     30 H2          3.0230    0.3010    1.0750 ha        1 639      0.148500
     31 H3         -8.6850    1.7240   -5.0590 ha        1 639      0.141000
     32 H4         -0.5590   -0.8740   -1.6610 hn        1 639      0.451800
     33 H5         -4.3450    2.6110   -0.2840 h5        1 639      0.061100
     34 H6         -4.3970    4.2510   -7.5760 ha        1 639      0.140000
     35 H7         -6.1140    5.6250   -8.7160 ha        1 639      0.146000
     36 H8         -9.2490    3.5010   -6.6100 ha        1 639      0.147000
     37 H9         -6.7490   -0.9760   -3.9860 hc        1 639      0.053367
     38 H10        -6.7630    0.2320   -2.6340 hc        1 639      0.053367
     39 H11        -8.2540   -0.0290   -3.6310 hc        1 639      0.053367
     40 H12        -3.2070    3.6330   -5.8490 hc        1 639      0.051033
     41 H13        -2.7370    1.9660   -5.3640 hc        1 639      0.051033
     42 H14        -3.1950    2.2980   -7.0820 hc        1 639      0.051033
     43 H15         1.6110   -0.1150   -0.9090 ha        1 639      0.152000
     44 H16        -1.9410   -0.0120    1.6250 ha        1 639      0.152000
     45 H17        -0.5070    0.4240    3.5840 ha        1 639      0.148500
     46 CAB        -7.1380    0.0230   -3.6670 c3        1 639     -0.053800
     47 NAB        -9.5380    6.1070   -8.9450 n1        1 639     -0.360800
@<TRIPOS>BOND
     1    1   12 1   
     2    1   24 ar  
     3    1   26 ar  
     4    2    5 ar  
     5    2   17 ar  
     6    2   23 1   
     7    3   10 1   
     8    3   17 1   
     9    3   29 1   
    10    4   24 ar  
    11    4   25 ar  
    12    4   30 1   
    13    5    8 ar  
    14    5   18 ar  
    15    6    7 ar  
    16    6   16 ar  
    17    7    9 ar  
    18    7   12 1   
    19    8   11 ar  
    20    8   21 ar  
    21    9   10 ar  
    22   10   13 ar  
    23   11   14 ar  
    24   11   31 1   
    25   12   32 1   
    26   13   16 ar  
    27   14   17 ar  
    28   14   46 1   
    29   15   28 3   
    30   16   33 1   
    31   18   19 ar  
    32   18   34 1   
    33   19   20 ar  
    34   19   35 1   
    35   20   21 ar  
    36   20   22 1   
    37   21   36 1   
    38   22   47 3   
    39   23   40 1   
    40   23   41 1   
    41   23   42 1   
    42   24   43 1   
    43   25   27 ar  
    44   25   28 1   
    45   26   27 ar  
    46   26   44 1   
    47   27   45 1   
    48   37   46 1   
    49   38   46 1   
    50   39   46 1   
@<TRIPOS>SUBSTRUCTURE
     1 639         1 TEMP              0 ****  ****    0 ROOT
