@<TRIPOS>MOLECULE
63C
   62    65     1     0     0
SMALL
bcc


@<TRIPOS>ATOM
      1 C2         -0.9090   -0.8930   -0.7240 c3        1 63C     -0.157700
      2 C3         -2.1070   -0.5560    0.1710 c3        1 63C     -0.163700
      3 N4         -2.2000   -2.9570   -0.3400 n3        1 63C     -0.711600
      4 C5          0.4200   -0.6010   -0.0330 c         1 63C      0.675100
      5 N6          6.9810    0.1540    0.5130 n         1 63C     -0.258200
      6 C7         -2.8950    0.6450   -0.3420 c         1 63C      0.678100
      7 C8         -2.9810   -1.8310    0.1770 c3        1 63C      0.148800
      8 C9         -1.0400   -2.4030   -1.0410 c3        1 63C      0.159800
      9 C10         7.9160    0.7020   -0.4110 c         1 63C      0.690700
     10 C11         5.6130   -0.0290    0.1640 ca        1 63C      0.031600
     11 N12         1.5330   -0.6260   -0.8610 n         1 63C     -0.464100
     12 C13         5.2570   -0.5540   -1.0900 ca        1 63C     -0.117000
     13 N14        -3.9770    1.0110    0.4450 n         1 63C     -0.466100
     14 C15         2.8690   -0.4180   -0.4890 ca        1 63C      0.037600
     15 C16         3.9080   -0.7480   -1.4140 ca        1 63C      0.079900
     16 C19         7.3900   -0.1850    1.7940 cc        1 63C      0.013600
     17 O20         0.4920   -0.3710    1.1870 o         1 63C     -0.592100
     18 O21        -2.5780    1.2400   -1.3870 o         1 63C     -0.589100
     19 C22         9.2810    0.9060    0.0810 cc        1 63C     -0.253200
     20 O23         7.5570    0.9780   -1.5710 o         1 63C     -0.627500
     21 C24         4.5910    0.3140    1.0730 ca        1 63C     -0.134000
     22 C25         3.2540    0.1200    0.7540 ca        1 63C     -0.125000
     23 C26         8.6750    0.0010    2.2300 cd        1 63C     -0.245000
     24 C27         9.6410    0.5700    1.3450 cd        1 63C     -0.039000
     25 C28        -4.8660    2.0790    0.2390 ca        1 63C      0.069600
     26 F30         3.5980   -1.2550   -2.6350 f         1 63C     -0.142900
     27 C31        -6.7140    4.1740   -0.0640 ca        1 63C     -0.010600
     28 C33        -5.9040    2.2750    1.1850 ca        1 63C     -0.162000
     29 C34        -4.7790    2.9600   -0.8590 ca        1 63C     -0.162000
     30 C35        -5.6970    3.9950   -1.0040 ca        1 63C     -0.097500
     31 C36        -6.8150    3.3120    1.0310 ca        1 63C     -0.097500
     32 C1         -1.8490   -3.9360    0.6770 c3        1 63C      0.075800
     33 CL         -7.8320    5.4410   -0.2490 cl        1 63C     -0.093400
     34 C40        -3.0850   -4.6640    1.2280 c         1 63C      0.653100
     35 O41        -3.3370   -4.6230    2.4490 o         1 63C     -0.612100
     36 N42        -3.8440   -5.3870    0.3390 n         1 63C     -0.558900
     37 C43        -5.0350   -6.0750    0.7250 c3        1 63C      0.074300
     38 H2         -0.9720   -0.2980   -1.6790 hc        1 63C      0.117700
     39 H3         -1.7490   -0.3310    1.2170 hc        1 63C      0.114700
     40 H91C       -1.2370   -2.5320   -2.1410 h1        1 63C      0.064200
     41 H92C       -0.0930   -2.9530   -0.7900 h1        1 63C      0.064200
     42 H81C       -3.3700   -2.0340    1.2120 h1        1 63C      0.069700
     43 H82C       -3.8590   -1.7040   -0.5150 h1        1 63C      0.069700
     44 H11C       -1.1640   -4.7020    0.2140 h1        1 63C      0.070700
     45 H12C       -1.3180   -3.4820    1.5650 h1        1 63C      0.070700
     46 H12         1.3850   -0.8290   -1.8270 hn        1 63C      0.331500
     47 H19         6.6160   -0.6300    2.4470 h4        1 63C      0.159000
     48 H14        -4.1400    0.4700    1.2660 hn        1 63C      0.321500
     49 H22         9.9760    1.3470   -0.6480 ha        1 63C      0.165000
     50 H13         6.0250   -0.7960   -1.8450 ha        1 63C      0.181000
     51 H24         4.8390    0.7540    2.0520 ha        1 63C      0.146000
     52 H25         2.4870    0.4010    1.4970 ha        1 63C      0.181000
     53 H26         8.9640   -0.2860    3.2480 ha        1 63C      0.153000
     54 H27        10.6680    0.7250    1.7100 ha        1 63C      0.142000
     55 H33        -6.0020    1.6090    2.0560 ha        1 63C      0.156500
     56 H34        -3.9860    2.8430   -1.6160 ha        1 63C      0.156500
     57 H35        -5.6130    4.6740   -1.8670 ha        1 63C      0.149500
     58 H36        -7.6140    3.4490    1.7760 ha        1 63C      0.149500
     59 H42        -3.6650   -5.2870   -0.6320 hn        1 63C      0.320500
     60 H50        -5.0320   -7.1050    0.2760 h1        1 63C      0.045367
     61 H51        -5.0880   -6.1600    1.8430 h1        1 63C      0.045367
     62 H52        -5.9480   -5.5290    0.3600 h1        1 63C      0.045367
@<TRIPOS>BOND
     1    1    2 1   
     2    1    4 1   
     3    1    8 1   
     4    1   38 1   
     5    2    6 1   
     6    2    7 1   
     7    2   39 1   
     8    3    7 1   
     9    3    8 1   
    10    3   32 1   
    11    4   11 1   
    12    4   17 2   
    13    5    9 1   
    14    5   10 1   
    15    5   16 1   
    16    6   13 1   
    17    6   18 2   
    18    7   42 1   
    19    7   43 1   
    20    8   40 1   
    21    8   41 1   
    22    9   19 1   
    23    9   20 2   
    24   10   12 ar  
    25   10   21 ar  
    26   11   14 1   
    27   11   46 1   
    28   12   15 ar  
    29   12   50 1   
    30   13   25 1   
    31   13   48 1   
    32   14   15 ar  
    33   14   22 ar  
    34   15   26 1   
    35   16   23 2   
    36   16   47 1   
    37   19   24 2   
    38   19   49 1   
    39   21   22 ar  
    40   21   51 1   
    41   22   52 1   
    42   23   24 1   
    43   23   53 1   
    44   24   54 1   
    45   25   28 ar  
    46   25   29 ar  
    47   27   30 ar  
    48   27   31 ar  
    49   27   33 1   
    50   28   31 ar  
    51   28   55 1   
    52   29   30 ar  
    53   29   56 1   
    54   30   57 1   
    55   31   58 1   
    56   32   34 1   
    57   32   44 1   
    58   32   45 1   
    59   34   35 2   
    60   34   36 1   
    61   36   37 1   
    62   36   59 1   
    63   37   60 1   
    64   37   61 1   
    65   37   62 1   
@<TRIPOS>SUBSTRUCTURE
     1 63C         1 TEMP              0 ****  ****    0 ROOT
