@<TRIPOS>MOLECULE
63C
   62    61     1     0     0
SMALL
bcc


@<TRIPOS>ATOM
      1 C2          0.2220    0.8830    1.3620 c3        1 63C     -0.141000
      2 C3          1.8210    0.8980    1.3860 c3        1 63C     -0.141000
      3 N4          1.0990    1.1170    3.4750 n3        1 63C     -0.247000
      4 C5         -0.2840   -0.2080    0.2940 c2        1 63C      0.317000
      5 N6         -3.7800   -3.8580   -3.9160 n         1 63C     -0.201000
      6 C7          2.2930    2.0630    0.6920 c2        1 63C      0.316000
      7 C8          2.1450    0.8870    2.8940 c3        1 63C     -0.085000
      8 C9         -0.0650    0.6000    2.5730 c3        1 63C     -0.074000
      9 C10        -5.2490   -3.9030   -4.0490 c2        1 63C      0.331000
     10 C11        -3.1530   -2.8660   -3.0290 c2        1 63C      0.065000
     11 N12        -1.4620    0.0310   -0.4520 n         1 63C     -0.328000
     12 C13        -2.8910   -3.1880   -1.6910 c2        1 63C     -0.178000
     13 N14         3.2640    1.9280   -0.3380 n         1 63C     -0.323000
     14 C15        -1.9630   -0.9780   -1.3420 c2        1 63C      0.017000
     15 C16        -2.2960   -2.2420   -0.8480 c2        1 63C      0.112000
     16 C19        -2.9430   -4.7880   -4.6850 c2        1 63C      0.009000
     17 O20         0.2980   -1.2560    0.1820 o         1 63C     -0.358000
     18 O21         1.9670    3.1680    1.0760 o         1 63C     -0.349000
     19 C22        -5.8960   -4.8650   -5.0370 c2        1 63C     -0.233000
     20 O23        -5.9460   -3.2450   -3.3010 o         1 63C     -0.354000
     21 C24        -2.8200   -1.6020   -3.5210 c1        1 63C     -0.108000
     22 C25        -2.2260   -0.6590   -2.6820 c1        1 63C     -0.123000
     23 C26        -3.5890   -5.7560   -5.6750 c1        1 63C     -0.241000
     24 C27        -5.0620   -5.8010   -5.8070 c1        1 63C     -0.037000
     25 C28         3.8670    3.1240   -0.9320 c2        1 63C      0.079000
     26 F30        -2.1200   -3.0040    0.2630 f         1 63C     -0.087000
     27 C31         5.0810    4.7430   -2.8450 c1        1 63C     -0.091000
     28 C33         4.3260    2.5670   -2.1220 c2        1 63C     -0.174000
     29 C34         4.0150    4.4900   -0.6990 c1        1 63C     -0.153000
     30 C35         4.6210    5.2980   -1.6550 c1        1 63C     -0.099000
     31 C36         4.9330    3.3730   -3.0790 c1        1 63C     -0.099000
     32 C1          1.0800    0.4130    4.7350 c3        1 63C     -0.105000
     33 CL          5.9260    5.7310   -3.9890 cl        1 63C     -0.019000
     34 C40         0.8520    1.4010    5.8620 c2        1 63C      0.297000
     35 O41         0.9570    2.5940    5.6540 o         1 63C     -0.372000
     36 N42         0.4590    0.9300    7.1620 n         1 63C     -0.367000
     37 C43        -0.0700    1.8620    8.1440 c3        1 63C     -0.081000
     38 H2         -0.2400    1.6750    1.0640 hc        1 63C      0.134000
     39 H3          2.3020    0.1800    0.9120 hc        1 63C      0.140000
     40 H91C       -0.9140    1.0500    2.8310 h1        1 63C      0.095500
     41 H92C       -0.1580   -0.3560    2.6730 h1        1 63C      0.095500
     42 H81C        2.4860    0.0100    3.1570 h1        1 63C      0.121000
     43 H82C        2.8090    1.5850    3.1040 h1        1 63C      0.121000
     44 H11C        0.3520   -0.2510    4.7280 h1        1 63C      0.107500
     45 H12C        1.9520   -0.0510    4.8700 h1        1 63C      0.107500
     46 H12        -1.8510    0.8460   -0.4310 hn        1 63C      0.240000
     47 H19        -1.9590   -4.7570   -4.5960 h4        1 63C      0.161000
     48 H14         3.4390    1.0940   -0.7010 hn        1 63C      0.258000
     49 H22        -6.8830   -4.8940   -5.1250 ha        1 63C      0.166000
     50 H13        -3.1270   -4.0770   -1.3450 ha        1 63C      0.159000
     51 H24        -3.0060   -1.3750   -4.4670 ha        1 63C      0.172000
     52 H25        -1.9920    0.2290   -3.0300 ha        1 63C      0.146000
     53 H26        -3.0370   -6.3720   -6.1820 ha        1 63C      0.155000
     54 H27        -5.4850   -6.4290   -6.4510 ha        1 63C      0.144000
     55 H33         4.2230    1.6130   -2.2840 ha        1 63C      0.141000
     56 H34         3.6890    4.8830    0.1430 ha        1 63C      0.176000
     57 H35         4.7270    6.2780   -1.4870 ha        1 63C      0.149000
     58 H36         5.2610    2.9740   -3.9310 ha        1 63C      0.147000
     59 H42         0.5820    0.0450    7.3870 hn        1 63C      0.236000
     60 H50        -0.8950    2.2900    7.7840 h1        1 63C      0.084333
     61 H51         0.6060    2.5580    8.3370 h1        1 63C      0.084333
     62 H52        -0.2910    1.3710    8.9820 h1        1 63C      0.084333
@<TRIPOS>BOND
     1    1    2 1   
     2    1    4 1   
     3    1    8 1   
     4    1   38 1   
     5    2    6 1   
     6    2    7 1   
     7    2   39 1   
     8    3    7 1   
     9    3    8 1   
    10    3   32 1   
    11    4   11 1   
    12    4   17 1   
    13    5    9 1   
    14    5   10 1   
    15    5   16 1   
    16    6   13 1   
    17    6   18 1   
    18    7   42 1   
    19    7   43 1   
    20    8   40 1   
    21    8   41 1   
    22    9   19 1   
    23    9   20 1   
    24   10   12 1   
    25   10   21 1   
    26   11   14 1   
    27   11   46 1   
    28   12   15 1   
    29   12   50 1   
    30   13   25 1   
    31   13   48 1   
    32   14   15 1   
    33   14   22 1   
    34   15   26 1   
    35   16   23 1   
    36   16   47 1   
    37   19   24 1   
    38   19   49 1   
    39   21   51 1   
    40   22   52 1   
    41   23   53 1   
    42   24   54 1   
    43   25   28 1   
    44   25   29 1   
    45   27   30 1   
    46   27   33 1   
    47   28   31 1   
    48   28   55 1   
    49   29   56 1   
    50   30   57 1   
    51   31   58 1   
    52   32   34 1   
    53   32   44 1   
    54   32   45 1   
    55   34   35 1   
    56   34   36 1   
    57   36   37 1   
    58   36   59 1   
    59   37   60 1   
    60   37   61 1   
    61   37   62 1   
@<TRIPOS>SUBSTRUCTURE
     1 63C         1 TEMP              0 ****  ****    0 ROOT
