@<TRIPOS>MOLECULE
63C
   63    66     1     0     0
SMALL
bcc


@<TRIPOS>ATOM
      1 C2          0.2480    0.4450    0.5880 c3        1 63C     -0.159700
      2 C3          1.7360    0.4150    0.1950 c3        1 63C     -0.159700
      3 N4          1.4950   -0.4860    2.4710 n3        1 63C     -0.761600
      4 C5         -0.5050   -0.6800   -0.1260 c         1 63C      0.667100
      5 N6         -3.1840   -4.0570   -5.1240 n         1 63C     -0.269200
      6 C7          2.2140    1.8360   -0.1240 c         1 63C      0.661100
      7 C8          2.4790   -0.1390    1.4370 c3        1 63C      0.161800
      8 C9          0.2460    0.1970    2.1120 c3        1 63C      0.160800
      9 C10        -2.4620   -4.4650   -6.2840 c         1 63C      0.693700
     10 C11        -2.6200   -3.1450   -4.1920 ca        1 63C      0.064600
     11 N12        -0.9140   -0.4180   -1.4130 n         1 63C     -0.445100
     12 C13        -1.9140   -2.0120   -4.6380 ca        1 63C     -0.121000
     13 N14         2.1480    2.2120   -1.4500 n         1 63C     -0.454100
     14 C15        -1.4860   -1.3440   -2.3080 ca        1 63C     -0.003400
     15 C16        -1.3500   -1.1260   -3.7130 ca        1 63C      0.099900
     16 C19        -4.4500   -4.5730   -4.8770 cc        1 63C      0.002600
     17 O20        -0.7110   -1.7630    0.4610 o         1 63C     -0.625100
     18 O21         2.5840    2.5880    0.7960 o         1 63C     -0.586100
     19 C22        -3.1150   -5.4500   -7.1500 cc        1 63C     -0.245200
     20 O23        -1.3350   -3.9860   -6.5100 o         1 63C     -0.627500
     21 C24        -2.7520   -3.3620   -2.8050 ca        1 63C     -0.142000
     22 C25        -2.2040   -2.4770   -1.8860 ca        1 63C     -0.106000
     23 C26        -5.0440   -5.4840   -5.7050 cd        1 63C     -0.227000
     24 C27        -4.3490   -5.9360   -6.8710 cd        1 63C     -0.036000
     25 C28         2.5680    3.4460   -1.9930 ca        1 63C      0.036600
     26 F30        -0.6720   -0.0420   -4.1700 f         1 63C     -0.142900
     27 C31         3.3410    5.8640   -3.1910 ca        1 63C      0.005400
     28 C33         2.7700    3.5260   -3.3920 ca        1 63C     -0.148000
     29 C34         2.7610    4.6010   -1.2100 ca        1 63C     -0.148000
     30 C35         3.1470    5.7970   -1.8090 ca        1 63C     -0.099500
     31 C36         3.1510    4.7250   -3.9810 ca        1 63C     -0.099500
     32 C1          1.3530   -1.9000    2.7310 c3        1 63C      0.085800
     33 CL          3.8090    7.3250   -3.9130 cl        1 63C     -0.068400
     34 C40         1.4580   -2.2570    4.2100 c         1 63C      0.531100
     35 O41         1.2370   -3.3520    4.6990 o         1 63C     -0.411100
     36 N42         1.8910   -1.1600    5.1670 n4        1 63C     -0.662800
     37 C43         2.0610   -1.6180    6.5610 c3        1 63C      0.078100
     38 H2         -0.2210    1.4400    0.3690 hc        1 63C      0.109700
     39 H3          1.9120   -0.2730   -0.6740 hc        1 63C      0.089700
     40 H91C       -0.6640   -0.3810    2.4260 h1        1 63C      0.082700
     41 H92C        0.2570    1.1900    2.6420 h1        1 63C      0.082700
     42 H81C        3.1410    0.6600    1.8790 h1        1 63C      0.084700
     43 H82C        3.1190   -1.0130    1.1420 h1        1 63C      0.084700
     44 H11C        0.3530   -2.3200    2.3810 h1        1 63C      0.135700
     45 H12C        2.1590   -2.5170    2.2290 h1        1 63C      0.135700
     46 H12        -0.7040    0.4770   -1.8020 hn        1 63C      0.332500
     47 H19        -4.9610   -4.1900   -3.9730 h4        1 63C      0.157000
     48 H14         1.9450    1.5040   -2.1220 hn        1 63C      0.320500
     49 H22        -2.5300   -5.7530   -8.0300 ha        1 63C      0.172000
     50 H13        -1.7660   -1.8220   -5.7160 ha        1 63C      0.191000
     51 H24        -3.2870   -4.2490   -2.4260 ha        1 63C      0.152000
     52 H25        -2.3230   -2.6830   -0.8090 ha        1 63C      0.170000
     53 H26        -6.0500   -5.8650   -5.4850 ha        1 63C      0.159000
     54 H27        -4.8380   -6.6750   -7.5260 ha        1 63C      0.151000
     55 H33         2.6270    2.6430   -4.0350 ha        1 63C      0.154500
     56 H34         2.6190    4.5750   -0.1170 ha        1 63C      0.154500
     57 H35         3.2970    6.6910   -1.1830 ha        1 63C      0.158000
     58 H36         3.3040    4.7730   -5.0710 ha        1 63C      0.158000
     59 H42         1.1850   -0.4140    5.1290 hn        1 63C      0.467800
     60 H50         2.8440   -2.4240    6.5990 hx        1 63C      0.111033
     61 H51         1.0910   -2.0430    6.9380 hx        1 63C      0.111033
     62 H52         2.3730   -0.7500    7.2010 hx        1 63C      0.111033
     63 H422        2.7740   -0.7660    4.8180 hn        1 63C      0.467800
@<TRIPOS>BOND
     1    1    2 1   
     2    1    4 1   
     3    1    8 1   
     4    1   38 1   
     5    2    6 1   
     6    2    7 1   
     7    2   39 1   
     8    3    7 1   
     9    3    8 1   
    10    3   32 1   
    11    4   11 1   
    12    4   17 2   
    13    5    9 1   
    14    5   10 1   
    15    5   16 1   
    16    6   13 1   
    17    6   18 2   
    18    7   42 1   
    19    7   43 1   
    20    8   40 1   
    21    8   41 1   
    22    9   19 1   
    23    9   20 2   
    24   10   12 ar  
    25   10   21 ar  
    26   11   14 1   
    27   11   46 1   
    28   12   15 ar  
    29   12   50 1   
    30   13   25 1   
    31   13   48 1   
    32   14   15 ar  
    33   14   22 ar  
    34   15   26 1   
    35   16   23 2   
    36   16   47 1   
    37   19   24 2   
    38   19   49 1   
    39   21   22 ar  
    40   21   51 1   
    41   22   52 1   
    42   23   24 1   
    43   23   53 1   
    44   24   54 1   
    45   25   28 ar  
    46   25   29 ar  
    47   27   30 ar  
    48   27   31 ar  
    49   27   33 1   
    50   28   31 ar  
    51   28   55 1   
    52   29   30 ar  
    53   29   56 1   
    54   30   57 1   
    55   31   58 1   
    56   32   34 1   
    57   32   44 1   
    58   32   45 1   
    59   34   35 2   
    60   34   36 1   
    61   36   37 1   
    62   36   59 1   
    63   36   63 1   
    64   37   60 1   
    65   37   61 1   
    66   37   62 1   
@<TRIPOS>SUBSTRUCTURE
     1 63C         1 TEMP              0 ****  ****    0 ROOT
