@<TRIPOS>MOLECULE
63C
   65    68     1     0     0
SMALL
bcc


@<TRIPOS>ATOM
      1 C2         -0.0480    0.9860   -1.0440 c3        1 63C     -0.156700
      2 C3          1.4940    1.0930   -0.9590 c3        1 63C     -0.133700
      3 N4          0.6040    0.4290    1.2130 n3        1 63C     -0.747600
      4 C5         -0.4920    0.2860   -2.3080 c         1 63C      0.523100
      5 N6         -3.7910   -4.7970   -4.7670 n         1 63C     -0.275200
      6 C7          1.9500    2.5010   -1.2700 c         1 63C      0.538100
      7 C8          1.8490    0.7130    0.5030 c3        1 63C      0.170800
      8 C9         -0.4750    0.2460    0.2470 c3        1 63C      0.171800
      9 C10        -4.6680   -4.7630   -5.9150 c         1 63C      0.703700
     10 C11        -3.2800   -3.6240   -4.2090 ca        1 63C      0.189600
     11 N12        -1.9780    0.0900   -2.4760 n4        1 63C     -0.496200
     12 C13        -3.0490   -3.5190   -2.8090 ca        1 63C     -0.194000
     13 N14         3.2690    2.6790   -1.9760 n4        1 63C     -0.523200
     14 C15        -2.3490   -1.1900   -3.0690 ca        1 63C     -0.188400
     15 C16        -2.5870   -2.3290   -2.2510 ca        1 63C      0.179900
     16 C19        -3.5120   -6.0340   -4.1610 cc        1 63C     -0.055400
     17 O20         0.2500   -0.0730   -3.2090 o         1 63C     -0.385100
     18 O21         1.3290    3.5230   -1.0160 o         1 63C     -0.388100
     19 C22        -5.2200   -6.0440   -6.3660 cc        1 63C     -0.214200
     20 O23        -4.9230   -3.6700   -6.4410 o         1 63C     -0.590500
     21 C24        -2.9820   -2.4870   -5.0170 ca        1 63C     -0.127000
     22 C25        -2.5360   -1.3050   -4.4620 ca        1 63C     -0.036000
     23 C26        -4.0430   -7.2040   -4.6110 cd        1 63C     -0.149000
     24 C27        -4.9290   -7.2080   -5.7420 cd        1 63C     -0.033000
     25 C28         4.3880    2.8790   -1.0460 ca        1 63C     -0.110400
     26 F30        -2.3860   -2.2380   -0.9110 f         1 63C     -0.153900
     27 C31         6.6010    3.3560    0.5830 ca        1 63C      0.074400
     28 C33         5.4370    1.9410   -1.0070 ca        1 63C     -0.088500
     29 C34         4.4430    4.0550   -0.2730 ca        1 63C     -0.088500
     30 C35         5.5480    4.2840    0.5380 ca        1 63C     -0.105500
     31 C36         6.5350    2.1850   -0.1920 ca        1 63C     -0.105500
     32 C1          0.6720   -0.5430    2.2770 c3        1 63C      0.126800
     33 CL          7.9390    3.6480    1.5510 cl        1 63C      0.040600
     34 C40         1.2570    0.0990    3.5420 c         1 63C      0.524100
     35 O41         2.1900    0.8820    3.5870 o         1 63C     -0.382100
     36 N42         0.6320   -0.3170    4.8510 n4        1 63C     -0.665800
     37 C43         1.5080   -0.0680    6.0260 c3        1 63C      0.077100
     38 H2         -0.5040    2.0220   -1.0360 hc        1 63C      0.141700
     39 H3          1.9710    0.3530   -1.6620 hc        1 63C      0.123700
     40 H91C       -0.6870   -0.8410    0.0290 h1        1 63C      0.084700
     41 H92C       -1.4050    0.7150    0.6770 h1        1 63C      0.084700
     42 H81C        2.3550    1.5640    1.0430 h1        1 63C      0.093700
     43 H82C        2.5540   -0.1670    0.4930 h1        1 63C      0.093700
     44 H11C        1.3530   -1.4210    2.0470 h1        1 63C      0.103700
     45 H12C       -0.3650   -0.9400    2.4780 h1        1 63C      0.103700
     46 H12        -2.3340    0.8380   -3.0950 hn        1 63C      0.475300
     47 H19        -2.8010   -6.0150   -3.3170 h4        1 63C      0.155000
     48 H14         3.4670    1.8670   -2.5750 hn        1 63C      0.478300
     49 H22        -5.8830   -5.9720   -7.2450 ha        1 63C      0.198000
     50 H13        -3.2680   -4.3620   -2.1300 ha        1 63C      0.191000
     51 H24        -3.1250   -2.5330   -6.1170 ha        1 63C      0.220000
     52 H25        -2.3310   -0.4500   -5.1310 ha        1 63C      0.167000
     53 H26        -3.7880   -8.1570   -4.1220 ha        1 63C      0.180000
     54 H27        -5.3510   -8.1690   -6.0830 ha        1 63C      0.181000
     55 H33         5.4240    1.0300   -1.6270 ha        1 63C      0.164500
     56 H34         3.6330    4.8050   -0.3100 ha        1 63C      0.164500
     57 H35         5.6010    5.2140    1.1350 ha        1 63C      0.197000
     58 H36         7.3710    1.4610   -0.1710 ha        1 63C      0.197000
     59 H42        -0.2430    0.2140    4.9700 hn        1 63C      0.470800
     60 H50         0.9540   -0.3610    6.9610 hx        1 63C      0.127700
     61 H51         2.4470   -0.6780    5.9320 hx        1 63C      0.127700
     62 H52         1.7790    1.0230    6.0710 hx        1 63C      0.127700
     63 H122       -2.4370    0.1690   -1.5590 hn        1 63C      0.475300
     64 H142        3.2090    3.5250   -2.5710 hn        1 63C      0.478300
     65 H422        0.3960   -1.3170    4.8110 hn        1 63C      0.470800
@<TRIPOS>BOND
     1    1    2 1   
     2    1    4 1   
     3    1    8 1   
     4    1   38 1   
     5    2    6 1   
     6    2    7 1   
     7    2   39 1   
     8    3    7 1   
     9    3    8 1   
    10    3   32 1   
    11    4   11 1   
    12    4   17 2   
    13    5    9 1   
    14    5   10 1   
    15    5   16 1   
    16    6   13 1   
    17    6   18 2   
    18    7   42 1   
    19    7   43 1   
    20    8   40 1   
    21    8   41 1   
    22    9   19 1   
    23    9   20 2   
    24   10   12 ar  
    25   10   21 ar  
    26   11   14 1   
    27   11   46 1   
    28   11   63 1   
    29   12   15 ar  
    30   12   50 1   
    31   13   25 1   
    32   13   48 1   
    33   13   64 1   
    34   14   15 ar  
    35   14   22 ar  
    36   15   26 1   
    37   16   23 2   
    38   16   47 1   
    39   19   24 2   
    40   19   49 1   
    41   21   22 ar  
    42   21   51 1   
    43   22   52 1   
    44   23   24 1   
    45   23   53 1   
    46   24   54 1   
    47   25   28 ar  
    48   25   29 ar  
    49   27   30 ar  
    50   27   31 ar  
    51   27   33 1   
    52   28   31 ar  
    53   28   55 1   
    54   29   30 ar  
    55   29   56 1   
    56   30   57 1   
    57   31   58 1   
    58   32   34 1   
    59   32   44 1   
    60   32   45 1   
    61   34   35 2   
    62   34   36 1   
    63   36   37 1   
    64   36   59 1   
    65   36   65 1   
    66   37   60 1   
    67   37   61 1   
    68   37   62 1   
@<TRIPOS>SUBSTRUCTURE
     1 63C         1 TEMP              0 ****  ****    0 ROOT
