@<TRIPOS>MOLECULE
63C
   63    66     1     0     0
SMALL
bcc


@<TRIPOS>ATOM
      1 C2          0.2500    0.4640    0.5770 c3        1 63C     -0.159700
      2 C3          1.7420    0.4030    0.2010 c3        1 63C     -0.159700
      3 N4          1.4610   -0.4630    2.4860 n3        1 63C     -0.761600
      4 C5         -0.5150   -0.6560   -0.1300 c         1 63C      0.667100
      5 N6         -3.1970   -4.0490   -5.1150 n         1 63C     -0.269200
      6 C7          2.2480    1.8100   -0.1340 c         1 63C      0.661100
      7 C8          2.4620   -0.1460    1.4590 c3        1 63C      0.161800
      8 C9          0.2280    0.2360    2.1050 c3        1 63C      0.160800
      9 C10        -2.4680   -4.4860   -6.2610 c         1 63C      0.693700
     10 C11        -2.6280   -3.1360   -4.1880 ca        1 63C      0.064600
     11 N12        -0.9050   -0.4030   -1.4250 ns        1 63C     -0.445100
     12 C13        -1.8950   -2.0220   -4.6410 ca        1 63C     -0.121000
     13 N14         2.1950    2.1700   -1.4650 ns        1 63C     -0.454100
     14 C15        -1.4830   -1.3300   -2.3150 ca        1 63C     -0.003400
     15 C16        -1.3260   -1.1340   -3.7200 ca        1 63C      0.099900
     16 C19        -4.4760   -4.5380   -4.8770 cc        1 63C      0.002600
     17 O20        -0.7470   -1.7280    0.4680 o         1 63C     -0.625100
     18 O21         2.6280    2.5670    0.7790 o         1 63C     -0.586100
     19 C22        -3.1300   -5.4710   -7.1220 cc        1 63C     -0.245200
     20 O23        -1.3310   -4.0310   -6.4790 o         1 63C     -0.627500
     21 C24        -2.7800   -3.3320   -2.8000 ca        1 63C     -0.142000
     22 C25        -2.2260   -2.4440   -1.8870 ca        1 63C     -0.106000
     23 C26        -5.0760   -5.4500   -5.7000 cd        1 63C     -0.227000
     24 C27        -4.3760   -5.9300   -6.8510 cd        1 63C     -0.036000
     25 C28         2.6410    3.3880   -2.0220 ca        1 63C      0.036600
     26 F30        -0.6230   -0.0690   -4.1830 f         1 63C     -0.142900
     27 C31         3.4660    5.7750   -3.2480 ca        1 63C      0.005400
     28 C33         2.8520    3.4460   -3.4210 ca        1 63C     -0.148000
     29 C34         2.8520    4.5500   -1.2530 ca        1 63C     -0.148000
     30 C35         3.2620    5.7300   -1.8670 ca        1 63C     -0.099500
     31 C36         3.2590    4.6290   -4.0230 ca        1 63C     -0.099500
     32 C1          1.2920   -1.8710    2.7620 c3        1 63C      0.084800
     33 Cl          3.9640    7.2180   -3.9860 cl        1 63C     -0.068400
     34 C40         1.3750   -2.2110    4.2460 c         1 63C      0.531100
     35 O41         1.1300   -3.2960    4.7450 o         1 63C     -0.411100
     36 N42         1.8170   -1.1110    5.1940 ny        1 63C     -0.662800
     37 C43         1.9640   -1.5550    6.5960 c3        1 63C      0.078100
     38 H2         -0.1980    1.4650    0.3420 hc        1 63C      0.109700
     39 H3          1.9150   -0.3000   -0.6560 hc        1 63C      0.089700
     40 H91C        0.2500    1.2360    2.6220 h1        1 63C      0.082700
     41 H92C       -0.6950   -0.3220    2.4160 h1        1 63C      0.082700
     42 H81C        3.1320    0.6490    1.8970 h1        1 63C      0.084700
     43 H82C        3.0910   -1.0340    1.1830 h1        1 63C      0.084700
     44 H11C        0.2890   -2.2780    2.4060 h1        1 63C      0.135700
     45 H12C        2.0930   -2.5070    2.2760 h1        1 63C      0.135700
     46 H12        -0.6740    0.4830   -1.8230 hn        1 63C      0.332500
     47 H19        -4.9900   -4.1340   -3.9850 h4        1 63C      0.157000
     48 H14         1.9840    1.4560   -2.1280 hn        1 63C      0.320500
     49 H22        -2.5390   -5.7960   -7.9900 ha        1 63C      0.172000
     50 H13        -1.7300   -1.8490   -5.7200 ha        1 63C      0.191000
     51 H24        -3.3360   -4.2030   -2.4170 ha        1 63C      0.152000
     52 H25        -2.3620   -2.6340   -0.8080 ha        1 63C      0.170000
     53 H26        -6.0910   -5.8090   -5.4870 ha        1 63C      0.159000
     54 H27        -4.8700   -6.6690   -7.5020 ha        1 63C      0.151000
     55 H33         2.6970    2.5570   -4.0520 ha        1 63C      0.154500
     56 H34         2.7030    4.5410   -0.1610 ha        1 63C      0.154500
     57 H35         3.4250    6.6300   -1.2520 ha        1 63C      0.158000
     58 H36         3.4180    4.6600   -5.1130 ha        1 63C      0.158000
     59 H42         1.1240   -0.3530    5.1400 hn        1 63C      0.467800
     60 H50         0.9840   -1.9580    6.9680 hx        1 63C      0.111033
     61 H51         2.2850   -0.6840    7.2280 hx        1 63C      0.111033
     62 H52         2.7330   -2.3730    6.6510 hx        1 63C      0.111033
     63 H422        2.7100   -0.7360    4.8500 hn        1 63C      0.467800
@<TRIPOS>BOND
     1    1    2 1   
     2    1    4 1   
     3    1    8 1   
     4    1   38 1   
     5    2    6 1   
     6    2    7 1   
     7    2   39 1   
     8    3    7 1   
     9    3    8 1   
    10    3   32 1   
    11    4   11 1   
    12    4   17 2   
    13    5    9 1   
    14    5   10 1   
    15    5   16 1   
    16    6   13 1   
    17    6   18 2   
    18    7   42 1   
    19    7   43 1   
    20    8   40 1   
    21    8   41 1   
    22    9   19 1   
    23    9   20 2   
    24   10   12 ar  
    25   10   21 ar  
    26   11   14 1   
    27   11   46 1   
    28   12   15 ar  
    29   12   50 1   
    30   13   25 1   
    31   13   48 1   
    32   14   15 ar  
    33   14   22 ar  
    34   15   26 1   
    35   16   23 2   
    36   16   47 1   
    37   19   24 2   
    38   19   49 1   
    39   21   22 ar  
    40   21   51 1   
    41   22   52 1   
    42   23   24 1   
    43   23   53 1   
    44   24   54 1   
    45   25   28 ar  
    46   25   29 ar  
    47   27   30 ar  
    48   27   31 ar  
    49   27   33 1   
    50   28   31 ar  
    51   28   55 1   
    52   29   30 ar  
    53   29   56 1   
    54   30   57 1   
    55   31   58 1   
    56   32   34 1   
    57   32   44 1   
    58   32   45 1   
    59   34   35 2   
    60   34   36 1   
    61   36   37 1   
    62   36   59 1   
    63   36   63 1   
    64   37   60 1   
    65   37   61 1   
    66   37   62 1   
@<TRIPOS>SUBSTRUCTURE
     1 63C         1 TEMP              0 ****  ****    0 ROOT
