@<TRIPOS>MOLECULE
63F
   73    77     1     0     0
SMALL
bcc


@<TRIPOS>ATOM
      1 C1         -5.8870    1.3380   -0.1300 ca        1 63F     -0.103500
      2 C2         -5.2960   -0.9520   -0.6600 ca        1 63F     -0.103500
      3 C3         -7.2140    0.9610    0.0640 ca        1 63F     -0.127000
      4 C4         -6.6150   -1.3510   -0.4610 ca        1 63F     -0.127000
      5 C5          2.0090    3.7740   -1.5020 ca        1 63F     -0.188500
      6 C6          3.0520    4.7550    0.4810 ca        1 63F     -0.188500
      7 C7          1.0340    3.2080   -0.6890 ca        1 63F      0.016500
      8 C8          2.0630    4.1750    1.2660 ca        1 63F      0.016500
      9 C9          4.4940   -3.8190    1.8490 ca        1 63F     -0.112300
     10 C10         3.6800   -2.7480    2.2040 ca        1 63F     -0.258300
     11 C11        -4.9280    0.3880   -0.4970 ca        1 63F     -0.099300
     12 C12        -7.5630   -0.3850   -0.1000 ca        1 63F      0.088100
     13 C13         3.0190    4.5480   -0.9040 ca        1 63F      0.192100
     14 C14         1.0440    3.3940    0.7010 ca        1 63F     -0.419500
     15 C15         4.3340   -4.3810    0.5640 ca        1 63F      0.239800
     16 C16         2.7260   -2.2820    1.2500 ca        1 63F      0.585200
     17 C18        -1.2350    0.3720    0.0100 c         1 63F      0.642100
     18 C19         5.2640   -8.3570   -2.3010 cx        1 63F     -0.151400
     19 C20         6.2380   -7.3900   -2.9090 cx        1 63F     -0.151400
     20 C21         2.3640   -0.1100    2.2790 c3        1 63F      0.173800
     21 C22         1.2600    0.8170    2.8330 c3        1 63F      0.217800
     22 C23         0.7970   -0.9200    0.6010 c3        1 63F      0.179800
     23 C24        -0.2950    0.0200    1.1920 c3        1 63F      0.174500
     24 C25         5.8350   -7.2360   -1.4550 cx        1 63F      0.049700
     25 C26        -3.5110    0.8140   -0.7450 c3        1 63F      0.117300
     26 C27        -9.7140   -1.1950   -0.7840 c3        1 63F      0.820700
     27 C28         5.0060    5.8610   -1.3610 c3        1 63F      0.827700
     28 N29         3.3920   -3.8830   -0.3030 nb        1 63F     -0.268000
     29 N30         2.6480   -2.9130   -0.0020 nb        1 63F     -0.352000
     30 N31         1.8110   -1.2650    1.5880 nh        1 63F     -0.729300
     31 N32         0.2550    1.1780    1.8630 n3        1 63F     -0.809500
     32 N33         5.0240   -6.1520   -1.0230 n         1 63F     -0.520900
     33 N34        -2.5920    0.2810    0.2400 n         1 63F     -0.511900
     34 O35         6.1180   -5.8960    0.9810 o         1 63F     -0.616100
     35 O36        -0.7610    0.6230   -1.1160 o         1 63F     -0.607100
     36 O39        -8.8640   -0.7560    0.2430 os        1 63F     -0.370900
     37 O40         3.9400    5.0610   -1.8040 os        1 63F     -0.364900
     38 F41        -9.3130   -2.3860   -1.2960 f         1 63F     -0.216300
     39 F42       -10.9230   -1.3510   -0.1920 f         1 63F     -0.216300
     40 F43        -9.8200   -0.2950   -1.7920 f         1 63F     -0.216300
     41 F44         5.8270    5.1910   -0.5140 f         1 63F     -0.207967
     42 F45         5.6820    6.1720   -2.4920 f         1 63F     -0.207967
     43 F46         4.5770    6.9990   -0.7620 f         1 63F     -0.207967
     44 S47        -0.1610    2.7540    1.6770 sy        1 63F      1.516200
     45 H1         -5.5960    2.3920    0.0030 ha        1 63F      0.149000
     46 H2         -4.5370   -1.6970   -0.9470 ha        1 63F      0.149000
     47 H3         -7.9780    1.6980    0.3530 ha        1 63F      0.156500
     48 H4         -6.9170   -2.4010   -0.5870 ha        1 63F      0.156500
     49 H5          2.0010    3.6270   -2.5920 ha        1 63F      0.165000
     50 H6          3.8410    5.3690    0.9420 ha        1 63F      0.165000
     51 H7          0.2330    2.6000   -1.1550 ha        1 63F      0.174500
     52 H8          2.0700    4.3460    2.3590 ha        1 63F      0.174500
     53 H9          5.2480   -4.2320    2.5380 ha        1 63F      0.181000
     54 H10         3.7690   -2.2970    3.2010 ha        1 63F      0.156000
     55 H19A        5.5880   -9.3880   -2.0790 hc        1 63F      0.075200
     56 H20         7.2680   -7.7220   -3.1270 hc        1 63F      0.075200
     57 H20A        5.8700   -6.6700   -3.6620 hc        1 63F      0.075200
     58 H21         3.0360    0.4820    1.5930 h1        1 63F      0.054200
     59 H21A        2.9750   -0.4550    3.1580 h1        1 63F      0.054200
     60 H22         0.7630    0.3040    3.7070 h1        1 63F      0.066200
     61 H22A        1.7590    1.7540    3.2160 h1        1 63F      0.066200
     62 H23         0.2730   -1.8610    0.2720 h1        1 63F      0.082200
     63 H23A        1.2510   -0.4290   -0.3080 h1        1 63F      0.082200
     64 H24        -0.8720   -0.5760    1.9670 h1        1 63F      0.070700
     65 H25         6.5900   -7.5070   -0.6780 h1        1 63F      0.121700
     66 H26        -3.1810    0.4470   -1.7610 h1        1 63F      0.074200
     67 H26A       -3.4430    1.9430   -0.7500 h1        1 63F      0.074200
     68 HN33        4.3190   -5.8320   -1.6440 hn        1 63F      0.330500
     69 HN34       -2.8970    0.3420    1.1870 hn        1 63F      0.310500
     70 C17         5.2250   -5.5290    0.1870 c         1 63F      0.588600
     71 O37        -0.0860    3.3910    2.9370 o         1 63F     -0.651800
     72 O38        -1.4080    2.8180    1.0180 o         1 63F     -0.651800
     73 H19         4.2080   -8.3200   -2.6250 hc        1 63F      0.075200
@<TRIPOS>BOND
     1    1    3 ar  
     2    1   11 ar  
     3    1   45 1   
     4    2    4 ar  
     5    2   11 ar  
     6    2   46 1   
     7    3   12 ar  
     8    3   47 1   
     9    4   12 ar  
    10    4   48 1   
    11    5    7 ar  
    12    5   13 ar  
    13    5   49 1   
    14    6    8 ar  
    15    6   13 ar  
    16    6   50 1   
    17    7   14 ar  
    18    7   51 1   
    19    8   14 ar  
    20    8   52 1   
    21    9   10 ar  
    22    9   15 ar  
    23    9   53 1   
    24   10   16 ar  
    25   10   54 1   
    26   11   25 1   
    27   12   36 1   
    28   13   37 1   
    29   14   44 1   
    30   15   28 ar  
    31   15   70 1   
    32   16   29 ar  
    33   16   30 1   
    34   17   23 1   
    35   17   33 1   
    36   17   35 2   
    37   18   19 1   
    38   18   24 1   
    39   18   55 1   
    40   18   73 1   
    41   19   24 1   
    42   19   56 1   
    43   19   57 1   
    44   20   21 1   
    45   20   30 1   
    46   20   58 1   
    47   20   59 1   
    48   21   31 1   
    49   21   60 1   
    50   21   61 1   
    51   22   23 1   
    52   22   30 1   
    53   22   62 1   
    54   22   63 1   
    55   23   31 1   
    56   23   64 1   
    57   24   32 1   
    58   24   65 1   
    59   25   33 1   
    60   25   66 1   
    61   25   67 1   
    62   26   36 1   
    63   26   38 1   
    64   26   39 1   
    65   26   40 1   
    66   27   37 1   
    67   27   41 1   
    68   27   42 1   
    69   27   43 1   
    70   28   29 ar  
    71   31   44 1   
    72   32   68 1   
    73   32   70 1   
    74   33   69 1   
    75   34   70 2   
    76   44   71 2   
    77   44   72 2   
@<TRIPOS>SUBSTRUCTURE
     1 63F         1 TEMP              0 ****  ****    0 ROOT
