@<TRIPOS>MOLECULE
63F
   75    72     1     0     0
SMALL
bcc


@<TRIPOS>ATOM
      1 C1          1.4630   -0.9860    0.4420 c2        1 63F      0.064000
      2 C2          3.3120    2.8860    2.4280 c2        1 63F     -0.125000
      3 C3          2.0110   -0.2870    1.4040 c1        1 63F     -0.004000
      4 C4          2.9780    1.6450    2.4180 c1        1 63F      0.123000
      5 C5         -9.0510   -0.0610   -0.7820 c2        1 63F     -0.231500
      6 C6         -8.8010   -2.4650   -0.2260 c2        1 63F     -0.231500
      7 C7         -7.6970    0.0770   -0.7700 c2        1 63F      0.061500
      8 C8         -7.4440   -2.3180   -0.2160 c2        1 63F      0.061500
      9 C9         -9.2440   -3.9890    4.8920 c1        1 63F     -0.184000
     10 C10        -8.6730   -3.3260    3.7180 c3        1 63F     -0.160000
     11 C11         0.0990   -1.3370    0.2580 c2        1 63F     -0.328000
     12 C12         2.6570    0.3260    2.4240 c2        1 63F      0.077000
     13 C13        -9.6320   -1.3430   -0.5030 c2        1 63F      0.338000
     14 C14        -6.7880   -1.0390   -0.4910 c3        1 63F     -0.764000
     15 C15        -8.4530   -4.1370    6.0250 c2        1 63F     -0.377000
     16 C16        -7.2330   -2.8540    3.8710 c2        1 63F      0.040000
     17 C18        -3.1090   -1.2380    2.1420 c2        1 63F      0.355000
     18 C19        -5.5170   -6.9470    8.3480 c2        1 63F     -0.095000
     19 C20        -7.1000   -4.8920    8.5500 c2        1 63F      0.011000
     20 C21        -9.6340   -5.8720    1.0590 c3        1 63F     -0.270000
     21 C22        -6.5150   -2.3880   -3.8930 c1        1 63F      0.480000
     22 C23        -5.3520   -1.7290    2.9750 c2        1 63F      0.061000
     23 C24        -4.4120   -1.9000    2.0090 c2        1 63F     -0.323000
     24 C25        -6.3230   -5.9350    8.4270 c1        1 63F     -0.170000
     25 C26        -0.8620   -1.1170    1.2160 c2        1 63F      0.128000
     26 C27         2.3570   -0.6840    4.5920 c3        1 63F      0.540000
     27 C28       -11.7640   -2.5340   -0.2530 c3        1 63F      0.561000
     28 N29        -7.1110   -3.6800    6.0870 n2        1 63F      0.069000
     29 N30        -6.5650   -3.1200    5.1510 n2        1 63F     -0.118000
     30 N31        -6.6390   -2.2530    2.8760 n2        1 63F     -0.268000
     31 N32        -6.0660   -1.8350   -2.9130 n2        1 63F     -0.959000
     32 N33       -10.3490   -5.1460    7.1530 n3        1 63F     -0.288000
     33 N34        -2.1680   -1.4860    1.1040 n         1 63F     -0.305000
     34 O35        -8.4920   -5.0340    8.3800 os        1 63F     -0.173000
     35 O36        -2.7880   -0.4900    3.0800 o         1 63F     -0.318000
     36 O39         3.1780   -0.4630    3.4590 os        1 63F     -0.246000
     37 F41         1.1540   -1.1950    4.2300 f         1 63F     -0.126000
     38 F42         3.0440   -1.5700    5.3410 f         1 63F     -0.126000
     39 F43         2.1630    0.4720    5.2690 f         1 63F     -0.126000
     40 F44       -11.5370   -2.9290    1.0170 f         1 63F     -0.094000
     41 F45       -13.0200   -2.0910   -0.4270 f         1 63F     -0.094000
     42 F46       -11.4460   -3.5120   -1.1250 f         1 63F     -0.094000
     43 S47        -5.3960   -1.0950   -1.7000 s6        1 63F      2.860000
     44 H1         -0.1440   -1.8360   -0.6950 ha        1 63F      0.169000
     45 H2          2.6680    3.6880    2.8490 ha        1 63F      0.238000
     46 H3          2.1690   -1.3460   -0.3530 ha        1 63F      0.225000
     47 H4          4.2790    3.2510    2.0150 ha        1 63F      0.238000
     48 H5         -9.7270    0.7900   -0.9910 ha        1 63F      0.210000
     49 H6         -9.2630   -3.4460    0.0050 ha        1 63F      0.210000
     50 H7         -7.2310    1.0660   -0.9720 ha        1 63F      0.202000
     51 H8         -6.2340   -0.7870    0.4920 h1        1 63F      0.273000
     52 H9         -9.3290   -2.4420    3.4770 hc        1 63F      0.141500
     53 H10        -8.7460   -4.0460    2.8520 hc        1 63F      0.141500
     54 H20        -6.4380   -1.7820    9.6640 ha        1 63F      0.001500
     55 H20A       -5.9820   -2.0900   10.0570 ha        1 63F      0.001500
     56 H21       -10.3970   -5.1570    0.6760 hc        1 63F      0.068750
     57 H21A       -9.8090   -6.0530    2.1430 hc        1 63F      0.068750
     58 H22        -9.7200   -6.8340    0.5060 hc        1 63F      0.068750
     59 H22A       -8.6150   -5.4510    0.9120 hc        1 63F      0.068750
     60 H23        -6.7900   -3.1760    0.0440 ha        1 63F      0.202000
     61 H23A       -5.1190   -1.0720    3.8490 h4        1 63F      0.177000
     62 H24        -4.5580   -2.5750    1.1510 ha        1 63F      0.151000
     63 H25       -10.8810   -4.9710    6.3200 hn        1 63F      0.281000
     64 H26        -2.4840   -1.9790    0.2930 hn        1 63F      0.265000
     65 H26A       -0.6020   -0.6200    2.1810 h4        1 63F      0.176000
     66 HN33       -6.8200   -3.8790    8.8810 h4        1 63F      0.193000
     67 HN34       -4.0910    0.6130    4.9610 ha        1 63F      0.001500
     68 C17        -9.0630   -4.7700    7.1710 c2        1 63F      0.408000
     69 O37        -5.1160    0.2410   -1.9450 o         1 63F     -0.887000
     70 O38        -4.4210   -1.8590   -1.0610 o         1 63F     -0.887000
     71 H19        -4.9330   -7.1660    7.4400 ha        1 63F      0.153000
     72 H332      -10.7730   -5.5720    7.9460 hn        1 63F      0.281000
     73 H342       -3.6590    0.1970    5.2750 ha        1 63F      0.001500
     74 O40       -10.9720   -1.3600   -0.5320 os        1 63F     -0.225000
     75 H19A       -5.3650   -7.6420    9.1910 ha        1 63F      0.153000
@<TRIPOS>BOND
     1    1    3 1   
     2    1   11 1   
     3    1   46 1   
     4    2    4 1   
     5    2   45 1   
     6    2   47 1   
     7    3   12 1   
     8    4   12 1   
     9    5    7 1   
    10    5   13 1   
    11    5   48 1   
    12    6    8 1   
    13    6   13 1   
    14    6   49 1   
    15    7   14 1   
    16    7   50 1   
    17    8   14 1   
    18    8   60 1   
    19    9   10 1   
    20    9   15 1   
    21   10   16 1   
    22   10   52 1   
    23   10   53 1   
    24   11   25 1   
    25   11   44 1   
    26   12   36 1   
    27   13   74 1   
    28   14   43 1   
    29   14   51 1   
    30   15   28 1   
    31   15   68 1   
    32   16   29 1   
    33   16   30 1   
    34   17   23 1   
    35   17   33 1   
    36   17   35 1   
    37   18   24 1   
    38   18   71 1   
    39   18   75 1   
    40   19   24 1   
    41   19   34 1   
    42   19   66 1   
    43   20   56 1   
    44   20   57 1   
    45   20   58 1   
    46   20   59 1   
    47   21   31 1   
    48   22   23 1   
    49   22   30 1   
    50   22   61 1   
    51   23   62 1   
    52   25   33 1   
    53   25   65 1   
    54   26   36 1   
    55   26   37 1   
    56   26   38 1   
    57   26   39 1   
    58   27   40 1   
    59   27   41 1   
    60   27   42 1   
    61   27   74 1   
    62   28   29 1   
    63   31   43 1   
    64   32   63 1   
    65   32   68 1   
    66   32   72 1   
    67   33   64 1   
    68   34   68 1   
    69   43   69 1   
    70   43   70 1   
    71   54   55 1   
    72   67   73 1   
@<TRIPOS>SUBSTRUCTURE
     1 63F         1 TEMP              0 ****  ****    0 ROOT
