@<TRIPOS>MOLECULE
63F
   75    74     1     0     0
SMALL
bcc


@<TRIPOS>ATOM
      1 C1          4.3890   -1.5650    1.9560 c2        1 63F      0.064000
      2 C2          6.2530    2.5450    3.3130 c2        1 63F     -0.124000
      3 C3          4.7850   -0.6790    2.8340 c1        1 63F     -0.001000
      4 C4          5.7520    1.3840    3.5390 c1        1 63F      0.123000
      5 C5        -12.5390   -1.0690   -0.2720 c2        1 63F     -0.177000
      6 C6        -11.1650   -1.9550    1.5880 c2        1 63F     -0.296000
      7 C7        -11.4320   -0.9490   -1.0420 c2        1 63F     -0.035000
      8 C8        -10.0250   -1.8400    0.8180 c1        1 63F     -0.167000
      9 C9         -7.5370   -2.2960    2.0360 c2        1 63F     -0.005000
     10 C10        -6.4660   -1.4740    1.4480 c3        1 63F     -0.179000
     11 C11         3.0730   -1.8270    1.4870 c2        1 63F     -0.323000
     12 C12         5.2470    0.1500    3.7990 c2        1 63F      0.076000
     13 C13       -12.4070   -1.5710    1.0770 c2        1 63F      0.275000
     14 C14       -10.0930   -1.2940   -0.5350 c3        1 63F     -0.768000
     15 C15        -7.2410   -3.1570    3.0640 c2        1 63F     -0.337000
     16 C16        -5.1120   -1.5970    2.1290 c2        1 63F      0.007000
     17 C18        -0.4550   -1.0060    2.3370 c2        1 63F      0.357000
     18 C19        -8.6420   -6.6640    6.5070 cx        1 63F     -0.180000
     19 C20        -9.3710   -5.3900    6.8030 cx        1 63F     -0.180000
     20 C21       -11.8010   -6.4940    2.9910 c3        1 63F     -0.271000
     21 C22       -10.3680   -4.7910   -1.5190 c1        1 63F      0.399000
     22 C23        -2.8710   -0.7410    2.2940 c2        1 63F      0.046000
     23 C24        -1.7760   -1.3680    1.8000 c2        1 63F     -0.272000
     24 C25        -8.9390   -5.6920    5.3820 cx        1 63F     -0.205000
     25 C26         1.9500   -1.3180    2.0920 c2        1 63F      0.125000
     26 C27         4.2720   -0.1730    5.9790 c3        1 63F      0.539000
     27 C28       -13.6950   -2.0920    3.0740 c3        1 63F      0.551000
     28 N29        -5.9050   -3.2870    3.5790 n2        1 63F     -0.005000
     29 N30        -4.9750   -2.6220    3.1790 n2        1 63F     -0.037000
     30 N31        -4.1530   -0.8130    1.7680 n2        1 63F     -0.126000
     31 N32        -9.8500   -3.7040   -1.5570 n2        1 63F     -0.911000
     32 N33        -7.8460   -4.9420    4.7480 ny        1 63F     -0.061000
     33 N34         0.6730   -1.5640    1.6800 ns        1 63F     -0.304000
     34 O35        -9.4890   -3.9710    3.3880 o         1 63F     -0.208000
     35 O36        -0.2750   -0.2500    3.3060 o         1 63F     -0.320000
     36 O39         5.3740   -0.3400    5.1050 os        1 63F     -0.245000
     37 F41         3.1390   -0.6880    5.4400 f         1 63F     -0.126667
     38 F42         4.6170   -0.8480    7.0950 f         1 63F     -0.126667
     39 F43         4.0770    1.1390    6.2500 f         1 63F     -0.126667
     40 F44       -12.9480   -1.3330    3.9070 f         1 63F     -0.117333
     41 F45       -15.0070   -1.9650    3.3600 f         1 63F     -0.117333
     42 F46       -13.3120   -3.3870    3.1610 f         1 63F     -0.117333
     43 S47        -9.1270   -2.2870   -1.6540 s6        1 63F      2.870000
     44 H1          3.0030   -2.4940    0.6110 ha        1 63F      0.172000
     45 H2          5.6510    3.4790    3.3110 ha        1 63F      0.238500
     46 H3          5.2020   -2.1880    1.4960 ha        1 63F      0.227000
     47 H4          7.3340    2.7030    3.1020 ha        1 63F      0.238500
     48 H5        -13.5470   -0.7980   -0.6310 ha        1 63F      0.194000
     49 H6        -11.0870   -2.3660    2.6090 ha        1 63F      0.174000
     50 H7        -11.4950   -0.5630   -2.0790 ha        1 63F      0.188000
     51 H8         -9.5210   -0.3050   -0.4620 h1        1 63F      0.239000
     52 H9         -6.7950   -0.3950    1.4410 hc        1 63F      0.189500
     53 H10        -6.3610   -1.7750    0.3550 hc        1 63F      0.189500
     54 H20        -8.8570   -4.6010    7.3840 hc        1 63F      0.148750
     55 H20A      -10.4570   -5.4130    7.0200 hc        1 63F      0.148750
     56 H21       -10.8960   -5.8870    2.7600 hc        1 63F      0.068250
     57 H21A      -12.6570   -5.8120    3.1900 hc        1 63F      0.068250
     58 H22       -12.0410   -7.1460    2.1230 hc        1 63F      0.068250
     59 H22A      -11.6140   -7.1260    3.8860 hc        1 63F      0.068250
     60 H23        -8.6280   -2.1710    1.5370 ha        1 63F      0.310000
     61 H23A       -2.7600    0.0210    3.1060 h4        1 63F      0.188000
     62 H24        -1.8320   -2.1250    1.0040 ha        1 63F      0.158000
     63 H25        -9.7250   -5.9560    4.6290 hx        1 63F      0.201000
     64 H26         0.5170   -2.1460    0.8850 hn        1 63F      0.253000
     65 H26A        2.0290   -0.6710    2.9980 h4        1 63F      0.178000
     66 HN33       -7.3330   -4.4110    5.4620 hn        1 63F      0.258500
     67 HN34       -1.6720    1.1050    4.8570 ha        1 63F      0.001500
     68 C17        -8.2960   -3.9720    3.6610 c2        1 63F      0.351000
     69 O37        -9.2830   -1.7050   -2.9090 o         1 63F     -0.903500
     70 O38        -7.8300   -2.3330   -1.1300 o         1 63F     -0.903500
     71 H19        -7.6070   -6.7890    6.8760 hc        1 63F      0.148750
     72 H332       -7.1930   -5.6120    4.3210 hn        1 63F      0.258500
     73 H342       -1.6300    1.5720    4.3690 ha        1 63F      0.001500
     74 O40       -13.5970   -1.6280    1.7340 os        1 63F     -0.234000
     75 H19A       -9.1920   -7.6270    6.5040 hc        1 63F      0.148750
@<TRIPOS>BOND
     1    1    3 1   
     2    1   11 1   
     3    1   46 1   
     4    2    4 1   
     5    2   45 1   
     6    2   47 1   
     7    3   12 1   
     8    4   12 1   
     9    5    7 1   
    10    5   13 1   
    11    5   48 1   
    12    6    8 1   
    13    6   13 1   
    14    6   49 1   
    15    7   14 1   
    16    7   50 1   
    17    8   14 1   
    18    9   10 1   
    19    9   15 1   
    20    9   60 1   
    21   10   16 1   
    22   10   52 1   
    23   10   53 1   
    24   11   25 1   
    25   11   44 1   
    26   12   36 1   
    27   13   74 1   
    28   14   43 1   
    29   14   51 1   
    30   15   28 1   
    31   15   68 1   
    32   16   29 1   
    33   16   30 1   
    34   17   23 1   
    35   17   33 1   
    36   17   35 1   
    37   18   19 1   
    38   18   24 1   
    39   18   71 1   
    40   18   75 1   
    41   19   24 1   
    42   19   54 1   
    43   19   55 1   
    44   20   56 1   
    45   20   57 1   
    46   20   58 1   
    47   20   59 1   
    48   21   31 1   
    49   22   23 1   
    50   22   30 1   
    51   22   61 1   
    52   23   62 1   
    53   24   32 1   
    54   24   63 1   
    55   25   33 1   
    56   25   65 1   
    57   26   36 1   
    58   26   37 1   
    59   26   38 1   
    60   26   39 1   
    61   27   40 1   
    62   27   41 1   
    63   27   42 1   
    64   27   74 1   
    65   28   29 1   
    66   31   43 1   
    67   32   66 1   
    68   32   68 1   
    69   32   72 1   
    70   33   64 1   
    71   34   68 1   
    72   43   69 1   
    73   43   70 1   
    74   67   73 1   
@<TRIPOS>SUBSTRUCTURE
     1 63F         1 TEMP              0 ****  ****    0 ROOT
