@<TRIPOS>MOLECULE
63G
   43    42     1     0     0
SMALL
bcc


@<TRIPOS>ATOM
      1 O3P        -0.7320   -5.8150    1.9130 o         1 63G     -0.930500
      2 C1'         1.9370   -0.3400    0.8510 c3        1 63G      0.161000
      3 C10        -2.1380    3.8520   -2.0240 c3        1 63G      0.127000
      4 C11        -2.5460    3.3200   -3.2840 c3        1 63G     -0.163000
      5 C12        -2.5420    3.3190   -3.2870 c3        1 63G     -0.026000
      6 C2         -1.1230    2.7330   -1.2360 c1        1 63G      0.203000
      7 C2'         1.3670    0.0240    2.2750 c3        1 63G     -0.207000
      8 C3'         1.7310   -1.2550    3.2370 c3        1 63G      0.047000
      9 C4         -0.0170    0.3580   -0.7010 c1        1 63G      0.019000
     10 C4'         2.0920   -2.1720    2.4450 c3        1 63G     -0.057000
     11 C5         -0.3080   -0.0380   -2.0100 c1        1 63G     -0.236000
     12 C5'         0.9270   -3.0440    2.0910 c3        1 63G      0.079000
     13 C6         -1.2440    0.8760   -2.9280 c1        1 63G      0.400000
     14 C8          1.0240   -1.6500   -1.0400 c1        1 63G     -0.039000
     15 N1         -1.6040    2.2500   -2.4820 n3        1 63G     -0.300000
     16 N2         -1.0750    2.9230   -1.2440 n2        1 63G     -0.312000
     17 N3         -0.3420    1.7520   -0.2580 n1        1 63G     -0.207000
     18 N7          0.3240   -1.2720   -2.2400 n2        1 63G     -0.104000
     19 N9          0.8210   -0.6660   -0.1010 n3        1 63G     -0.141000
     20 O10        -1.5740    5.0890   -2.2310 oh        1 63G     -0.354000
     21 O1P         0.9390   -5.8300    3.7570 o         1 63G     -0.930500
     22 O2P         1.4230   -7.0530    1.5840 o         1 63G     -0.930500
     23 O3'         2.8270   -0.9070    4.1450 oh        1 63G     -0.402000
     24 O4'         2.7060   -1.3810    1.0470 os        1 63G     -0.291000
     25 O5'         1.4340   -4.3900    1.6000 os        1 63G     -0.716000
     26 O6         -1.6010    0.4710   -4.0510 o         1 63G     -0.365000
     27 P           0.7390   -5.7970    2.2280 p5        1 63G      1.565500
     28 H1'         2.4510    0.3820    0.5150 h2        1 63G      0.105000
     29 H10        -2.9760    3.9680   -1.4270 h2        1 63G      0.087000
     30 H010       -2.0270    5.7240   -1.7280 ho        1 63G      0.199000
     31 H111       -3.1560    2.5630   -3.1210 hc        1 63G      0.104500
     32 H211       -3.0860    4.0870   -3.8230 hc        1 63G      0.104500
     33 H112       -1.9490    4.1550   -3.5790 h1        1 63G      0.108000
     34 H212       -2.9290    2.8550   -4.1490 h1        1 63G      0.108000
     35 HN2        -0.5230    3.2990   -0.5710 hn        1 63G      0.220000
     36 H2'         1.7950    0.8310    2.6120 hc        1 63G      0.093500
     37 H2''        0.3930    0.1470    2.2280 hc        1 63G      0.093500
     38 H3'         0.9400   -1.5350    3.7470 h1        1 63G      0.144000
     39 H4'         2.7770   -2.6940    2.8460 h1        1 63G      0.122000
     40 H5'         0.4190   -2.6310    1.4110 h1        1 63G      0.035500
     41 H5''        0.3320   -3.1840    2.9330 h1        1 63G      0.035500
     42 H8          1.5680   -2.4570   -0.9210 DU        1 63G      0.253000
     43 HO3'        2.5240   -0.8690    4.9720 ho        1 63G      0.301000
@<TRIPOS>BOND
     1    1   27 1   
     2    2    7 1   
     3    2   19 1   
     4    2   24 1   
     5    2   28 1   
     6    3    4 1   
     7    3   16 1   
     8    3   20 1   
     9    3   29 1   
    10    4    5 1   
    11    4   31 1   
    12    4   32 1   
    13    5   15 1   
    14    5   33 1   
    15    5   34 1   
    16    6   15 1   
    17    6   17 1   
    18    7    8 1   
    19    7   36 1   
    20    7   37 1   
    21    8   10 1   
    22    8   23 1   
    23    8   38 1   
    24    9   11 1   
    25    9   19 1   
    26   10   12 1   
    27   10   24 1   
    28   10   39 1   
    29   11   18 1   
    30   12   25 1   
    31   12   40 1   
    32   12   41 1   
    33   13   15 1   
    34   13   26 1   
    35   14   18 1   
    36   14   19 1   
    37   16   35 1   
    38   20   30 1   
    39   21   27 1   
    40   22   27 1   
    41   23   43 1   
    42   25   27 1   
@<TRIPOS>SUBSTRUCTURE
     1 63G         1 TEMP              0 ****  ****    0 ROOT
