@<TRIPOS>MOLECULE
63G
   43    46     1     0     0
SMALL
bcc


@<TRIPOS>ATOM
      1 O3P         5.0070   -1.1730   -1.6240 o         1 63G     -0.930500
      2 C1'         0.3160   -1.1760    0.3540 c3        1 63G      0.252800
      3 C10        -6.3850   -1.1570    0.5210 c3        1 63G      0.388300
      4 C11        -6.7180    0.3430    0.5120 c3        1 63G     -0.096400
      5 C12        -5.8920    1.0950   -0.5250 c3        1 63G      0.091000
      6 C2         -4.0750   -0.5060   -0.1070 cc        1 63G      0.633800
      7 C2'         0.8380   -1.9890   -0.8480 c3        1 63G     -0.128400
      8 C3'         2.3510   -1.7230   -0.8860 c3        1 63G      0.158100
      9 C4         -1.8530    0.0870   -0.1030 cd        1 63G      0.063800
     10 C4'         2.6770   -1.0130    0.4420 c3        1 63G      0.054100
     11 C5         -2.1540    1.4590   -0.4410 cc        1 63G      0.186800
     12 C5'         3.4420    0.3220    0.2670 c3        1 63G      0.229400
     13 C6         -3.5300    1.8710   -0.6010 c         1 63G      0.655000
     14 C8          0.0130    1.3070   -0.2960 cd        1 63G      0.450400
     15 N1         -4.4790    0.8170   -0.4170 n         1 63G     -0.407300
     16 N2         -5.1040   -1.5060   -0.0740 nh        1 63G     -0.808200
     17 N3         -2.8070   -0.9030    0.0850 nd        1 63G     -0.626100
     18 N7         -0.9740    2.1950   -0.5530 nc        1 63G     -0.631000
     19 N9         -0.4640    0.0080   -0.0210 na        1 63G     -0.184900
     20 O10        -6.5080   -1.5510    1.8940 oh        1 63G     -0.620800
     21 O1P         7.1050   -0.1280   -0.5770 o         1 63G     -0.930500
     22 O2P         5.3060    1.3390   -1.6940 o         1 63G     -0.930500
     23 O3'         3.0190   -2.9610   -0.9810 oh        1 63G     -0.674800
     24 O4'         1.4230   -0.7770    1.1400 os        1 63G     -0.433600
     25 O5'         4.7820    0.1330    0.4530 os        1 63G     -0.554200
     26 P           5.6920    0.0450   -1.0380 p5        1 63G      1.331900
     27 H10        -7.1540   -1.7320   -0.0840 h2        1 63G      0.045700
     28 H010       -6.4270   -2.5100    1.9450 ho        1 63G      0.400000
     29 H111       -7.8040    0.4690    0.2780 hc        1 63G      0.067200
     30 H211       -6.5330    0.7600    1.5370 hc        1 63G      0.067200
     31 H112       -6.2420    0.8070   -1.5590 h1        1 63G      0.067200
     32 H212       -6.0510    2.2050   -0.4000 h1        1 63G      0.067200
     33 HN2        -4.7560   -2.3900    0.2480 hn        1 63G      0.415800
     34 H2'         0.6390   -3.0730   -0.6650 hc        1 63G      0.053700
     35 H2''        0.3570   -1.7000   -1.8100 hc        1 63G      0.053700
     36 H3'         2.6350   -1.0770   -1.7630 h1        1 63G      0.105700
     37 H4'         3.2620   -1.6920    1.1190 h1        1 63G      0.082700
     38 H5'         3.2310    0.7530   -0.7540 h1        1 63G     -0.003800
     39 H5''        3.0430    1.0320    1.0520 h1        1 63G     -0.003800
     40 H8          1.1000    1.5150   -0.2860 h5        1 63G      0.117100
     41 HO3'        3.9500   -2.7320   -1.2130 ho        1 63G      0.502000
     42 O6         -3.9640    3.0060   -0.8670 o         1 63G     -0.641500
     43 H1'        -0.3540   -1.7920    1.0250 h2        1 63G      0.065700
@<TRIPOS>BOND
     1    1   26 1   
     2    2    7 1   
     3    2   19 1   
     4    2   24 1   
     5    2   43 1   
     6    3    4 1   
     7    3   16 1   
     8    3   20 1   
     9    3   27 1   
    10    4    5 1   
    11    4   29 1   
    12    4   30 1   
    13    5   15 1   
    14    5   31 1   
    15    5   32 1   
    16    6   15 1   
    17    6   16 1   
    18    6   17 2   
    19    7    8 1   
    20    7   34 1   
    21    7   35 1   
    22    8   10 1   
    23    8   23 1   
    24    8   36 1   
    25    9   11 2   
    26    9   17 1   
    27    9   19 1   
    28   10   12 1   
    29   10   24 1   
    30   10   37 1   
    31   11   13 1   
    32   11   18 1   
    33   12   25 1   
    34   12   38 1   
    35   12   39 1   
    36   13   15 1   
    37   13   42 2   
    38   14   18 2   
    39   14   19 1   
    40   14   40 1   
    41   16   33 1   
    42   20   28 1   
    43   21   26 1   
    44   22   26 1   
    45   23   41 1   
    46   25   26 1   
@<TRIPOS>SUBSTRUCTURE
     1 63G         1 TEMP              0 ****  ****    0 ROOT
