@<TRIPOS>MOLECULE
63H
   43    42     1     0     0
SMALL
bcc


@<TRIPOS>ATOM
      1 O3P        -3.4390    4.4630   -2.6120 o         1 63H     -0.922833
      2 C1'        -0.3670   -0.2650   -2.4940 c3        1 63H      0.163000
      3 C10         2.4780   -2.3730    3.8080 c3        1 63H      0.117000
      4 C11         3.3810   -1.3040    4.0440 c3        1 63H     -0.175000
      5 C12         3.8460   -0.6950    2.7950 c3        1 63H     -0.023000
      6 C2          1.7350   -1.2820    1.7010 c1        1 63H      0.172000
      7 C2'        -1.5380   -1.2380   -2.0470 c3        1 63H     -0.197000
      8 C3'        -2.8120   -0.5910   -2.5420 c3        1 63H      0.013000
      9 C4          0.8500    0.1140   -0.2490 c1        1 63H     -0.004000
     10 C4'        -2.4540    0.6280   -2.9020 c3        1 63H     -0.047000
     11 C5          1.8330    1.0570   -0.0480 c1        1 63H     -0.221000
     12 C5'        -2.6380    1.5610   -1.7650 c3        1 63H      0.051000
     13 C6          2.7990    0.9150    1.1320 c1        1 63H      0.400000
     14 C8          0.7120    1.6160   -1.8350 c1        1 63H     -0.019000
     15 N1          2.7840   -0.2680    1.9220 n3        1 63H     -0.296000
     16 N2          1.3610   -2.0200    2.9770 n2        1 63H     -0.291000
     17 N3          0.7430   -1.0750    0.6680 n1        1 63H     -0.197000
     18 N7          1.7350    1.9740   -1.0310 n2        1 63H     -0.112000
     19 N9          0.1680    0.4570   -1.3390 n3        1 63H     -0.148000
     20 O10         1.9500   -2.8630    5.1300 oh        1 63H     -0.349000
     21 O1P        -5.6060    3.9540   -1.4130 o         1 63H     -0.922833
     22 O2P        -3.4430    3.9370   -0.1860 o         1 63H     -0.922833
     23 O3'        -3.3610   -1.3490   -3.7310 oh        1 63H     -0.393000
     24 O4'        -0.9000    0.5430   -3.3060 os        1 63H     -0.294000
     25 O5'        -3.9140    2.0990   -1.8120 os        1 63H     -0.738000
     26 O6          3.6410    1.7900    1.3460 o         1 63H     -0.369000
     27 P          -4.0950    3.6210   -1.4920 p5        1 63H      1.558500
     28 H1'         0.3590   -0.7830   -2.9470 h2        1 63H      0.105000
     29 H10         2.9830   -3.1240    3.3670 h2        1 63H      0.082000
     30 HO10        2.1690   -3.7400    5.2380 ho        1 63H      0.197000
     31 H11         2.9340   -0.6250    4.5760 hc        1 63H      0.105000
     32 H11A        4.1810   -1.6530    4.5610 hc        1 63H      0.105000
     33 H12         4.3780    0.0480    3.0060 h1        1 63H      0.104500
     34 H12A        4.4090   -1.3620    2.3060 h1        1 63H      0.104500
     35 HN2         0.5960   -2.4990    3.0160 hn        1 63H      0.206000
     36 H2'        -1.4270   -2.0910   -2.4440 hc        1 63H      0.090000
     37 H2'A       -1.5550   -1.3150   -1.1210 hc        1 63H      0.090000
     38 H3'        -3.4700   -0.5540   -1.8310 h1        1 63H      0.196000
     39 H4'        -2.9720    0.9150   -3.6500 h1        1 63H      0.082000
     40 H5'        -2.5140    1.0530   -0.8860 h1        1 63H      0.055500
     41 H5''       -2.0060    2.2510   -1.8210 h1        1 63H      0.055500
     42 H8          0.4820    2.0270   -2.6410 DU        1 63H      0.310000
     43 HO3'       -3.9950   -1.9520   -3.4470 ho        1 63H      0.284000
@<TRIPOS>BOND
     1    1   27 1   
     2    2    7 1   
     3    2   19 1   
     4    2   24 1   
     5    2   28 1   
     6    3    4 1   
     7    3   16 1   
     8    3   20 1   
     9    3   29 1   
    10    4    5 1   
    11    4   31 1   
    12    4   32 1   
    13    5   15 1   
    14    5   33 1   
    15    5   34 1   
    16    6   15 1   
    17    6   17 1   
    18    7    8 1   
    19    7   36 1   
    20    7   37 1   
    21    8   10 1   
    22    8   23 1   
    23    8   38 1   
    24    9   11 1   
    25    9   19 1   
    26   10   12 1   
    27   10   24 1   
    28   10   39 1   
    29   11   18 1   
    30   12   25 1   
    31   12   40 1   
    32   12   41 1   
    33   13   15 1   
    34   13   26 1   
    35   14   18 1   
    36   14   19 1   
    37   16   35 1   
    38   20   30 1   
    39   21   27 1   
    40   22   27 1   
    41   23   43 1   
    42   25   27 1   
@<TRIPOS>SUBSTRUCTURE
     1 63H         1 TEMP              0 ****  ****    0 ROOT
