@<TRIPOS>MOLECULE
63H
   43    46     1     0     0
SMALL
bcc


@<TRIPOS>ATOM
      1 O3P         4.8410    1.4890    1.6830 o         1 63H     -0.930167
      2 C1'         0.3980    1.0100   -0.7560 c3        1 63H      0.252800
      3 C10        -6.3770    1.1850   -0.7500 c3        1 63H      0.394300
      4 C11        -6.8290   -0.2760   -0.6200 c3        1 63H     -0.084400
      5 C12        -5.8680   -1.0470    0.2730 c3        1 63H      0.089000
      6 C2         -4.0220    0.3980   -0.5740 cc        1 63H      0.647800
      7 C2'         0.7810    2.0450    0.3220 c3        1 63H     -0.128400
      8 C3'         2.2800    1.8270    0.5740 c3        1 63H      0.158100
      9 C4         -1.8110   -0.1680   -0.2680 cd        1 63H      0.067800
     10 C4'         2.7540    0.8890   -0.5540 c3        1 63H      0.054100
     11 C5         -2.1510   -1.4650    0.2670 cc        1 63H      0.182800
     12 C5'         3.5010   -0.3700   -0.0490 c3        1 63H      0.229400
     13 C6         -3.5400   -1.8320    0.4140 c         1 63H      0.653000
     14 C8          0.0220   -1.3330    0.2700 cd        1 63H      0.449400
     15 N1         -4.4680   -0.8280   -0.0180 n         1 63H     -0.411300
     16 N2         -4.9880    1.2910   -1.1370 nh        1 63H     -0.825200
     17 N3         -2.7360    0.7720   -0.6920 nd        1 63H     -0.633100
     18 N7         -0.9900   -2.1690    0.5910 nc        1 63H     -0.631000
     19 N9         -0.4190   -0.1000   -0.2540 na        1 63H     -0.185900
     20 O10        -6.7060    1.8020    0.5020 oh        1 63H     -0.625800
     21 O1P         7.0480    0.3240    1.0770 o         1 63H     -0.930167
     22 O2P         5.1490   -0.9570    2.2550 o         1 63H     -0.930167
     23 O3'         2.9300    3.0760    0.5060 oh        1 63H     -0.674800
     24 O4'         1.5860    0.4960   -1.3260 os        1 63H     -0.433600
     25 O5'         4.8520   -0.1870   -0.1230 os        1 63H     -0.554200
     26 P           5.5940    0.2010    1.4110 p5        1 63H      1.331900
     27 H1'        -0.1940    1.4750   -1.6000 h2        1 63H      0.065700
     28 H10        -6.9680    1.7080   -1.5640 h2        1 63H      0.046700
     29 HO10       -6.4220    2.7230    0.4750 ho        1 63H      0.402000
     30 H11A       -6.8790   -0.7290   -1.6420 hc        1 63H      0.064700
     31 H12        -6.0560   -0.7480    1.3460 h1        1 63H      0.068700
     32 H12A       -6.0780   -2.1520    0.1790 h1        1 63H      0.068700
     33 HN2        -4.6530    2.2310   -1.2130 hn        1 63H      0.423800
     34 H2'         0.6000    3.0710   -0.0820 hc        1 63H      0.053200
     35 H2'A        0.1960    1.9290    1.2640 hc        1 63H      0.053200
     36 H3'         2.4670    1.3630    1.5820 h1        1 63H      0.105700
     37 H4'         3.4080    1.4440   -1.2800 h1        1 63H      0.082700
     38 H5'         3.1800   -0.6080    1.0060 h1        1 63H     -0.004300
     39 H5''        3.1930   -1.2250   -0.7240 h1        1 63H     -0.004300
     40 H8          1.1040   -1.5340    0.3830 h5        1 63H      0.116100
     41 HO3'        3.8310    2.9160    0.8750 ho        1 63H      0.502000
     42 O6         -4.0030   -2.8920    0.8690 o         1 63H     -0.640500
     43 H11        -7.8490   -0.3000   -0.1620 hc        1 63H      0.064700
@<TRIPOS>BOND
     1    1   26 1   
     2    2    7 1   
     3    2   19 1   
     4    2   24 1   
     5    2   27 1   
     6    3    4 1   
     7    3   16 1   
     8    3   20 1   
     9    3   28 1   
    10    4    5 1   
    11    4   30 1   
    12    4   43 1   
    13    5   15 1   
    14    5   31 1   
    15    5   32 1   
    16    6   15 1   
    17    6   16 1   
    18    6   17 2   
    19    7    8 1   
    20    7   34 1   
    21    7   35 1   
    22    8   10 1   
    23    8   23 1   
    24    8   36 1   
    25    9   11 2   
    26    9   17 1   
    27    9   19 1   
    28   10   12 1   
    29   10   24 1   
    30   10   37 1   
    31   11   13 1   
    32   11   18 1   
    33   12   25 1   
    34   12   38 1   
    35   12   39 1   
    36   13   15 1   
    37   13   42 2   
    38   14   18 2   
    39   14   19 1   
    40   14   40 1   
    41   16   33 1   
    42   20   29 1   
    43   21   26 1   
    44   22   26 1   
    45   23   41 1   
    46   25   26 1   
@<TRIPOS>SUBSTRUCTURE
     1 63H         1 TEMP              0 ****  ****    0 ROOT
