@<TRIPOS>MOLECULE
640
   52    53     1     0     0
SMALL
bcc


@<TRIPOS>ATOM
      1 OAD         8.4670    3.3790   -3.6860 o         1 640     -0.474500
      2 CAU         7.2880    3.1720   -3.8190 c         1 640      0.697600
      3 OAG         6.5920    2.2290   -4.5450 os        1 640     -0.455900
      4 CAH         5.8320    3.1960   -3.7120 cx        1 640      0.128300
      5 CAI         5.1260    2.6370   -2.5610 c2        1 640     -0.402300
      6 CAV         5.2300    1.3830   -2.1840 c1        1 640      0.616600
      7 OAE         5.3290    0.2400   -1.8490 o         1 640     -0.475500
      8 NAS         5.9160   -2.4900   -0.7490 n8        1 640     -0.646600
      9 NAT         6.3170   -2.5000   -2.0840 ny        1 640     -0.465600
     10 CAW         7.7900   -2.1530   -2.4390 c         1 640      0.565700
     11 OAF         8.5330   -2.0580   -1.4720 o         1 640     -0.437100
     12 CBA         8.0610   -1.9750   -3.8510 ca        1 640     -0.352900
     13 CAP         7.1890   -2.4620   -4.8630 ca        1 640      0.445200
     14 NAR         7.4120   -2.3110   -6.1700 nb        1 640     -0.645000
     15 CAJ         8.5380   -1.6590   -6.5460 ca        1 640      0.478200
     16 CAM         9.4730   -1.1560   -5.6310 ca        1 640     -0.239300
     17 CAZ         9.2500   -1.3100   -4.2540 ca        1 640      0.080700
     18 CAQ        10.2280   -0.8020   -3.2540 c3        1 640     -0.012800
     19 CAX        11.3730   -0.0460   -3.8280 ca        1 640     -0.132300
     20 CAK        11.2780    1.3350   -4.0430 ca        1 640     -0.118000
     21 CAN        12.3680    2.0420   -4.5400 ca        1 640     -0.125000
     22 CAY        13.5800    1.3940   -4.8320 ca        1 640     -0.037300
     23 CBB        14.7350    2.2010   -5.3640 c3        1 640     -0.016700
     24 CAB        15.1100    3.2760   -4.3480 c3        1 640     -0.088433
     25 CAC        15.9680    1.3450   -5.6290 c3        1 640     -0.088433
     26 CAA        14.3260    2.8670   -6.6760 c3        1 640     -0.088433
     27 CAO        13.6670    0.0150   -4.6100 ca        1 640     -0.125000
     28 CAL        12.5770   -0.6970   -4.1120 ca        1 640     -0.118000
     29 HAH         5.2420    3.9300   -4.3040 h1        1 640      0.145700
     30 HAI         4.4640    3.3250   -2.0040 ha        1 640      0.223000
     31 HAS         5.8070   -1.5320   -0.4280 hn        1 640      0.415300
     32 HAT         6.1290   -3.4570   -2.4320 hn        1 640      0.478800
     33 HAP         6.2650   -3.0240   -4.6320 h4        1 640      0.014100
     34 HAJ         8.6840   -1.5480   -7.6400 h4        1 640      0.061100
     35 HAM        10.3810   -0.6390   -5.9870 ha        1 640      0.196000
     36 HAQ1        9.6820   -0.1460   -2.5150 hc        1 640      0.082700
     37 HAQ2       10.6180   -1.6860   -2.6680 hc        1 640      0.082700
     38 HAK        10.3430    1.8710   -3.8150 ha        1 640      0.137000
     39 HAL        12.6740   -1.7790   -3.9340 ha        1 640      0.137000
     40 HAN        12.2760    3.1280   -4.7000 ha        1 640      0.147500
     41 HAO        14.6000   -0.5310   -4.8190 ha        1 640      0.147500
     42 HAB1       15.9690    3.8770   -4.7320 hc        1 640      0.041367
     43 HAB2       15.4060    2.8080   -3.3790 hc        1 640      0.041367
     44 HAB3       14.2500    3.9650   -4.1660 hc        1 640      0.041367
     45 HAC1       16.3230    0.8620   -4.6870 hc        1 640      0.041367
     46 HAC2       16.7920    1.9880   -6.0240 hc        1 640      0.041367
     47 HAC3       15.7460    0.5560   -6.3860 hc        1 640      0.041367
     48 HAA1       14.0480    2.0950   -7.4320 hc        1 640      0.041367
     49 HAA2       15.1780    3.4680   -7.0760 hc        1 640      0.041367
     50 HAA3       13.4550    3.5470   -6.5190 hc        1 640      0.041367
     51 HAS2        6.6270   -2.9380   -0.1760 hn        1 640      0.415300
     52 HAT2        5.7040   -1.8460   -2.6070 hn        1 640      0.478800
@<TRIPOS>BOND
     1    1    2 2   
     2    2    3 1   
     3    2    4 1   
     4    3    4 1   
     5    4    5 1   
     6    4   29 1   
     7    5    6 2   
     8    5   30 1   
     9    6    7 2   
    10    8    9 1   
    11    8   31 1   
    12    8   51 1   
    13    9   10 1   
    14    9   32 1   
    15    9   52 1   
    16   10   11 2   
    17   10   12 1   
    18   12   13 ar  
    19   12   17 ar  
    20   13   14 ar  
    21   13   33 1   
    22   14   15 ar  
    23   15   16 ar  
    24   15   34 1   
    25   16   17 ar  
    26   16   35 1   
    27   17   18 1   
    28   18   19 1   
    29   18   36 1   
    30   18   37 1   
    31   19   20 ar  
    32   19   28 ar  
    33   20   21 ar  
    34   20   38 1   
    35   21   22 ar  
    36   21   40 1   
    37   22   23 1   
    38   22   27 ar  
    39   23   24 1   
    40   23   25 1   
    41   23   26 1   
    42   24   42 1   
    43   24   43 1   
    44   24   44 1   
    45   25   45 1   
    46   25   46 1   
    47   25   47 1   
    48   26   48 1   
    49   26   49 1   
    50   26   50 1   
    51   27   28 ar  
    52   27   41 1   
    53   28   39 1   
@<TRIPOS>SUBSTRUCTURE
     1 640         1 TEMP              0 ****  ****    0 ROOT
