@<TRIPOS>MOLECULE
640
   50    51     1     0     0
SMALL
bcc


@<TRIPOS>ATOM
      1 OAD         2.5780   -0.6990   -0.2480 o         1 640     -0.819800
      2 CAU         3.6550   -0.0650   -0.4110 c         1 640      0.889800
      3 OAG         4.8060   -0.5750   -0.2650 o         1 640     -0.819800
      4 CAH         3.5370    1.4030   -0.7540 ce        1 640     -0.132200
      5 CAI         4.0310    2.0560   -1.8070 cf        1 640     -0.261200
      6 CAV         4.8510    1.4860   -2.8940 c         1 640      0.655300
      7 OAE         4.6280    1.7370   -4.1010 o         1 640     -0.659100
      8 NAS         5.9810    0.7330   -2.5150 n         1 640     -0.433500
      9 NAT         6.6790    0.0020   -3.4270 n         1 640     -0.348500
     10 CAW         7.8850    0.5200   -3.9720 c         1 640      0.648700
     11 OAF         8.6170    1.3460   -3.4040 o         1 640     -0.566100
     12 CBA         8.2980   -0.1210   -5.2590 ca        1 640     -0.254900
     13 CAP         7.4980    0.0830   -6.4060 ca        1 640      0.419200
     14 NAR         7.7970   -0.4150   -7.6180 nb        1 640     -0.674000
     15 CAJ         8.9210   -1.1550   -7.7190 ca        1 640      0.398200
     16 CAM         9.7750   -1.4200   -6.6390 ca        1 640     -0.255300
     17 CAZ         9.4630   -0.8930   -5.3760 ca        1 640      0.010700
     18 CAQ        10.3460   -1.1850   -4.2100 c3        1 640     -0.007800
     19 CAX        11.6770   -0.5240   -4.3310 ca        1 640     -0.076300
     20 CAK        11.8250    0.8230   -3.9740 ca        1 640     -0.121000
     21 CAN        13.0680    1.4380   -4.0660 ca        1 640     -0.133000
     22 CAY        14.1950    0.7310   -4.5130 ca        1 640     -0.073300
     23 CBB        15.5220    1.4390   -4.5950 c3        1 640     -0.007700
     24 CAB        15.9110    1.9470   -3.2090 c3        1 640     -0.084433
     25 CAC        16.6370    0.5300   -5.0980 c3        1 640     -0.084433
     26 CAA        15.4060    2.6240   -5.5510 c3        1 640     -0.084433
     27 CAO        14.0400   -0.6130   -4.8670 ca        1 640     -0.133000
     28 CAL        12.7940   -1.2340   -4.7770 ca        1 640     -0.121000
     29 HAH         2.9040    1.9530   -0.0340 ha        1 640      0.113000
     30 HAI         3.8140    3.1240   -1.9760 ha        1 640      0.123000
     31 HAS         5.9330    0.2570   -1.6090 hn        1 640      0.392500
     32 HAT         6.0810   -0.3780   -4.1520 hn        1 640      0.283500
     33 HAP         6.5710    0.6880   -6.3420 h4        1 640      0.047100
     34 HAJ         9.1420   -1.5530   -8.7250 h4        1 640      0.014100
     35 HAM        10.6810   -2.0250   -6.7750 ha        1 640      0.141000
     36 HAQ1        9.8520   -0.8390   -3.2590 hc        1 640      0.074200
     37 HAQ2       10.4790   -2.2990   -4.1340 hc        1 640      0.074200
     38 HAK        10.9430    1.3890   -3.6210 ha        1 640      0.148500
     39 HAL        12.6940   -2.2930   -5.0580 ha        1 640      0.148500
     40 HAN        13.1630    2.4970   -3.7810 ha        1 640      0.128000
     41 HAO        14.8960   -1.2060   -5.2200 ha        1 640      0.128000
     42 HAB1       15.9950    1.0940   -2.4950 hc        1 640      0.034589
     43 HAB2       16.8940    2.4740   -3.2580 hc        1 640      0.034589
     44 HAB3       15.1440    2.6610   -2.8230 hc        1 640      0.034589
     45 HAC1       16.7750   -0.3390   -4.4120 hc        1 640      0.034589
     46 HAC2       16.4060    0.1540   -6.1230 hc        1 640      0.034589
     47 HAC3       17.5970    1.1010   -5.1410 hc        1 640      0.034589
     48 HAA1       16.3850    3.1560   -5.6190 hc        1 640      0.034589
     49 HAA2       14.6330    3.3450   -5.1910 hc        1 640      0.034589
     50 HAA3       15.1170    2.2710   -6.5690 hc        1 640      0.034589
@<TRIPOS>BOND
     1    1    2 1   
     2    2    3 1   
     3    2    4 1   
     4    4    5 2   
     5    4   29 1   
     6    5    6 1   
     7    5   30 1   
     8    6    7 2   
     9    6    8 1   
    10    8    9 1   
    11    8   31 1   
    12    9   10 1   
    13    9   32 1   
    14   10   11 2   
    15   10   12 1   
    16   12   13 ar  
    17   12   17 ar  
    18   13   14 ar  
    19   13   33 1   
    20   14   15 ar  
    21   15   16 ar  
    22   15   34 1   
    23   16   17 ar  
    24   16   35 1   
    25   17   18 1   
    26   18   19 1   
    27   18   36 1   
    28   18   37 1   
    29   19   20 ar  
    30   19   28 ar  
    31   20   21 ar  
    32   20   38 1   
    33   21   22 ar  
    34   21   40 1   
    35   22   23 1   
    36   22   27 ar  
    37   23   24 1   
    38   23   25 1   
    39   23   26 1   
    40   24   42 1   
    41   24   43 1   
    42   24   44 1   
    43   25   45 1   
    44   25   46 1   
    45   25   47 1   
    46   26   48 1   
    47   26   49 1   
    48   26   50 1   
    49   27   28 ar  
    50   27   41 1   
    51   28   39 1   
@<TRIPOS>SUBSTRUCTURE
     1 640         1 TEMP              0 ****  ****    0 ROOT
