@<TRIPOS>MOLECULE
640
   52    53     1     0     0
SMALL
bcc


@<TRIPOS>ATOM
      1 OAD         6.2650   -3.0580   -3.5730 o         1 640     -0.441500
      2 CAU         5.3220   -2.5020   -3.0800 c         1 640      0.706600
      3 OAG         5.2820   -1.3720   -2.2600 os        1 640     -0.564900
      4 CAH         4.0100   -2.0440   -2.6420 cx        1 640      0.172300
      5 CAI         3.1280   -1.2610   -3.5060 c2        1 640     -0.429300
      6 CAV         3.4190   -0.0160   -3.8230 c1        1 640      0.602600
      7 OAE         3.7530    1.1050   -4.0480 o         1 640     -0.411500
      8 NAS         5.6770    1.2550   -0.9380 n3        1 640     -0.652600
      9 NAT         6.0740    1.4580   -2.2580 n4        1 640     -0.467600
     10 CAW         7.5620    1.7650   -2.5670 c         1 640      0.566700
     11 OAF         8.2490    2.0060   -1.5850 o         1 640     -0.435100
     12 CBA         7.9250    1.7050   -3.9710 ca        1 640     -0.349900
     13 CAP         6.9640    1.8290   -5.0110 ca        1 640      0.441200
     14 NAR         7.2700    1.7870   -6.3100 nb        1 640     -0.648000
     15 CAJ         8.5720    1.6230   -6.6460 ca        1 640      0.474200
     16 CAM         9.5990    1.5050   -5.6990 ca        1 640     -0.242300
     17 CAZ         9.2890    1.5460   -4.3310 ca        1 640      0.077700
     18 CAQ        10.3540    1.4380   -3.2960 c3        1 640     -0.013800
     19 CAX        11.7000    1.0860   -3.8230 ca        1 640     -0.128300
     20 CAK        12.6150    2.0910   -4.1570 ca        1 640     -0.118500
     21 CAN        13.8870    1.7600   -4.6100 ca        1 640     -0.124500
     22 CAY        14.2820    0.4180   -4.7400 ca        1 640     -0.036300
     23 CBB        15.6710    0.1040   -5.2310 c3        1 640     -0.016700
     24 CAB        16.6930    0.7150   -4.2750 c3        1 640     -0.088433
     25 CAC        15.9320   -1.3940   -5.3150 c3        1 640     -0.088433
     26 CAA        15.8620    0.7020   -6.6230 c3        1 640     -0.088433
     27 CAO        13.3630   -0.5810   -4.4000 ca        1 640     -0.124500
     28 CAL        12.0870   -0.2520   -3.9450 ca        1 640     -0.118500
     29 HAH         3.5020   -2.5630   -1.7980 h1        1 640      0.149700
     30 HAI         2.2020   -1.7430   -3.8620 ha        1 640      0.230000
     31 HAS         6.1930    1.8820   -0.3250 hn        1 640      0.417300
     32 HAT         5.5080    2.2560   -2.6050 hn        1 640      0.478800
     33 HAP         5.8870    1.9920   -4.8110 h4        1 640      0.025100
     34 HAJ         8.7850    1.5920   -7.7330 h4        1 640      0.060100
     35 HAM        10.6460    1.3810   -6.0230 ha        1 640      0.194000
     36 HAQ1       10.0430    0.6680   -2.5320 hc        1 640      0.083700
     37 HAQ2       10.4080    2.4250   -2.7500 hc        1 640      0.083700
     38 HAK        12.3330    3.1500   -4.0510 ha        1 640      0.132000
     39 HAL        11.3860   -1.0550   -3.6740 ha        1 640      0.132000
     40 HAN        14.5950    2.5650   -4.8640 ha        1 640      0.147000
     41 HAO        13.6330   -1.6450   -4.4810 ha        1 640      0.147000
     42 HAB1       16.5770    1.8240   -4.2270 hc        1 640      0.041478
     43 HAB2       16.5640    0.2950   -3.2490 hc        1 640      0.041478
     44 HAB3       17.7260    0.4820   -4.6290 hc        1 640      0.041478
     45 HAC1       15.8340   -1.8700   -4.3100 hc        1 640      0.041478
     46 HAC2       16.9710   -1.5720   -5.6870 hc        1 640      0.041478
     47 HAC3       15.2200   -1.8810   -6.0240 hc        1 640      0.041478
     48 HAA1       16.8910    0.4740   -6.9930 hc        1 640      0.041478
     49 HAA2       15.7320    1.8100   -6.6000 hc        1 640      0.041478
     50 HAA3       15.1220    0.2680   -7.3370 hc        1 640      0.041478
     51 HAS2        5.8770    0.2960   -0.6610 hn        1 640      0.417300
     52 HAT2        5.8020    0.6220   -2.8130 hn        1 640      0.478800
@<TRIPOS>BOND
     1    1    2 2   
     2    2    3 1   
     3    2    4 1   
     4    3    4 1   
     5    4    5 1   
     6    4   29 1   
     7    5    6 2   
     8    5   30 1   
     9    6    7 2   
    10    8    9 1   
    11    8   31 1   
    12    8   51 1   
    13    9   10 1   
    14    9   32 1   
    15    9   52 1   
    16   10   11 2   
    17   10   12 1   
    18   12   13 ar  
    19   12   17 ar  
    20   13   14 ar  
    21   13   33 1   
    22   14   15 ar  
    23   15   16 ar  
    24   15   34 1   
    25   16   17 ar  
    26   16   35 1   
    27   17   18 1   
    28   18   19 1   
    29   18   36 1   
    30   18   37 1   
    31   19   20 ar  
    32   19   28 ar  
    33   20   21 ar  
    34   20   38 1   
    35   21   22 ar  
    36   21   40 1   
    37   22   23 1   
    38   22   27 ar  
    39   23   24 1   
    40   23   25 1   
    41   23   26 1   
    42   24   42 1   
    43   24   43 1   
    44   24   44 1   
    45   25   45 1   
    46   25   46 1   
    47   25   47 1   
    48   26   48 1   
    49   26   49 1   
    50   26   50 1   
    51   27   28 ar  
    52   27   41 1   
    53   28   39 1   
@<TRIPOS>SUBSTRUCTURE
     1 640         1 TEMP              0 ****  ****    0 ROOT
