@<TRIPOS>MOLECULE
641
   44    46     1     0     0
SMALL
bcc


@<TRIPOS>ATOM
      1 C1          0.0940   -0.4450    0.7070 c3        1 641     -0.077900
      2 C2          1.6030   -0.3240    0.6700 c3        1 641     -0.089900
      3 C3          2.0720    0.7200    1.6990 c3        1 641      0.105700
      4 C4          1.4230    2.0760    1.3740 c3        1 641     -0.089900
      5 C5         -0.0860    1.9460    1.4100 c3        1 641     -0.077900
      6 C6         -0.5760    0.8880    0.4450 c3        1 641     -0.083400
      7 C7          4.2630    0.1180    2.7570 c         1 641      0.698500
      8 C8          5.7520    0.2020    2.3990 c3        1 641     -0.189400
      9 C9          5.8170    0.9990    1.0950 c3        1 641     -0.152700
     10 C10         4.3290    1.2800    0.7100 c3        1 641      0.096000
     11 N11         3.5170    0.8170    1.8120 n         1 641     -0.468800
     12 C12         6.5840    2.2850    1.1990 c         1 641      0.565100
     13 N13         7.9930    2.1750    1.7830 n4        1 641     -0.553200
     14 O14         6.2700    3.4020    0.8270 o         1 641     -0.397100
     15 O15         3.8280   -0.4490    3.7640 o         1 641     -0.568500
     16 C15         8.0600    2.6640    3.1660 ca        1 641     -0.039400
     17 C20         8.4260    1.7780    4.1940 ca        1 641     -0.113500
     18 C19         8.5070    2.2630    5.5030 ca        1 641      0.041900
     19 CL2         8.9460    1.2120    6.7470 cl        1 641     -0.000900
     20 C18         8.2290    3.6060    5.7900 ca        1 641     -0.070000
     21 C17         7.8670    4.4720    4.7520 ca        1 641      0.041900
     22 C16         7.7790    4.0140    3.4320 ca        1 641     -0.113500
     23 CL1         7.5300    6.0910    5.0860 cl        1 641     -0.000900
     24 HN13        8.3000    1.1970    1.7550 hn        1 641      0.464800
     25 H9          6.2990    0.3930    0.2770 hc        1 641      0.113700
     26 H101        4.1440    2.3770    0.5400 h1        1 641      0.081200
     27 H102        4.0850    0.7260   -0.2400 h1        1 641      0.081200
     28 H81         6.2920    0.6800    3.2520 hc        1 641      0.094700
     29 H82         6.1440   -0.8370    2.2600 hc        1 641      0.094700
     30 H3          1.7100    0.3890    2.7220 h1        1 641      0.097700
     31 H41         1.7480    2.4200    0.3580 hc        1 641      0.044450
     32 H42         1.7490    2.8470    2.1190 hc        1 641      0.044450
     33 H51        -0.4160    1.6880    2.4510 hc        1 641      0.053950
     34 H52        -0.5450    2.9360    1.1490 hc        1 641      0.053950
     35 H61        -1.6870    0.7740    0.5460 hc        1 641      0.051200
     36 H62        -0.3670    1.2130   -0.6080 hc        1 641      0.051200
     37 H4         -0.2260   -0.8360    1.7090 hc        1 641      0.053950
     38 H1         -0.2340   -1.1890   -0.0640 hc        1 641      0.053950
     39 H2          2.0620   -1.3200    0.8980 hc        1 641      0.044450
     40 H5          1.9290   -0.0210   -0.3590 hc        1 641      0.044450
     41 H16         7.4840    4.7090    2.6260 ha        1 641      0.176000
     42 H18         8.2950    3.9780    6.8290 ha        1 641      0.197000
     43 H20         8.6550    0.7180    3.9930 ha        1 641      0.176000
     44 H132        8.6350    2.7480    1.2160 hn        1 641      0.464800
@<TRIPOS>BOND
     1    1    2 1   
     2    1    6 1   
     3    1   37 1   
     4    1   38 1   
     5    2    3 1   
     6    2   39 1   
     7    2   40 1   
     8    3    4 1   
     9    3   11 1   
    10    3   30 1   
    11    4    5 1   
    12    4   31 1   
    13    4   32 1   
    14    5    6 1   
    15    5   33 1   
    16    5   34 1   
    17    6   35 1   
    18    6   36 1   
    19    7    8 1   
    20    7   11 1   
    21    7   15 2   
    22    8    9 1   
    23    8   28 1   
    24    8   29 1   
    25    9   10 1   
    26    9   12 1   
    27    9   25 1   
    28   10   11 1   
    29   10   26 1   
    30   10   27 1   
    31   12   13 1   
    32   12   14 2   
    33   13   16 1   
    34   13   24 1   
    35   13   44 1   
    36   16   17 ar  
    37   16   22 ar  
    38   17   18 ar  
    39   17   43 1   
    40   18   19 1   
    41   18   20 ar  
    42   20   21 ar  
    43   20   42 1   
    44   21   22 ar  
    45   21   23 1   
    46   22   41 1   
@<TRIPOS>SUBSTRUCTURE
     1 641         1 TEMP              0 ****  ****    0 ROOT
