@<TRIPOS>MOLECULE
641
   43    45     1     0     0
SMALL
bcc


@<TRIPOS>ATOM
      1 C1         -0.0910   -0.0360   -0.2570 c3        1 641     -0.075900
      2 C2          1.3710    0.3570   -0.2210 c3        1 641     -0.091900
      3 C3          1.9980   -0.0600    1.1210 c3        1 641      0.115700
      4 C4          1.2290    0.6270    2.2650 c3        1 641     -0.091900
      5 C5         -0.2320    0.2330    2.2220 c3        1 641     -0.075900
      6 C6         -0.8620    0.5840    0.8900 c3        1 641     -0.080400
      7 C7          4.3500   -0.7350    1.6590 c         1 641      0.700500
      8 C8          5.7110   -0.0560    1.7970 c3        1 641     -0.165400
      9 C9          5.5080    1.3770    1.2970 c3        1 641     -0.156700
     10 C10         3.9880    1.5010    1.0060 c3        1 641      0.094000
     11 N11         3.4230    0.1740    1.1590 n         1 641     -0.476800
     12 C12         5.9790    2.4290    2.2930 c         1 641      0.673100
     13 N13         7.3160    2.3320    2.6620 n         1 641     -0.472100
     14 O14         5.2250    3.3230    2.7110 o         1 641     -0.575100
     15 O15         4.1190   -1.9230    1.9280 o         1 641     -0.619500
     16 C15         8.0250    3.1590    3.5460 ca        1 641      0.089600
     17 C20         7.4680    4.3130    4.1360 ca        1 641     -0.170500
     18 C19         8.2460    5.0880    4.9990 ca        1 641      0.051400
     19 CL2         7.5620    6.4750    5.7030 cl        1 641     -0.080400
     20 C18         9.5680    4.7550    5.2990 ca        1 641     -0.148000
     21 C17        10.1120    3.6110    4.7110 ca        1 641      0.051400
     22 C16         9.3660    2.8130    3.8460 ca        1 641     -0.170500
     23 CL1        11.7200    3.1790    5.0570 cl        1 641     -0.080400
     24 HN13        7.8290    1.5590    2.2950 hn        1 641      0.320500
     25 H9          6.0720    1.5370    0.3390 hc        1 641      0.085700
     26 H101        3.4980    2.2320    1.7080 h1        1 641      0.069200
     27 H102        3.8250    1.8570   -0.0490 h1        1 641      0.069200
     28 H81         6.0180   -0.1030    2.8710 hc        1 641      0.085700
     29 H82         6.4660   -0.6060    1.1840 hc        1 641      0.085700
     30 H3          1.8640   -1.1810    1.2380 h1        1 641      0.085700
     31 H41         1.3230    1.7400    2.1730 hc        1 641      0.047200
     32 H42         1.6670    0.3270    3.2520 hc        1 641      0.047200
     33 H51        -0.7800    0.7590    3.0460 hc        1 641      0.044200
     34 H52        -0.3290   -0.8700    2.4030 hc        1 641      0.044200
     35 H61        -0.8830    1.6990    0.7670 hc        1 641      0.041700
     36 H62        -1.9230    0.2230    0.8680 hc        1 641      0.041700
     37 H4         -0.1810   -1.1530   -0.2080 hc        1 641      0.044200
     38 H1         -0.5380    0.2950   -1.2320 hc        1 641      0.044200
     39 H2          1.4680    1.4660   -0.3560 hc        1 641      0.047200
     40 H5          1.9120   -0.1400   -1.0670 hc        1 641      0.047200
     41 H16         9.8290    1.9180    3.4020 ha        1 641      0.169000
     42 H18        10.1670    5.3760    5.9820 ha        1 641      0.165000
     43 H20         6.4270    4.6110    3.9270 ha        1 641      0.169000
@<TRIPOS>BOND
     1    1    2 1   
     2    1    6 1   
     3    1   37 1   
     4    1   38 1   
     5    2    3 1   
     6    2   39 1   
     7    2   40 1   
     8    3    4 1   
     9    3   11 1   
    10    3   30 1   
    11    4    5 1   
    12    4   31 1   
    13    4   32 1   
    14    5    6 1   
    15    5   33 1   
    16    5   34 1   
    17    6   35 1   
    18    6   36 1   
    19    7    8 1   
    20    7   11 1   
    21    7   15 2   
    22    8    9 1   
    23    8   28 1   
    24    8   29 1   
    25    9   10 1   
    26    9   12 1   
    27    9   25 1   
    28   10   11 1   
    29   10   26 1   
    30   10   27 1   
    31   12   13 1   
    32   12   14 2   
    33   13   16 1   
    34   13   24 1   
    35   16   17 ar  
    36   16   22 ar  
    37   17   18 ar  
    38   17   43 1   
    39   18   19 1   
    40   18   20 ar  
    41   20   21 ar  
    42   20   42 1   
    43   21   22 ar  
    44   21   23 1   
    45   22   41 1   
@<TRIPOS>SUBSTRUCTURE
     1 641         1 TEMP              0 ****  ****    0 ROOT
