@<TRIPOS>MOLECULE
641
   43    45     1     0     0
SMALL
bcc


@<TRIPOS>ATOM
      1 C1         -0.0950   -0.0310   -0.2530 c3        1 641     -0.075900
      2 C2          1.3680    0.3570   -0.2170 c3        1 641     -0.091900
      3 C3          1.9950   -0.0590    1.1260 c3        1 641      0.115700
      4 C4          1.2280    0.6330    2.2680 c3        1 641     -0.091900
      5 C5         -0.2350    0.2440    2.2260 c3        1 641     -0.075900
      6 C6         -0.8630    0.5940    0.8930 c3        1 641     -0.080400
      7 C7          4.3440   -0.7390    1.6690 c         1 641      0.700500
      8 C8          5.7070   -0.0630    1.8060 c3        1 641     -0.165400
      9 C9          5.5080    1.3680    1.2980 c3        1 641     -0.156700
     10 C10         3.9890    1.4950    1.0030 c3        1 641      0.094000
     11 N11         3.4210    0.1710    1.1630 n         1 641     -0.476800
     12 C12         5.9820    2.4240    2.2890 c         1 641      0.673100
     13 N13         7.3180    2.3250    2.6600 ns        1 641     -0.472100
     14 O14         5.2290    3.3220    2.7020 o         1 641     -0.575100
     15 O15         4.1090   -1.9240    1.9450 o         1 641     -0.619500
     16 C15         8.0280    3.1550    3.5410 ca        1 641      0.089600
     17 C20         7.4730    4.3120    4.1260 ca        1 641     -0.170500
     18 C19         8.2520    5.0890    4.9860 ca        1 641      0.051400
     19 Cl2         7.5700    6.4810    5.6840 cl        1 641     -0.080400
     20 C18         9.5730    4.7560    5.2870 ca        1 641     -0.148000
     21 C17        10.1160    3.6090    4.7030 ca        1 641      0.051400
     22 C16         9.3690    2.8090    3.8410 ca        1 641     -0.170500
     23 Cl1        11.7230    3.1770    5.0500 cl        1 641     -0.080400
     24 HN13        7.8290    1.5500    2.2970 hn        1 641      0.320500
     25 H9          6.0740    1.5220    0.3390 hc        1 641      0.085700
     26 H101        3.5010    2.2310    1.7010 h1        1 641      0.069200
     27 H102        3.8300    1.8460   -0.0530 h1        1 641      0.069200
     28 H81         6.4610   -0.6180    1.1970 hc        1 641      0.085700
     29 H82         6.0120   -0.1050    2.8810 hc        1 641      0.085700
     30 H3          1.8570   -1.1790    1.2440 h1        1 641      0.085700
     31 H41         1.3250    1.7450    2.1740 hc        1 641      0.047200
     32 H42         1.6650    0.3330    3.2560 hc        1 641      0.047200
     33 H51        -0.7810    0.7730    3.0500 hc        1 641      0.044200
     34 H52        -0.3350   -0.8590    2.4100 hc        1 641      0.044200
     35 H61        -1.9250    0.2360    0.8730 hc        1 641      0.041700
     36 H62        -0.8800    1.7090    0.7690 hc        1 641      0.041700
     37 H4         -0.5400    0.2990   -1.2280 hc        1 641      0.044200
     38 H1         -0.1880   -1.1480   -0.2010 hc        1 641      0.044200
     39 H2          1.4690    1.4660   -0.3550 hc        1 641      0.047200
     40 H5          1.9080   -0.1430   -1.0630 hc        1 641      0.047200
     41 H16         9.8310    1.9110    3.4010 ha        1 641      0.169000
     42 H18        10.1730    5.3800    5.9660 ha        1 641      0.165000
     43 H20         6.4320    4.6110    3.9160 ha        1 641      0.169000
@<TRIPOS>BOND
     1    1    2 1   
     2    1    6 1   
     3    1   37 1   
     4    1   38 1   
     5    2    3 1   
     6    2   39 1   
     7    2   40 1   
     8    3    4 1   
     9    3   11 1   
    10    3   30 1   
    11    4    5 1   
    12    4   31 1   
    13    4   32 1   
    14    5    6 1   
    15    5   33 1   
    16    5   34 1   
    17    6   35 1   
    18    6   36 1   
    19    7    8 1   
    20    7   11 1   
    21    7   15 2   
    22    8    9 1   
    23    8   28 1   
    24    8   29 1   
    25    9   10 1   
    26    9   12 1   
    27    9   25 1   
    28   10   11 1   
    29   10   26 1   
    30   10   27 1   
    31   12   13 1   
    32   12   14 2   
    33   13   16 1   
    34   13   24 1   
    35   16   17 ar  
    36   16   22 ar  
    37   17   18 ar  
    38   17   43 1   
    39   18   19 1   
    40   18   20 ar  
    41   20   21 ar  
    42   20   42 1   
    43   21   22 ar  
    44   21   23 1   
    45   22   41 1   
@<TRIPOS>SUBSTRUCTURE
     1 641         1 TEMP              0 ****  ****    0 ROOT
