@<TRIPOS>MOLECULE
641
   43    42     1     0     0
SMALL
bcc


@<TRIPOS>ATOM
      1 C1          3.0350   -3.1410    0.3100 c3        1 641     -0.157500
      2 C2          1.7260   -3.7000   -0.2250 c3        1 641     -0.170500
      3 C3          0.8940   -2.6390   -1.0750 c3        1 641      0.055000
      4 C4          1.9980   -2.4210   -2.2360 c3        1 641     -0.170500
      5 C5          3.2960   -1.8540   -1.7180 c3        1 641     -0.157500
      6 C6          3.4190   -2.0330   -0.3710 c3        1 641     -0.154000
      7 C7          1.2150   -1.2660    0.8910 c1        1 641      0.311000
      8 C8          1.3120    0.1810    0.9950 c3        1 641     -0.198000
      9 C9          0.2400    0.6940   -0.0080 c3        1 641     -0.146000
     10 C10        -0.1750   -0.6070   -0.7720 c3        1 641     -0.019000
     11 N11         0.6810   -1.5850   -0.4280 n2        1 641     -0.337000
     12 C12        -0.9390    1.3990    0.5930 c2        1 641      0.319000
     13 N13        -1.7260    2.2680   -0.2030 n         1 641     -0.326000
     14 O14        -1.1910    1.2630    1.7740 o         1 641     -0.335000
     15 O15         1.4430   -2.0610    1.7790 o         1 641     -0.347000
     16 C15        -2.8080    2.9780    0.3790 c2        1 641      0.097000
     17 C20        -4.0580    2.3860    0.4660 c2        1 641     -0.155000
     18 C19        -5.1080    3.0680    1.0600 c1        1 641     -0.028000
     19 CL2        -6.6810    2.3240    1.1660 cl        1 641      0.001000
     20 C18        -4.9080    4.3430    1.5660 c1        1 641     -0.148000
     21 C17        -3.6580    4.9350    1.4780 c1        1 641     -0.026000
     22 C16        -2.6080    4.2520    0.8850 c1        1 641     -0.186000
     23 CL1        -3.4060    6.5370    2.1190 cl        1 641     -0.005000
     24 HN13       -1.5480    2.3590   -1.0930 hn        1 641      0.234000
     25 H9          0.5340    1.3790   -0.6400 hc        1 641      0.124000
     26 H101       -1.0870   -0.8610   -0.5200 h1        1 641      0.107500
     27 H102       -0.1300   -0.4520   -1.7380 h1        1 641      0.107500
     28 H81         1.3150    0.4490    1.9360 hc        1 641      0.125000
     29 H82         2.1710    0.5400    0.6930 hc        1 641      0.125000
     30 H3          0.0690   -3.0260   -1.4290 h1        1 641      0.089000
     31 H41         1.6330   -1.8080   -2.9050 hc        1 641      0.091250
     32 H42         2.1790   -3.2820   -2.6630 hc        1 641      0.091250
     33 H51         3.3290   -0.8960   -1.9180 hc        1 641      0.085750
     34 H52         4.0420   -2.3010   -2.1690 hc        1 641      0.085750
     35 H61         2.9430   -1.2840    0.0440 hc        1 641      0.078500
     36 H62         4.3710   -1.9090   -0.1690 hc        1 641      0.078500
     37 H4          3.7320   -3.8250    0.2280 hc        1 641      0.085750
     38 H1          2.9230   -2.9120    1.2550 hc        1 641      0.085750
     39 H2          1.9230   -4.4720   -0.7930 hc        1 641      0.091250
     40 H5          1.1790   -3.9960    0.5300 hc        1 641      0.091250
     41 H16        -1.7280    4.6700    0.8230 ha        1 641      0.147000
     42 H18        -5.6480    4.8230    1.9840 ha        1 641      0.165000
     43 H20        -4.1960    1.4830    0.1210 ha        1 641      0.191000
@<TRIPOS>BOND
     1    1    2 1   
     2    1    6 1   
     3    1   37 1   
     4    1   38 1   
     5    2    3 1   
     6    2   39 1   
     7    2   40 1   
     8    3    4 1   
     9    3   11 1   
    10    3   30 1   
    11    4    5 1   
    12    4   31 1   
    13    4   32 1   
    14    5    6 1   
    15    5   33 1   
    16    5   34 1   
    17    6   35 1   
    18    6   36 1   
    19    7    8 1   
    20    7   15 1   
    21    8    9 1   
    22    8   28 1   
    23    8   29 1   
    24    9   10 1   
    25    9   12 1   
    26    9   25 1   
    27   10   11 1   
    28   10   26 1   
    29   10   27 1   
    30   12   13 1   
    31   12   14 1   
    32   13   16 1   
    33   13   24 1   
    34   16   17 1   
    35   16   22 1   
    36   17   18 1   
    37   17   43 1   
    38   18   19 1   
    39   20   21 1   
    40   20   42 1   
    41   21   23 1   
    42   22   41 1   
@<TRIPOS>SUBSTRUCTURE
     1 641         1 TEMP              0 ****  ****    0 ROOT
