@<TRIPOS>MOLECULE
641
   43    45     1     0     0
SMALL
bcc


@<TRIPOS>ATOM
      1 C1         -1.9830    1.5490   -2.4820 c3        1 641     -0.075900
      2 C2         -1.1900    2.5250   -3.3260 c3        1 641     -0.091900
      3 C3          0.2930    2.1140   -3.3600 c3        1 641      0.115700
      4 C4          0.8350    2.0870   -1.9180 c3        1 641     -0.091900
      5 C5          0.0360    1.1120   -1.0780 c3        1 641     -0.075900
      6 C6         -1.4370    1.4630   -1.0720 c3        1 641     -0.080400
      7 C7          2.0180    2.4390   -5.1460 c         1 641      0.700500
      8 C8          2.8350    3.5930   -5.7240 c3        1 641     -0.165400
      9 C9          2.2560    4.8620   -5.0930 c3        1 641     -0.156700
     10 C10         1.1980    4.3690   -4.0700 c3        1 641      0.094000
     11 N11         1.0720    2.9370   -4.2550 n         1 641     -0.476800
     12 C12         3.3130    5.7380   -4.4340 c         1 641      0.673100
     13 N13         4.3390    6.1550   -5.2750 n         1 641     -0.472100
     14 O14         3.2370    6.0750   -3.2410 o         1 641     -0.575100
     15 O15         2.1640    1.2460   -5.4480 o         1 641     -0.619500
     16 C15         5.4360    6.9680   -4.9540 ca        1 641      0.089600
     17 C20         5.6010    7.5770   -3.6920 ca        1 641     -0.170500
     18 C19         6.7180    8.3800   -3.4560 ca        1 641      0.051400
     19 CL2         6.9040    9.1070   -1.9310 cl        1 641     -0.080400
     20 C18         7.6850    8.6040   -4.4380 ca        1 641     -0.148000
     21 C17         7.5140    7.9990   -5.6860 ca        1 641      0.051400
     22 C16         6.4130    7.1900   -5.9560 ca        1 641     -0.170500
     23 CL1         8.6750    8.2530   -6.9020 cl        1 641     -0.080400
     24 HN13        4.3260    5.8030   -6.2080 hn        1 641      0.320500
     25 H9          1.7380    5.4820   -5.8750 hc        1 641      0.085700
     26 H101        1.5080    4.6140   -3.0150 h1        1 641      0.069200
     27 H102        0.2070    4.8600   -4.2720 h1        1 641      0.069200
     28 H81         3.9090    3.4280   -5.4610 hc        1 641      0.085700
     29 H82         2.7360    3.6000   -6.8370 hc        1 641      0.085700
     30 H3          0.3550    1.0590   -3.7730 h1        1 641      0.085700
     31 H41         0.7720    3.1110   -1.4680 hc        1 641      0.047200
     32 H42         1.9120    1.7800   -1.9210 hc        1 641      0.047200
     33 H51         0.4290    1.1220   -0.0280 hc        1 641      0.044200
     34 H52         0.1720    0.0730   -1.4790 hc        1 641      0.044200
     35 H61        -2.0060    0.6880   -0.4960 hc        1 641      0.041700
     36 H62        -1.5860    2.4460   -0.5520 hc        1 641      0.041700
     37 H4         -1.9540    0.5330   -2.9580 hc        1 641      0.044200
     38 H1         -3.0550    1.8760   -2.4510 hc        1 641      0.044200
     39 H2         -1.6060    2.5420   -4.3670 hc        1 641      0.047200
     40 H5         -1.2870    3.5580   -2.9010 hc        1 641      0.047200
     41 H16         6.3130    6.7290   -6.9510 ha        1 641      0.169000
     42 H18         8.5600    9.2410   -4.2360 ha        1 641      0.165000
     43 H20         4.8610    7.4250   -2.8870 ha        1 641      0.169000
@<TRIPOS>BOND
     1    1    2 1   
     2    1    6 1   
     3    1   37 1   
     4    1   38 1   
     5    2    3 1   
     6    2   39 1   
     7    2   40 1   
     8    3    4 1   
     9    3   11 1   
    10    3   30 1   
    11    4    5 1   
    12    4   31 1   
    13    4   32 1   
    14    5    6 1   
    15    5   33 1   
    16    5   34 1   
    17    6   35 1   
    18    6   36 1   
    19    7    8 1   
    20    7   11 1   
    21    7   15 2   
    22    8    9 1   
    23    8   28 1   
    24    8   29 1   
    25    9   10 1   
    26    9   12 1   
    27    9   25 1   
    28   10   11 1   
    29   10   26 1   
    30   10   27 1   
    31   12   13 1   
    32   12   14 2   
    33   13   16 1   
    34   13   24 1   
    35   16   17 ar  
    36   16   22 ar  
    37   17   18 ar  
    38   17   43 1   
    39   18   19 1   
    40   18   20 ar  
    41   20   21 ar  
    42   20   42 1   
    43   21   22 ar  
    44   21   23 1   
    45   22   41 1   
@<TRIPOS>SUBSTRUCTURE
     1 641         1 TEMP              0 ****  ****    0 ROOT
