@<TRIPOS>MOLECULE
642
   58    63     1     0     0
SMALL
bcc


@<TRIPOS>ATOM
      1 C1         -6.3990    1.6130    0.5860 cx        1 642     -0.164700
      2 C2         -6.2790    0.1030    0.6010 cx        1 642     -0.232000
      3 C3         -7.6110    0.7660    0.3720 cx        1 642     -0.083400
      4 C4         -5.7850    2.4050   -0.5630 c         1 642      0.929600
      5 O1         -6.5540    3.0400   -1.3330 o         1 642     -0.834800
      6 O2         -4.5220    2.3940   -0.6750 o         1 642     -0.834800
      7 C5         -5.9630   -0.5960    1.8910 c         1 642      0.718500
      8 N1         -5.0880   -1.6750    1.6430 n         1 642     -0.546900
      9 O3         -6.3970   -0.3400    3.0260 o         1 642     -0.647500
     10 C6         -4.6380   -1.6630    0.2500 c3        1 642      0.128000
     11 C7         -5.5450   -0.6400   -0.4900 c3        1 642     -0.052400
     12 C8         -3.1660   -1.3870    0.0960 ca        1 642     -0.142300
     13 C9         -2.6640   -0.0810   -0.0100 ca        1 642     -0.085500
     14 C10        -1.2960    0.1350   -0.1360 ca        1 642     -0.185500
     15 C11        -0.4200   -0.9640   -0.1560 ca        1 642      0.107100
     16 C12        -0.9070   -2.2710   -0.0540 ca        1 642     -0.185500
     17 C13        -2.2820   -2.4690    0.0730 ca        1 642     -0.085500
     18 O4          0.9200   -0.6410   -0.3190 os        1 642     -0.335900
     19 C14         1.8390   -1.6970   -0.0240 c3        1 642      0.168700
     20 C15         3.2200   -1.1260    0.0130 ca        1 642     -0.041300
     21 N2          5.8620   -0.0890    0.0980 nb        1 642     -0.665000
     22 C16         4.8220    0.6870   -0.2040 cp        1 642      0.481800
     23 C17         3.4710    0.1960   -0.2610 ca        1 642     -0.210300
     24 C18         5.6230   -1.4200    0.3700 ca        1 642      0.398600
     25 C19         4.3120   -1.9900    0.3420 ca        1 642     -0.142300
     26 C20         4.1470   -3.3680    0.6330 ca        1 642     -0.113000
     27 C21         5.2290   -4.1550    0.9430 ca        1 642     -0.131000
     28 C22         6.5290   -3.5990    0.9750 ca        1 642     -0.131000
     29 C23         6.7310   -2.2710    0.6980 ca        1 642     -0.165300
     30 C24         5.0410    2.1170   -0.4990 cp        1 642     -0.151500
     31 C25         6.1460    2.5310   -1.2530 ca        1 642     -0.099500
     32 C26         6.3280    3.8840   -1.5380 ca        1 642     -0.138000
     33 C27         5.4160    4.8290   -1.0710 ca        1 642     -0.122000
     34 C28         4.3190    4.4200   -0.3130 ca        1 642     -0.138000
     35 C29         4.1290    3.0700   -0.0260 ca        1 642     -0.099500
     36 H1         -6.2870    2.1410    1.5530 hc        1 642      0.080700
     37 H3         -8.3720    0.6930    1.1700 hc        1 642      0.068700
     38 H3A        -8.0470    0.7240   -0.6430 hc        1 642      0.068700
     39 HN1        -4.4260   -1.9210    2.3390 hn        1 642      0.292500
     40 H6         -4.8420   -2.6960   -0.1640 h1        1 642      0.043700
     41 H7         -6.2660   -1.1870   -1.1460 hc        1 642      0.075200
     42 H7A        -4.9520    0.0680   -1.1240 hc        1 642      0.075200
     43 H9         -3.3530    0.7970   -0.0100 ha        1 642      0.176000
     44 H10        -0.8980    1.1550   -0.2300 ha        1 642      0.137500
     45 H12        -0.2330   -3.1360   -0.0780 ha        1 642      0.137500
     46 H13        -2.6700   -3.4960    0.1530 ha        1 642      0.176000
     47 H14         1.5840   -2.1570    0.9700 h1        1 642      0.053200
     48 H14A        1.7690   -2.4770   -0.8310 h1        1 642      0.053200
     49 H17         2.6550    0.8850   -0.5310 ha        1 642      0.176000
     50 H20         3.1360   -3.8020    0.6080 ha        1 642      0.134000
     51 H21         5.0980   -5.2230    1.1690 ha        1 642      0.131000
     52 H22         7.3800   -4.2480    1.2270 ha        1 642      0.130000
     53 H23         7.7430   -1.8370    0.7240 ha        1 642      0.146000
     54 H25         6.8720    1.7900   -1.6210 ha        1 642      0.144500
     55 H26         7.1950    4.2030   -2.1350 ha        1 642      0.132500
     56 H27         5.5610    5.8950   -1.3000 ha        1 642      0.129000
     57 H28         3.5970    5.1630    0.0580 ha        1 642      0.132500
     58 H29         3.2630    2.7540    0.5770 ha        1 642      0.144500
@<TRIPOS>BOND
     1    1    2 1   
     2    1    3 1   
     3    1    4 1   
     4    1   36 1   
     5    2    3 1   
     6    2    7 1   
     7    2   11 1   
     8    3   37 1   
     9    3   38 1   
    10    4    5 1   
    11    4    6 1   
    12    7    8 1   
    13    7    9 2   
    14    8   10 1   
    15    8   39 1   
    16   10   11 1   
    17   10   12 1   
    18   10   40 1   
    19   11   41 1   
    20   11   42 1   
    21   12   13 ar  
    22   12   17 ar  
    23   13   14 ar  
    24   13   43 1   
    25   14   15 ar  
    26   14   44 1   
    27   15   16 ar  
    28   15   18 1   
    29   16   17 ar  
    30   16   45 1   
    31   17   46 1   
    32   18   19 1   
    33   19   20 1   
    34   19   47 1   
    35   19   48 1   
    36   20   23 ar  
    37   20   25 ar  
    38   21   22 ar  
    39   21   24 ar  
    40   22   23 ar  
    41   22   30 1   
    42   23   49 1   
    43   24   25 ar  
    44   24   29 ar  
    45   25   26 ar  
    46   26   27 ar  
    47   26   50 1   
    48   27   28 ar  
    49   27   51 1   
    50   28   29 ar  
    51   28   52 1   
    52   29   53 1   
    53   30   31 ar  
    54   30   35 ar  
    55   31   32 ar  
    56   31   54 1   
    57   32   33 ar  
    58   32   55 1   
    59   33   34 ar  
    60   33   56 1   
    61   34   35 ar  
    62   34   57 1   
    63   35   58 1   
@<TRIPOS>SUBSTRUCTURE
     1 642         1 TEMP              0 ****  ****    0 ROOT
