@<TRIPOS>MOLECULE
642
   58    63     1     0     0
SMALL
bcc


@<TRIPOS>ATOM
      1 C1          0.6830    0.5510   -1.3100 cx        1 642     -0.165700
      2 C2          1.6700    0.0570   -0.2730 cx        1 642     -0.232000
      3 C3          0.2540    0.3940    0.1130 cx        1 642     -0.082400
      4 C4          0.1850   -0.4070   -2.3880 c         1 642      0.929600
      5 O1         -1.0330   -0.7280   -2.3900 o         1 642     -0.835300
      6 O2          1.0290   -0.8220   -3.2380 o         1 642     -0.835300
      7 C5          2.8210    0.9350    0.1230 c         1 642      0.718500
      8 N1          3.9760    0.1460    0.3140 ns        1 642     -0.546900
      9 O3          2.8180    2.1630    0.3060 o         1 642     -0.647500
     10 C6          3.7260   -1.2380   -0.0920 c3        1 642      0.128000
     11 C7          2.1890   -1.3610   -0.2920 c3        1 642     -0.053400
     12 C8          4.5210   -1.6660   -1.2980 ca        1 642     -0.141300
     13 C9          4.0580   -1.4440   -2.6030 ca        1 642     -0.086500
     14 C10         4.8200   -1.8500   -3.6940 ca        1 642     -0.182000
     15 C11         6.0590   -2.4760   -3.4780 ca        1 642      0.104100
     16 C12         6.5340   -2.6990   -2.1820 ca        1 642     -0.182000
     17 C13         5.7560   -2.2890   -1.1000 ca        1 642     -0.086500
     18 O4          6.7660   -2.7990   -4.6290 os        1 642     -0.336900
     19 C14         7.7650   -3.8090   -4.4570 c3        1 642      0.168700
     20 C15         8.1500   -4.3310   -5.8040 ca        1 642     -0.042300
     21 N2          8.9150   -5.3530   -8.3410 nb        1 642     -0.665000
     22 C16         7.9680   -4.4230   -8.2250 cp        1 642      0.481800
     23 C17         7.5580   -3.8790   -6.9590 ca        1 642     -0.210300
     24 C18         9.5180   -5.8140   -7.1890 ca        1 642      0.398600
     25 C19         9.1670   -5.3330   -5.8900 ca        1 642     -0.141300
     26 C20         9.8290   -5.8610   -4.7520 ca        1 642     -0.112000
     27 C21        10.8010   -6.8220   -4.8870 ca        1 642     -0.132000
     28 C22        11.1550   -7.3010   -6.1690 ca        1 642     -0.131000
     29 C23        10.5370   -6.8180   -7.2940 ca        1 642     -0.165300
     30 C24         7.2950   -3.9130   -9.4360 cp        1 642     -0.151500
     31 C25         8.0210   -3.6670  -10.6090 ca        1 642     -0.100000
     32 C26         7.3720   -3.1680  -11.7380 ca        1 642     -0.138500
     33 C27         6.0010   -2.9180  -11.7070 ca        1 642     -0.122000
     34 C28         5.2740   -3.1690  -10.5430 ca        1 642     -0.138500
     35 C29         5.9160   -3.6650   -9.4100 ca        1 642     -0.100000
     36 H1          0.8330    1.5730   -1.7080 hc        1 642      0.080700
     37 H3          0.0840    1.2930    0.7320 hc        1 642      0.068700
     38 H3A        -0.4300   -0.4370    0.3630 hc        1 642      0.068700
     39 HN1         4.8610    0.5370    0.0990 hn        1 642      0.293500
     40 H6          4.0350   -1.8910    0.7780 h1        1 642      0.043700
     41 H7          1.7490   -1.9530    0.5480 hc        1 642      0.074700
     42 H7A         1.9300   -1.8660   -1.2580 hc        1 642      0.074700
     43 H9          3.0650   -0.9680   -2.7830 ha        1 642      0.175500
     44 H10         4.4570   -1.6870   -4.7190 ha        1 642      0.137500
     45 H12         7.5030   -3.1820   -2.0070 ha        1 642      0.137500
     46 H13         6.1250   -2.4640   -0.0780 ha        1 642      0.175500
     47 H14         8.6580   -3.3470   -3.9540 h1        1 642      0.053700
     48 H14A        7.3650   -4.6460   -3.8220 h1        1 642      0.053700
     49 H17         6.7790   -3.1000   -6.9300 ha        1 642      0.175000
     50 H20         9.5520   -5.4890   -3.7530 ha        1 642      0.134000
     51 H21        11.3120   -7.2290   -4.0030 ha        1 642      0.130000
     52 H22        11.9360   -8.0720   -6.2530 ha        1 642      0.129000
     53 H23        10.8110   -7.1930   -8.2920 ha        1 642      0.146000
     54 H25         9.1020   -3.8680  -10.6400 ha        1 642      0.144500
     55 H26         7.9470   -2.9730  -12.6550 ha        1 642      0.132500
     56 H27         5.4930   -2.5220  -12.5980 ha        1 642      0.128000
     57 H28         4.1920   -2.9730  -10.5150 ha        1 642      0.132500
     58 H29         5.3350   -3.8660   -8.4960 ha        1 642      0.144500
@<TRIPOS>BOND
     1    1    2 1   
     2    1    3 1   
     3    1    4 1   
     4    1   36 1   
     5    2    3 1   
     6    2    7 1   
     7    2   11 1   
     8    3   37 1   
     9    3   38 1   
    10    4    5 1   
    11    4    6 1   
    12    7    8 1   
    13    7    9 2   
    14    8   10 1   
    15    8   39 1   
    16   10   11 1   
    17   10   12 1   
    18   10   40 1   
    19   11   41 1   
    20   11   42 1   
    21   12   13 ar  
    22   12   17 ar  
    23   13   14 ar  
    24   13   43 1   
    25   14   15 ar  
    26   14   44 1   
    27   15   16 ar  
    28   15   18 1   
    29   16   17 ar  
    30   16   45 1   
    31   17   46 1   
    32   18   19 1   
    33   19   20 1   
    34   19   47 1   
    35   19   48 1   
    36   20   23 ar  
    37   20   25 ar  
    38   21   22 ar  
    39   21   24 ar  
    40   22   23 ar  
    41   22   30 1   
    42   23   49 1   
    43   24   25 ar  
    44   24   29 ar  
    45   25   26 ar  
    46   26   27 ar  
    47   26   50 1   
    48   27   28 ar  
    49   27   51 1   
    50   28   29 ar  
    51   28   52 1   
    52   29   53 1   
    53   30   31 ar  
    54   30   35 ar  
    55   31   32 ar  
    56   31   54 1   
    57   32   33 ar  
    58   32   55 1   
    59   33   34 ar  
    60   33   56 1   
    61   34   35 ar  
    62   34   57 1   
    63   35   58 1   
@<TRIPOS>SUBSTRUCTURE
     1 642         1 TEMP              0 ****  ****    0 ROOT
