@<TRIPOS>MOLECULE
642
   58    63     1     0     0
SMALL
bcc


@<TRIPOS>ATOM
      1 C1          0.6750    0.5460   -1.3100 cx        1 642     -0.165700
      2 C2          1.6680    0.0600   -0.2740 cx        1 642     -0.232000
      3 C3          0.2530    0.3940    0.1160 cx        1 642     -0.082400
      4 C4          0.1760   -0.4180   -2.3810 c         1 642      0.929600
      5 O1         -1.0410   -0.7430   -2.3770 o         1 642     -0.835300
      6 O2          1.0170   -0.8340   -3.2330 o         1 642     -0.835300
      7 C5          2.8180    0.9440    0.1130 c         1 642      0.718500
      8 N1          3.9760    0.1590    0.3030 n         1 642     -0.546900
      9 O3          2.8110    2.1730    0.2910 o         1 642     -0.647500
     10 C6          3.7290   -1.2270   -0.0970 c3        1 642      0.128000
     11 C7          2.1910   -1.3560   -0.2900 c3        1 642     -0.053400
     12 C8          4.5200   -1.6580   -1.3040 ca        1 642     -0.141300
     13 C9          4.0510   -1.4430   -2.6070 ca        1 642     -0.086500
     14 C10         4.8100   -1.8510   -3.7000 ca        1 642     -0.182500
     15 C11         6.0520   -2.4710   -3.4870 ca        1 642      0.104100
     16 C12         6.5340   -2.6870   -2.1920 ca        1 642     -0.182500
     17 C13         5.7580   -2.2760   -1.1080 ca        1 642     -0.086500
     18 O4          6.7560   -2.7970   -4.6390 os        1 642     -0.336900
     19 C14         7.7610   -3.8000   -4.4670 c3        1 642      0.168700
     20 C15         8.1450   -4.3240   -5.8130 ca        1 642     -0.042300
     21 N2          8.9080   -5.3520   -8.3490 nb        1 642     -0.665000
     22 C16         7.9550   -4.4280   -8.2330 cp        1 642      0.481800
     23 C17         7.5460   -3.8810   -6.9680 ca        1 642     -0.210300
     24 C18         9.5180   -5.8040   -7.1970 ca        1 642      0.398600
     25 C19         9.1680   -5.3210   -5.8980 ca        1 642     -0.141300
     26 C20         9.8380   -5.8400   -4.7600 ca        1 642     -0.112000
     27 C21        10.8150   -6.7950   -4.8950 ca        1 642     -0.132000
     28 C22        11.1680   -7.2770   -6.1770 ca        1 642     -0.131000
     29 C23        10.5430   -6.8020   -7.3010 ca        1 642     -0.165300
     30 C24         7.2760   -3.9260   -9.4440 cp        1 642     -0.151500
     31 C25         7.9950   -3.6800  -10.6200 ca        1 642     -0.100000
     32 C26         7.3400   -3.1900  -11.7480 ca        1 642     -0.138500
     33 C27         5.9680   -2.9480  -11.7140 ca        1 642     -0.122000
     34 C28         5.2460   -3.1990  -10.5470 ca        1 642     -0.138500
     35 C29         5.8950   -3.6870   -9.4140 ca        1 642     -0.100000
     36 H1          0.8200    1.5670   -1.7120 hc        1 642      0.080700
     37 H3          0.0820    1.2950    0.7310 hc        1 642      0.068700
     38 H3A        -0.4280   -0.4390    0.3730 hc        1 642      0.068700
     39 HN1         4.8590    0.5520    0.0830 hn        1 642      0.293500
     40 H6          4.0440   -1.8750    0.7750 h1        1 642      0.043700
     41 H7          1.7570   -1.9460    0.5550 hc        1 642      0.074700
     42 H7A         1.9300   -1.8670   -1.2520 hc        1 642      0.074700
     43 H9          3.0550   -0.9710   -2.7850 ha        1 642      0.175500
     44 H10         4.4430   -1.6930   -4.7250 ha        1 642      0.137500
     45 H12         7.5050   -3.1660   -2.0180 ha        1 642      0.137500
     46 H13         6.1320   -2.4450   -0.0870 ha        1 642      0.175500
     47 H14         7.3690   -4.6370   -3.8270 h1        1 642      0.053700
     48 H14A        8.6540   -3.3300   -3.9690 h1        1 642      0.053700
     49 H17         6.7630   -3.1070   -6.9390 ha        1 642      0.175000
     50 H20         9.5620   -5.4660   -3.7620 ha        1 642      0.134000
     51 H21        11.3320   -7.1960   -4.0110 ha        1 642      0.130000
     52 H22        11.9530   -8.0440   -6.2600 ha        1 642      0.129000
     53 H23        10.8160   -7.1800   -8.2990 ha        1 642      0.146000
     54 H25         9.0780   -3.8740  -10.6540 ha        1 642      0.144500
     55 H26         7.9100   -2.9940  -12.6680 ha        1 642      0.132500
     56 H27         5.4540   -2.5590  -12.6050 ha        1 642      0.128000
     57 H28         4.1630   -3.0100  -10.5160 ha        1 642      0.132500
     58 H29         5.3190   -3.8880   -8.4970 ha        1 642      0.144500
@<TRIPOS>BOND
     1    1    2 1   
     2    1    3 1   
     3    1    4 1   
     4    1   36 1   
     5    2    3 1   
     6    2    7 1   
     7    2   11 1   
     8    3   37 1   
     9    3   38 1   
    10    4    5 1   
    11    4    6 1   
    12    7    8 1   
    13    7    9 2   
    14    8   10 1   
    15    8   39 1   
    16   10   11 1   
    17   10   12 1   
    18   10   40 1   
    19   11   41 1   
    20   11   42 1   
    21   12   13 ar  
    22   12   17 ar  
    23   13   14 ar  
    24   13   43 1   
    25   14   15 ar  
    26   14   44 1   
    27   15   16 ar  
    28   15   18 1   
    29   16   17 ar  
    30   16   45 1   
    31   17   46 1   
    32   18   19 1   
    33   19   20 1   
    34   19   47 1   
    35   19   48 1   
    36   20   23 ar  
    37   20   25 ar  
    38   21   22 ar  
    39   21   24 ar  
    40   22   23 ar  
    41   22   30 1   
    42   23   49 1   
    43   24   25 ar  
    44   24   29 ar  
    45   25   26 ar  
    46   26   27 ar  
    47   26   50 1   
    48   27   28 ar  
    49   27   51 1   
    50   28   29 ar  
    51   28   52 1   
    52   29   53 1   
    53   30   31 ar  
    54   30   35 ar  
    55   31   32 ar  
    56   31   54 1   
    57   32   33 ar  
    58   32   55 1   
    59   33   34 ar  
    60   33   56 1   
    61   34   35 ar  
    62   34   57 1   
    63   35   58 1   
@<TRIPOS>SUBSTRUCTURE
     1 642         1 TEMP              0 ****  ****    0 ROOT
