@<TRIPOS>MOLECULE
642
   58    63     1     0     0
SMALL
bcc


@<TRIPOS>ATOM
      1 C1          0.6820    0.5240   -1.2870 cx        1 642     -0.165700
      2 C2          1.6800    0.0420   -0.2540 cx        1 642     -0.233000
      3 C3          0.2640    0.3680    0.1400 cx        1 642     -0.082400
      4 C4          0.1850   -0.4420   -2.3580 c         1 642      0.929600
      5 O1         -1.0310   -0.7740   -2.3510 o         1 642     -0.835300
      6 O2          1.0260   -0.8520   -3.2130 o         1 642     -0.835300
      7 C5          2.8270    0.9300    0.1310 c         1 642      0.718500
      8 N1          3.9890    0.1510    0.3160 n         1 642     -0.546900
      9 O3          2.8150    2.1590    0.3090 o         1 642     -0.647500
     10 C6          3.7470   -1.2360   -0.0840 c3        1 642      0.128000
     11 C7          2.2100   -1.3730   -0.2730 c3        1 642     -0.053400
     12 C8          4.5380   -1.6620   -1.2930 ca        1 642     -0.141300
     13 C9          4.0640   -1.4480   -2.5960 ca        1 642     -0.086500
     14 C10         4.8210   -1.8520   -3.6910 ca        1 642     -0.182000
     15 C11         6.0670   -2.4670   -3.4810 ca        1 642      0.104100
     16 C12         6.5530   -2.6820   -2.1880 ca        1 642     -0.182000
     17 C13         5.7790   -2.2750   -1.1010 ca        1 642     -0.086500
     18 O4          6.7690   -2.7890   -4.6350 os        1 642     -0.336900
     19 C14         7.7740   -3.7930   -4.4680 c3        1 642      0.168700
     20 C15         8.1520   -4.3170   -5.8160 ca        1 642     -0.042300
     21 N2          8.9030   -5.3450   -8.3550 nb        1 642     -0.665000
     22 C16         7.9530   -4.4190   -8.2350 cp        1 642      0.481800
     23 C17         7.5490   -3.8720   -6.9680 ca        1 642     -0.210300
     24 C18         9.5170   -5.7990   -7.2060 ca        1 642      0.398600
     25 C19         9.1730   -5.3160   -5.9060 ca        1 642     -0.141300
     26 C20         9.8460   -5.8360   -4.7710 ca        1 642     -0.112000
     27 C21        10.8210   -6.7930   -4.9100 ca        1 642     -0.132000
     28 C22        11.1680   -7.2750   -6.1930 ca        1 642     -0.131000
     29 C23        10.5400   -6.7980   -7.3150 ca        1 642     -0.165300
     30 C24         7.2690   -3.9150   -9.4430 cp        1 642     -0.151500
     31 C25         7.9840   -3.6700  -10.6210 ca        1 642     -0.100000
     32 C26         7.3250   -3.1780  -11.7470 ca        1 642     -0.138500
     33 C27         5.9530   -2.9340  -11.7070 ca        1 642     -0.122000
     34 C28         5.2360   -3.1840  -10.5370 ca        1 642     -0.138500
     35 C29         5.8880   -3.6740   -9.4070 ca        1 642     -0.100000
     36 H1          0.8210    1.5450   -1.6890 hc        1 642      0.080700
     37 H3         -0.4120   -0.4680    0.3980 hc        1 642      0.068700
     38 H3A         0.0910    1.2680    0.7560 hc        1 642      0.068700
     39 HN1         4.8690    0.5480    0.0940 hn        1 642      0.293500
     40 H6          4.0680   -1.8830    0.7860 h1        1 642      0.043700
     41 H7          1.7810   -1.9650    0.5730 hc        1 642      0.074700
     42 H7A         1.9490   -1.8830   -1.2350 hc        1 642      0.074700
     43 H9          3.0660   -0.9800   -2.7700 ha        1 642      0.175500
     44 H10         4.4510   -1.6950   -4.7140 ha        1 642      0.137500
     45 H12         7.5270   -3.1570   -2.0180 ha        1 642      0.137500
     46 H13         6.1560   -2.4440   -0.0810 ha        1 642      0.175500
     47 H14         7.3830   -4.6300   -3.8270 h1        1 642      0.053700
     48 H14A        8.6690   -3.3240   -3.9730 h1        1 642      0.053700
     49 H17         6.7670   -3.0970   -6.9360 ha        1 642      0.175000
     50 H20         9.5750   -5.4620   -3.7710 ha        1 642      0.134000
     51 H21        11.3410   -7.1950   -4.0280 ha        1 642      0.130000
     52 H22        11.9520   -8.0430   -6.2800 ha        1 642      0.129000
     53 H23        10.8090   -7.1760   -8.3140 ha        1 642      0.146000
     54 H25         9.0670   -3.8660  -10.6600 ha        1 642      0.144500
     55 H26         7.8920   -2.9830  -12.6690 ha        1 642      0.132500
     56 H27         5.4360   -2.5440  -12.5960 ha        1 642      0.128000
     57 H28         4.1530   -2.9940  -10.5020 ha        1 642      0.132500
     58 H29         5.3160   -3.8750   -8.4880 ha        1 642      0.144500
@<TRIPOS>BOND
     1    1    2 1   
     2    1    3 1   
     3    1    4 1   
     4    1   36 1   
     5    2    3 1   
     6    2    7 1   
     7    2   11 1   
     8    3   37 1   
     9    3   38 1   
    10    4    5 1   
    11    4    6 1   
    12    7    8 1   
    13    7    9 2   
    14    8   10 1   
    15    8   39 1   
    16   10   11 1   
    17   10   12 1   
    18   10   40 1   
    19   11   41 1   
    20   11   42 1   
    21   12   13 ar  
    22   12   17 ar  
    23   13   14 ar  
    24   13   43 1   
    25   14   15 ar  
    26   14   44 1   
    27   15   16 ar  
    28   15   18 1   
    29   16   17 ar  
    30   16   45 1   
    31   17   46 1   
    32   18   19 1   
    33   19   20 1   
    34   19   47 1   
    35   19   48 1   
    36   20   23 ar  
    37   20   25 ar  
    38   21   22 ar  
    39   21   24 ar  
    40   22   23 ar  
    41   22   30 1   
    42   23   49 1   
    43   24   25 ar  
    44   24   29 ar  
    45   25   26 ar  
    46   26   27 ar  
    47   26   50 1   
    48   27   28 ar  
    49   27   51 1   
    50   28   29 ar  
    51   28   52 1   
    52   29   53 1   
    53   30   31 ar  
    54   30   35 ar  
    55   31   32 ar  
    56   31   54 1   
    57   32   33 ar  
    58   32   55 1   
    59   33   34 ar  
    60   33   56 1   
    61   34   35 ar  
    62   34   57 1   
    63   35   58 1   
@<TRIPOS>SUBSTRUCTURE
     1 642         1 TEMP              0 ****  ****    0 ROOT
