@<TRIPOS>MOLECULE
642
   58    53     1     0     0
SMALL
bcc


@<TRIPOS>ATOM
      1 C1         -4.1980    5.4620    3.8850 cx        1 642     -0.156000
      2 C2         -3.5540    4.0100    4.0220 cx        1 642     -0.183000
      3 C3         -4.7250    4.4150    4.9880 cx        1 642     -0.161000
      4 C4         -5.0480    5.8360    2.6860 c2        1 642      0.348000
      5 O1         -6.0290    6.6190    2.8280 o         1 642     -0.570000
      6 O2         -4.7410    5.4120    1.5380 o         1 642     -0.570000
      7 C5         -2.2460    3.8000    4.6870 c2        1 642      0.325000
      8 N1         -1.9500    2.2990    4.5060 n         1 642     -0.356000
      9 O3         -1.7350    4.5370    5.5140 o         1 642     -0.372000
     10 C6         -3.0040    1.7540    3.4090 c3        1 642      0.044000
     11 C7         -3.8860    2.9050    3.0570 c3        1 642     -0.129000
     12 C8         -2.3250    1.2970    2.2700 c2        1 642     -0.141000
     13 C9         -1.0520    1.7840    1.9790 c2        1 642     -0.067000
     14 C10        -0.3170    1.2310    0.9340 c1        1 642     -0.195000
     15 C11        -0.8540    0.1920    0.1780 c1        1 642      0.057000
     16 C12        -2.1260   -0.2940    0.4670 c1        1 642     -0.174000
     17 C13        -2.8610    0.2580    1.5130 c1        1 642     -0.103000
     18 O4         -0.0670   -0.4340   -0.8280 os        1 642     -0.222000
     19 C14         0.6930   -1.5440   -0.3590 c3        1 642      0.006000
     20 C15         1.3480   -2.2560   -1.5500 c2        1 642     -0.020000
     21 N2          2.9700   -3.4470   -3.4520 n1        1 642     -0.134000
     22 C16         3.3930   -2.3170   -2.8020 c1        1 642      0.039000
     23 C17         2.5760   -1.7150   -1.8430 c2        1 642     -0.166000
     24 C18         1.7270   -3.9970   -3.1570 c1        1 642      0.002000
     25 C19         0.9180   -3.4050   -2.2100 c1        1 642     -0.062000
     26 C20        -0.3410   -3.9690   -1.9060 c1        1 642     -0.094000
     27 C21        -0.7660   -5.1230   -2.5630 c1        1 642     -0.125833
     28 C22         0.0530   -5.7220   -3.5210 c1        1 642     -0.125833
     29 C23         1.2960   -5.1670   -3.8220 c1        1 642     -0.110000
     30 C24         4.6350   -1.8340   -3.2450 c1        1 642     -0.038000
     31 C25         5.8110   -2.3170   -2.6790 c1        1 642     -0.125833
     32 C26         7.0400   -1.8200   -3.1000 c1        1 642     -0.125833
     33 C27         7.0940   -0.8420   -4.0870 c1        1 642     -0.125833
     34 C28         5.9190   -0.3600   -4.6530 c1        1 642     -0.125833
     35 C29         4.6890   -0.8560   -4.2320 c1        1 642     -0.111000
     36 H1         -3.6810    6.2470    4.1750 hc        1 642      0.120000
     37 H3         -4.4650    4.6070    5.9160 hc        1 642      0.109000
     38 H3A        -5.5940    4.0000    4.8000 hc        1 642      0.109000
     39 HN1        -1.2010    1.8580    4.8000 hn        1 642      0.207000
     40 H6         -3.5420    1.0260    3.7940 h1        1 642      0.085000
     41 H7         -3.7060    3.1970    2.1360 hc        1 642      0.112000
     42 H7A        -4.8300    2.6470    3.1520 hc        1 642      0.112000
     43 H9         -0.6740    2.5150    2.5110 ha        1 642      0.227000
     44 H10         0.5620    1.6030    0.7020 ha        1 642      0.145000
     45 H12        -2.5220   -0.9960   -0.0930 ha        1 642      0.135000
     46 H13        -3.7610   -0.0800    1.7120 ha        1 642      0.123000
     47 H14         0.1000   -2.1710    0.1120 h1        1 642      0.097500
     48 H14A        1.3900   -1.2270    0.2570 h1        1 642      0.097500
     49 H17         2.8790   -0.9060   -1.3780 ha        1 642      0.153000
     50 H20        -0.9050   -3.5640   -1.2150 ha        1 642      0.157000
     51 H21        -1.6370   -5.5190   -2.3450 ha        1 642      0.132500
     52 H22        -0.2510   -6.5270   -3.9930 ha        1 642      0.132500
     53 H23         1.8710   -5.5880   -4.4960 ha        1 642      0.143000
     54 H25         5.7730   -3.0170   -1.9920 ha        1 642      0.132500
     55 H26         7.8690   -2.1460   -2.6860 ha        1 642      0.132500
     56 H27         7.9600   -0.4770   -4.3690 ha        1 642      0.132500
     57 H28         5.9580    0.3110   -5.3690 ha        1 642      0.132500
     58 H29         4.0680   -0.1830   -4.5850 ha        1 642      0.141000
@<TRIPOS>BOND
     1    1    2 1   
     2    1    3 1   
     3    1    4 1   
     4    1   36 1   
     5    2    3 1   
     6    2    7 1   
     7    2   11 1   
     8    3   37 1   
     9    3   38 1   
    10    4    5 1   
    11    4    6 1   
    12    7    8 1   
    13    7    9 1   
    14    8   10 1   
    15    8   39 1   
    16   10   11 1   
    17   10   12 1   
    18   10   40 1   
    19   11   41 1   
    20   11   42 1   
    21   12   13 1   
    22   12   17 1   
    23   13   14 1   
    24   13   43 1   
    25   14   44 1   
    26   15   16 1   
    27   15   18 1   
    28   16   45 1   
    29   17   46 1   
    30   18   19 1   
    31   19   20 1   
    32   19   47 1   
    33   19   48 1   
    34   20   23 1   
    35   20   25 1   
    36   21   24 1   
    37   22   23 1   
    38   23   49 1   
    39   24   29 1   
    40   25   26 1   
    41   26   50 1   
    42   27   28 1   
    43   27   51 1   
    44   28   52 1   
    45   29   53 1   
    46   30   35 1   
    47   31   32 1   
    48   31   54 1   
    49   32   55 1   
    50   33   34 1   
    51   33   56 1   
    52   34   57 1   
    53   35   58 1   
@<TRIPOS>SUBSTRUCTURE
     1 642         1 TEMP              0 ****  ****    0 ROOT
