@<TRIPOS>MOLECULE
643
   62    50     1     0     0
SMALL
bcc


@<TRIPOS>ATOM
      1 C4         -0.1530    4.6780   -1.7790 c1        1 643     -0.062000
      2 C5         -0.0220    5.2560   -4.2980 c1        1 643     -0.135000
      3 C6          0.4140    4.7010   -3.0890 c1        1 643     -0.042000
      4 C7          1.5790    4.0150   -3.3400 c1        1 643     -0.043500
      5 C10         2.9740    3.9490   -5.6430 c3        1 643     -0.061000
      6 C15         0.4390    1.1780   -1.1950 c1        1 643     -0.129000
      7 C17         1.7980    1.5810    0.7370 c1        1 643     -0.027000
      8 C21         0.2390   -3.1580    3.9750 c1        1 643      0.032000
      9 C22         1.4660   -3.6740    3.6510 c1        1 643     -0.091000
     10 C26         0.1260   -2.2690    5.0080 c1        1 643     -0.090000
     11 C28        -1.3760   -3.3210    2.0420 c1        1 643     -0.163000
     12 C1          0.4800    3.9570   -0.7600 c1        1 643     -0.159500
     13 C2          1.6640    3.2620   -1.0260 c1        1 643     -0.043500
     14 C3          2.2150    3.2870   -2.3030 c1        1 643     -0.159500
     15 N8          1.8730    4.1380   -4.6990 n2        1 643     -0.190000
     16 C9          0.8910    4.8980   -5.2840 c1        1 643     -0.087000
     17 C11        -1.4630    5.3540   -4.6990 c1        1 643      0.379000
     18 O12        -2.0480    4.3560   -5.1860 o         1 643     -0.569000
     19 O13        -2.0940    6.4130   -4.5010 o         1 643     -0.569000
     20 C14         0.0750   -0.0630   -0.6780 c1        1 643     -0.129000
     21 C16         1.2940    1.9930   -0.4930 c1        1 643     -0.026000
     22 C18         1.4400    0.3480    1.2560 c1        1 643     -0.197000
     23 C19         0.5760   -0.4770    0.5470 c1        1 643      0.050000
     24 O20         0.2390   -1.7710    1.0600 os        1 643     -0.225000
     25 C23         2.5930   -3.2930    4.3720 c1        1 643     -0.069000
     26 N24         2.4760   -2.4050    5.4040 n1        1 643     -0.114000
     27 C25         1.2560   -1.8900    5.7280 c1        1 643     -0.068000
     28 C27        -0.9450   -3.6550    3.3230 c1        1 643     -0.086000
     29 C29        -2.4930   -4.1020    1.7480 c1        1 643      0.017000
     30 O30        -2.7410   -4.8900    2.8130 os        1 643     -0.059000
     31 N31        -1.7670   -4.6080    3.8040 n2        1 643      0.004000
     32 CL32        1.6090   -4.8150    2.3730 cl        1 643      0.033000
     33 C33        -3.2270   -4.1670    0.3700 c2        1 643     -0.053000
     34 C34        -4.7230   -4.2980    0.5970 c3        1 643     -0.208500
     35 C35        -2.7280   -5.3720   -0.4190 c3        1 643     -0.208500
     36 C36        -1.1240   -1.8880    1.4840 c2        1 643      0.049000
     37 CL37       -0.9580   -1.6940    6.2190 cl        1 643      0.030000
     38 C38         2.4910    2.3000    1.8970 c3        1 643     -0.184000
     39 H4         -0.9110    5.2400   -1.5720 ha        1 643      0.181000
     40 H10         3.6410    3.3230   -5.2560 h1        1 643      0.069667
     41 H10A        2.6210    3.5730   -6.4930 h1        1 643      0.069667
     42 H10B        3.4070    4.8200   -5.8230 h1        1 643      0.069667
     43 H15         0.1170    1.4530   -2.0690 ha        1 643      0.140000
     44 H1          0.0930    3.9380    0.1440 ha        1 643      0.116500
     45 H3          3.0210    2.8040   -2.4860 ha        1 643      0.116500
     46 H9          0.8610    5.1760   -6.2330 DU        1 643      0.170000
     47 H14        -0.5350   -0.6430   -1.1790 ha        1 643      0.140000
     48 H18         1.8560    0.0270    2.0860 ha        1 643      0.129000
     49 H23         3.4720   -3.5850    4.0840 ha        1 643      0.178000
     50 H25         1.1920   -1.1900    6.3910 ha        1 643      0.179000
     51 H33        -3.0420   -3.3450   -0.1400 ha        1 643      0.138000
     52 H34        -4.9140   -5.1450    1.0890 hc        1 643      0.083000
     53 H34A       -5.1930   -4.3110   -0.2840 hc        1 643      0.083000
     54 H34B       -5.0450   -3.5240    1.1320 hc        1 643      0.083000
     55 H35        -3.1080   -6.1830   -0.0480 hc        1 643      0.083000
     56 H35A       -2.9990   -5.2840   -1.3490 hc        1 643      0.083000
     57 H35B       -1.7690   -5.4140   -0.3660 hc        1 643      0.083000
     58 H36        -1.7130   -1.7260    0.7260 h4        1 643      0.096000
     59 H36A       -1.3080   -1.2150    2.1980 h4        1 643      0.096000
     60 H38         2.5030    3.2630    1.7240 hc        1 643      0.090000
     61 H38A        2.0020    2.1210    2.7330 hc        1 643      0.090000
     62 H38B        3.4040    1.9740    1.9800 hc        1 643      0.090000
@<TRIPOS>BOND
     1    1    3 1   
     2    1   39 1   
     3    2    3 1   
     4    2   16 1   
     5    4   14 1   
     6    5   15 1   
     7    5   40 1   
     8    5   41 1   
     9    5   42 1   
    10    6   20 1   
    11    6   43 1   
    12    7   21 1   
    13    7   38 1   
    14    8   10 1   
    15    9   25 1   
    16    9   32 1   
    17   10   37 1   
    18   11   28 1   
    19   11   29 1   
    20   12   13 1   
    21   12   44 1   
    22   14   45 1   
    23   15   16 1   
    24   17   18 1   
    25   17   19 1   
    26   20   47 1   
    27   22   23 1   
    28   22   48 1   
    29   23   24 1   
    30   24   36 1   
    31   25   49 1   
    32   26   27 1   
    33   27   50 1   
    34   28   31 1   
    35   29   30 1   
    36   30   31 1   
    37   33   34 1   
    38   33   35 1   
    39   33   51 1   
    40   34   52 1   
    41   34   53 1   
    42   34   54 1   
    43   35   55 1   
    44   35   56 1   
    45   35   57 1   
    46   36   58 1   
    47   36   59 1   
    48   38   60 1   
    49   38   61 1   
    50   38   62 1   
@<TRIPOS>SUBSTRUCTURE
     1 643         1 TEMP              0 ****  ****    0 ROOT
