@<TRIPOS>MOLECULE
643
   62    63     1     0     0
SMALL
bcc


@<TRIPOS>ATOM
      1 C4          0.9490    1.0950   -2.0980 c2        1 643     -0.022000
      2 C5          2.6960   -0.4950   -2.6150 c3        1 643     -0.110000
      3 C6          1.2340   -0.3790   -2.1300 c3        1 643     -0.074000
      4 C7          1.2500   -0.8420   -0.6870 c2        1 643     -0.057000
      5 C15        -2.5530   -0.0880    1.1050 c3        1 643     -0.131000
      6 C17        -2.6760    1.9050   -0.3230 c1        1 643     -0.121000
      7 C21        -3.9690   -2.1980    9.1880 c2        1 643     -0.032000
      8 C22        -4.1370   -3.5970    9.2420 c2        1 643     -0.145000
      9 C26        -3.5690   -1.6510    7.9640 c2        1 643     -0.103000
     10 C28        -3.1250   -0.8650   11.2520 c2        1 643     -0.264000
     11 C1          0.0110    1.5980   -1.2770 c2        1 643     -0.115000
     12 C2         -0.6170    0.6550   -0.3360 c2        1 643     -0.030000
     13 C3          0.2900   -0.3930    0.1510 c2        1 643     -0.137000
     14 N8          2.4540   -1.5590   -0.4530 n7        1 643     -0.203000
     15 C9          3.4090   -1.1350   -1.4350 c2        1 643      0.003000
     16 C11         3.0360    0.9370   -2.9710 c2        1 643      0.313000
     17 O12         1.9400    1.7990   -2.7930 os        1 643     -0.188000
     18 O13         4.0350    1.4650   -3.4380 o         1 643     -0.284000
     19 C14        -1.7160   -0.4370    2.2550 c1        1 643     -0.059000
     20 C16        -1.8810    0.8290    0.1290 c2        1 643      0.060000
     21 C18        -2.5580   -1.4170    4.4780 c1        1 643     -0.086000
     22 C19        -2.2210   -0.9490    3.3940 c1        1 643     -0.385000
     23 O20        -0.8470   -0.6660   11.8690 o         1 643     -0.329000
     24 C23        -3.8910   -4.3540    8.0850 c2        1 643     -0.079000
     25 N24        -3.4970   -3.8080    6.9140 n2        1 643     -0.146000
     26 C25        -3.3340   -2.4860    6.8370 c1        1 643     -0.259000
     27 C27        -4.1890   -1.3770   10.3720 c2        1 643     -0.002000
     28 C29        -3.8050   -0.1550   12.2320 c2        1 643      0.050000
     29 O30        -5.1800   -0.2430   11.9450 os        1 643     -0.071000
     30 N31        -5.3780   -0.9650   10.8520 n2        1 643     -0.015000
     31 Cl32       -4.6230   -4.3730   10.6800 cl        1 643     -0.052000
     32 C33        -3.3830    0.6140   13.4200 c3        1 643     -0.064000
     33 C34        -3.7470    2.0790   13.2660 c3        1 643     -0.207000
     34 C35        -4.0000    0.0380   14.6810 c3        1 643     -0.207000
     35 C36        -1.7030   -1.0840   11.0790 c2        1 643      0.265000
     36 Cl37       -3.3590    0.0290    7.7950 cl        1 643     -0.037000
     37 H4          0.5080   -0.9500   -2.7550 hc        1 643      0.142000
     38 H10         5.2290   -1.8330   -0.5390 ha        1 643      0.128000
     39 H10A        2.7790   -1.5470    0.4910 hn        1 643      0.207000
     40 H10B        5.3790   -1.0500   -2.2200 ha        1 643      0.128000
     41 H15        -3.5380    0.3630    1.4150 hc        1 643      0.107000
     42 H1         -0.2580    2.6600   -1.2240 ha        1 643      0.157000
     43 H3          0.1680   -0.6960    1.2100 ha        1 643      0.217000
     44 H9          2.8160   -1.1320   -3.5270 hc        1 643      0.145000
     45 H14        -2.7910   -1.0560    0.5700 hc        1 643      0.107000
     46 H18         1.1580    0.5060   11.7390 ha        1 643      0.000500
     47 H23        -4.0170   -5.4500    8.1010 h4        1 643      0.141000
     48 H25        -1.4280   -1.6630   10.1670 h4        1 643      0.126000
     49 H33        -2.2550    0.5190   13.4850 hc        1 643      0.138000
     50 H34        -4.8520    2.1960   13.1580 hc        1 643      0.081667
     51 H34A       -3.4100    2.6470   14.1660 hc        1 643      0.081667
     52 H34B       -3.2520    2.5110   12.3630 hc        1 643      0.081667
     53 H35        -5.1140    0.0790   14.6230 hc        1 643      0.081667
     54 H35A       -3.6630    0.6270   15.5680 hc        1 643      0.081667
     55 H35B       -3.6880   -1.0250   14.8160 hc        1 643      0.081667
     56 H36         0.1410    0.3060   13.7730 ha        1 643      0.000500
     57 H36A       -0.1670    0.2390   14.3730 ha        1 643      0.000500
     58 H38        -2.8950   -1.8890    5.5330 ha        1 643      0.365000
     59 H38A        1.6090    0.9590   11.9640 ha        1 643      0.000500
     60 H38B       -3.9780    3.6160   -1.0130 ha        1 643      0.218000
     61 C10         4.7310   -1.3540   -1.3900 c2        1 643     -0.275000
     62 C38        -3.3660    2.8130   -0.6920 c1        1 643     -0.218000
@<TRIPOS>BOND
     1    1    3 1   
     2    1   11 1   
     3    1   17 1   
     4    2    3 1   
     5    2   15 1   
     6    2   16 1   
     7    2   44 1   
     8    3    4 1   
     9    3   37 1   
    10    4   13 1   
    11    4   14 1   
    12    5   19 1   
    13    5   20 1   
    14    5   41 1   
    15    5   45 1   
    16    6   20 1   
    17    6   62 1   
    18    7    8 1   
    19    7    9 1   
    20    7   27 1   
    21    8   24 1   
    22    8   31 1   
    23    9   26 1   
    24    9   36 1   
    25   10   27 1   
    26   10   28 1   
    27   10   35 1   
    28   11   12 1   
    29   11   42 1   
    30   12   13 1   
    31   12   20 1   
    32   13   43 1   
    33   14   15 1   
    34   14   39 1   
    35   15   61 1   
    36   16   17 1   
    37   16   18 1   
    38   19   22 1   
    39   21   22 1   
    40   21   58 1   
    41   23   35 1   
    42   24   25 1   
    43   24   47 1   
    44   25   26 1   
    45   27   30 1   
    46   28   29 1   
    47   28   32 1   
    48   29   30 1   
    49   32   33 1   
    50   32   34 1   
    51   32   49 1   
    52   33   50 1   
    53   33   51 1   
    54   33   52 1   
    55   34   53 1   
    56   34   54 1   
    57   34   55 1   
    58   35   48 1   
    59   38   61 1   
    60   40   61 1   
    61   46   59 1   
    62   56   57 1   
    63   60   62 1   
@<TRIPOS>SUBSTRUCTURE
     1 643         1 TEMP              0 ****  ****    0 ROOT
