@<TRIPOS>MOLECULE
643
   62    65     1     0     0
SMALL
bcc


@<TRIPOS>ATOM
      1 C4          0.7870    1.2710    0.7060 c2        1 643     -0.116000
      2 C5          3.1650    1.5200    1.0580 c3        1 643     -0.120000
      3 C6          2.0010    0.5050    1.1350 c3        1 643     -0.040000
      4 C7          1.8210    0.2150    2.6070 c2        1 643     -0.109000
      5 C15        -1.4580   -2.1460    3.2090 c3        1 643     -0.172000
      6 C17        -2.8680   -0.9370    1.5810 c2        1 643     -0.351000
      7 C21        -5.3790   -1.7470    9.6630 c2        1 643      0.063000
      8 C22        -5.9160   -2.8120   10.3230 c2        1 643     -0.175000
      9 C26        -6.1970   -1.0590    8.6180 c3        1 643     -0.189000
     10 C28        -3.0700   -0.9940    8.7640 c2        1 643     -0.238000
     11 C1         -0.4460    0.9320    1.1370 c2        1 643     -0.021000
     12 C2         -0.5350   -0.1400    2.1230 c2        1 643     -0.223000
     13 C3          0.6020   -0.1850    3.0420 c2        1 643     -0.104000
     14 N8          2.9810    0.6530    3.3160 n3        1 643     -0.198000
     15 C9          3.6340    1.6350    2.4970 c2        1 643      0.009000
     16 C11         2.5000    2.7280    0.4250 c2        1 643      0.312000
     17 O12         1.1650    2.4900    0.1060 os        1 643     -0.179000
     18 O13         2.9390    3.8220    0.0890 o         1 643     -0.316000
     19 C14        -1.8780   -2.0010    4.5780 c1        1 643     -0.081000
     20 C16        -1.6050   -0.9930    2.2500 c2        1 643      0.065000
     21 C18        -3.7560   -0.3330    4.6160 c2        1 643     -0.115000
     22 C19        -2.7230   -1.0180    5.1450 c2        1 643     -0.035000
     23 O20        -2.4400   -0.8570    6.5440 os        1 643     -0.143000
     24 C23        -7.2950   -3.2000   10.0320 c2        1 643      0.092000
     25 N24        -8.0490   -2.6170    9.1300 n2        1 643     -0.229000
     26 C25        -7.5880   -1.5710    8.3920 c1        1 643      0.055000
     27 C27        -4.0150   -1.2860    9.8560 c2        1 643     -0.053000
     28 C29        -1.9080   -0.6130    9.4280 c2        1 643      0.058000
     29 O30        -2.1650   -0.6680   10.8140 os        1 643     -0.059000
     30 N31        -3.4010   -1.0700   11.0390 n2        1 643     -0.005000
     31 CL32       -5.0850   -3.7240   11.4790 cl        1 643      0.021000
     32 C33        -0.5600   -0.1920    8.9920 c3        1 643     -0.066000
     33 C34        -0.2740    1.2320    9.4330 c3        1 643     -0.209500
     34 C35         0.4970   -1.1430    9.5210 c3        1 643     -0.209500
     35 C36        -3.4340   -1.1370    7.3690 c1        1 643      0.022000
     36 CL37       -6.2950    0.6700    8.9190 cl        1 643     -0.032000
     37 H4          2.1710   -0.4160    0.5320 hc        1 643      0.128000
     38 H10         4.9390    2.5350    3.9420 ha        1 643      0.121500
     39 H10A        2.7930    0.9660    4.2470 hn        1 643      0.180000
     40 H10B        5.0900    3.1480    2.1930 ha        1 643      0.121500
     41 H15        -2.0550   -3.0340    2.8240 hc        1 643      0.144500
     42 H1         -1.3580    1.4410    0.8000 ha        1 643      0.165000
     43 H3          0.4100   -0.4660    4.0870 ha        1 643      0.121000
     44 H9          4.0070    1.1870    0.4030 hc        1 643      0.136000
     45 H14        -0.3840   -2.4990    3.2360 hc        1 643      0.144500
     46 H18        -3.9280   -0.3180    3.5190 ha        1 643      0.166500
     47 H23        -7.7260   -4.0390   10.6150 h4        1 643      0.166000
     48 H25        -5.6400   -1.1740    7.6220 h1        1 643      0.242000
     49 H33        -0.5560   -0.2340    7.8600 hc        1 643      0.144000
     50 H34        -0.3080    1.3100   10.5460 hc        1 643      0.085500
     51 H34A        0.7410    1.5360    9.0800 hc        1 643      0.085500
     52 H34B       -1.0270    1.9340    9.0010 hc        1 643      0.085500
     53 H35         0.4890   -1.1530   10.6380 hc        1 643      0.085500
     54 H35A        1.5050   -0.8140    9.1700 hc        1 643      0.085500
     55 H35B        0.3100   -2.1790    9.1510 hc        1 643      0.085500
     56 H36        -3.1500   -3.6280    7.0330 ha        1 643      0.002000
     57 H36A       -2.8890   -3.4140    6.4440 ha        1 643      0.002000
     58 H38        -3.3660   -1.9250    1.5150 ha        1 643      0.077000
     59 H38A       -4.4790    0.2070    5.2430 ha        1 643      0.166500
     60 H38B       -3.1850    1.1380    1.1330 ha        1 643      0.018000
     61 C10         4.5990    2.4730    2.9030 c2        1 643     -0.292000
     62 C38        -3.5680    0.1120    1.1150 c1        1 643     -0.377000
@<TRIPOS>BOND
     1    1    3 1   
     2    1   11 1   
     3    1   17 1   
     4    2    3 1   
     5    2   15 1   
     6    2   16 1   
     7    2   44 1   
     8    3    4 1   
     9    3   37 1   
    10    4   13 1   
    11    4   14 1   
    12    5   19 1   
    13    5   20 1   
    14    5   41 1   
    15    5   45 1   
    16    6   20 1   
    17    6   58 1   
    18    6   62 1   
    19    7    8 1   
    20    7    9 1   
    21    7   27 1   
    22    8   24 1   
    23    8   31 1   
    24    9   26 1   
    25    9   36 1   
    26    9   48 1   
    27   10   27 1   
    28   10   28 1   
    29   10   35 1   
    30   11   12 1   
    31   11   42 1   
    32   12   13 1   
    33   12   20 1   
    34   13   43 1   
    35   14   15 1   
    36   14   39 1   
    37   15   61 1   
    38   16   17 1   
    39   16   18 1   
    40   19   22 1   
    41   21   22 1   
    42   21   46 1   
    43   21   59 1   
    44   22   23 1   
    45   23   35 1   
    46   24   25 1   
    47   24   47 1   
    48   25   26 1   
    49   27   30 1   
    50   28   29 1   
    51   28   32 1   
    52   29   30 1   
    53   32   33 1   
    54   32   34 1   
    55   32   49 1   
    56   33   50 1   
    57   33   51 1   
    58   33   52 1   
    59   34   53 1   
    60   34   54 1   
    61   34   55 1   
    62   38   61 1   
    63   40   61 1   
    64   56   57 1   
    65   60   62 1   
@<TRIPOS>SUBSTRUCTURE
     1 643         1 TEMP              0 ****  ****    0 ROOT
