@<TRIPOS>MOLECULE
643
   62    66     1     0     0
SMALL
bcc


@<TRIPOS>ATOM
      1 C4         -5.7610    0.5810   -1.6490 ca        1 643     -0.064000
      2 C5         -7.9600    0.3910   -0.2560 cc        1 643     -0.143400
      3 C6         -6.5470    0.2380   -0.5540 ca        1 643     -0.050800
      4 C7         -5.9420   -0.4210    0.5860 ca        1 643     -0.067200
      5 C15        -1.6100   -0.1800    0.5860 ca        1 643     -0.097000
      6 C17        -1.7330   -1.3280   -1.5450 ca        1 643     -0.037300
      7 C21         4.9550    1.2890    1.1650 ca        1 643     -0.076500
      8 C22         5.2780    1.3680    2.5310 ca        1 643     -0.077900
      9 C26         4.5140    2.4610    0.5270 ca        1 643     -0.077900
     10 C28         3.9690   -0.8740    0.0990 cc        1 643     -0.298900
     11 C1         -4.4040    0.2850   -1.6220 ca        1 643     -0.170000
     12 C2         -3.8110   -0.3520   -0.5130 cp        1 643     -0.064000
     13 C3         -4.5740   -0.7070    0.6040 ca        1 643     -0.147000
     14 N8         -6.9620   -0.7170    1.5090 na        1 643     -0.099400
     15 C9         -8.1620   -0.1580    1.0010 cd        1 643     -0.113100
     16 C11        -9.0010    1.0230   -1.1370 c         1 643      0.929800
     17 O12        -8.6400    1.4630   -2.2670 o         1 643     -0.834300
     18 O13       -10.1850    1.0810   -0.6990 o         1 643     -0.834300
     19 C14        -0.2380   -0.4070    0.6560 ca        1 643     -0.203000
     20 C16        -2.3720   -0.6260   -0.5030 cp        1 643     -0.023000
     21 C18        -0.3550   -1.5560   -1.4870 ca        1 643     -0.160000
     22 C19         0.3850   -1.0970   -0.3880 ca        1 643      0.099100
     23 O20         1.7350   -1.4230   -0.4140 os        1 643     -0.342900
     24 C23         5.1400    2.6060    3.1970 ca        1 643      0.397700
     25 N24         4.7140    3.7250    2.5880 nb        1 643     -0.639000
     26 C25         4.4070    3.6510    1.2820 ca        1 643      0.397700
     27 C27         5.0740    0.0320    0.4390 cc        1 643      0.349800
     28 C29         4.5810   -1.9170   -0.5740 cd        1 643      0.305000
     29 O30         5.9710   -1.6340   -0.6230 os        1 643     -0.117100
     30 N31         6.2290   -0.4950   -0.0230 nd        1 643     -0.330300
     31 CL32        5.8240    0.0200    3.3910 cl        1 643     -0.046900
     32 C33         4.1250   -3.1710   -1.2080 c3        1 643     -0.108000
     33 C34         4.4700   -3.1820   -2.6860 c3        1 643     -0.090600
     34 C35         4.7260   -4.3760   -0.5080 c3        1 643     -0.090600
     35 C36         2.5590   -0.6450    0.4620 c3        1 643      0.207700
     36 CL37        4.1140    2.4830   -1.1130 cl        1 643     -0.046900
     37 H4         -6.2470    1.0790   -2.5060 ha        1 643      0.181000
     38 H10        -6.4590   -0.0510    3.4580 h1        1 643      0.030033
     39 H10A       -7.6720   -1.4070    3.3390 h1        1 643      0.030033
     40 H10B       -5.9020   -1.7240    2.9960 h1        1 643      0.030033
     41 H15        -2.1130    0.3640    1.4010 ha        1 643      0.140000
     42 H1         -3.7700    0.5570   -2.4780 ha        1 643      0.117000
     43 H3         -4.1070   -1.2030    1.4640 ha        1 643      0.116000
     44 H9         -9.0930   -0.2300    1.5670 h4        1 643      0.170000
     45 H14         0.3320   -0.0480    1.5230 ha        1 643      0.127000
     46 H18         0.1550   -2.1020   -2.2930 ha        1 643      0.138000
     47 H23         5.3850    2.7000    4.2710 h4        1 643      0.042100
     48 H25         4.0580    4.5890    0.8100 h4        1 643      0.042100
     49 H33         2.9990   -3.2040   -1.0960 hc        1 643      0.100700
     50 H34         5.5750   -3.1100   -2.8290 hc        1 643      0.043200
     51 H34A        4.1070   -4.1310   -3.1490 hc        1 643      0.043200
     52 H34B        3.9840   -2.3210   -3.2050 hc        1 643      0.043200
     53 H35         4.4300   -4.3920    0.5680 hc        1 643      0.043200
     54 H35A        4.3610   -5.3130   -0.9940 hc        1 643      0.043200
     55 H35B        5.8410   -4.3480   -0.5720 hc        1 643      0.043200
     56 H36         2.3730   -0.9800    1.5210 h1        1 643      0.055200
     57 H36A        2.3060    0.4460    0.3630 h1        1 643      0.055200
     58 H38        -2.4590   -1.0860   -3.5440 hc        1 643      0.050700
     59 H38A       -2.0380   -2.7910   -3.0920 hc        1 643      0.050700
     60 H38B       -3.5580   -2.0240   -2.4510 hc        1 643      0.050700
     61 C10        -6.7370   -0.9810    2.8890 c3        1 643      0.037600
     62 C38        -2.4860   -1.8390   -2.7160 c3        1 643     -0.059800
@<TRIPOS>BOND
     1    1    3 ar  
     2    1   11 ar  
     3    1   37 1   
     4    2    3 1   
     5    2   15 2   
     6    2   16 1   
     7    3    4 ar  
     8    4   13 ar  
     9    4   14 1   
    10    5   19 ar  
    11    5   20 ar  
    12    5   41 1   
    13    6   20 ar  
    14    6   21 ar  
    15    6   62 1   
    16    7    8 ar  
    17    7    9 ar  
    18    7   27 1   
    19    8   24 ar  
    20    8   31 1   
    21    9   26 ar  
    22    9   36 1   
    23   10   27 1   
    24   10   28 2   
    25   10   35 1   
    26   11   12 ar  
    27   11   42 1   
    28   12   13 ar  
    29   12   20 1   
    30   13   43 1   
    31   14   15 1   
    32   14   61 1   
    33   15   44 1   
    34   16   17 1   
    35   16   18 1   
    36   19   22 ar  
    37   19   45 1   
    38   21   22 ar  
    39   21   46 1   
    40   22   23 1   
    41   23   35 1   
    42   24   25 ar  
    43   24   47 1   
    44   25   26 ar  
    45   26   48 1   
    46   27   30 2   
    47   28   29 1   
    48   28   32 1   
    49   29   30 1   
    50   32   33 1   
    51   32   34 1   
    52   32   49 1   
    53   33   50 1   
    54   33   51 1   
    55   33   52 1   
    56   34   53 1   
    57   34   54 1   
    58   34   55 1   
    59   35   56 1   
    60   35   57 1   
    61   38   61 1   
    62   39   61 1   
    63   40   61 1   
    64   58   62 1   
    65   59   62 1   
    66   60   62 1   
@<TRIPOS>SUBSTRUCTURE
     1 643         1 TEMP              0 ****  ****    0 ROOT
