@<TRIPOS>MOLECULE
644
   42    44     1     0     0
SMALL
bcc


@<TRIPOS>ATOM
      1 O05         0.9170   -1.0100    0.9700 o         1 644     -0.848800
      2 C21         1.8790   -1.4440    0.2750 c         1 644      0.911200
      3 O06         2.6270   -2.3940    0.6670 o         1 644     -0.848800
      4 C15         2.2170   -0.7800   -1.0470 ca        1 644     -0.196600
      5 C16         3.5170   -0.9650   -1.5150 ca        1 644     -0.082000
      6 C17         3.9910   -0.3400   -2.6680 ca        1 644     -0.251000
      7 C18         3.1330    0.4930   -3.3810 ca        1 644     -0.120000
      8 C19         1.8270    0.6840   -2.9600 ca        1 644     -0.230000
      9 C14         1.3190    0.0440   -1.7900 ca        1 644      0.234600
     10 N02        -0.0210    0.1760   -1.4630 nh        1 644     -0.618000
     11 C10        -0.7400    1.3510   -1.7710 ca        1 644      0.184600
     12 C09        -2.1070    1.2900   -2.1390 ca        1 644     -0.144600
     13 C20        -2.8180   -0.0550   -2.2300 c         1 644      0.922200
     14 O04        -3.3460   -0.3710   -3.3330 o         1 644     -0.830300
     15 O03        -2.8420   -0.7820   -1.1980 o         1 644     -0.830300
     16 C11        -0.0950    2.6090   -1.6930 ca        1 644     -0.217000
     17 C12        -0.7940    3.7740   -1.9700 ca        1 644     -0.140000
     18 C13        -2.1330    3.7290   -2.3290 ca        1 644     -0.217000
     19 C08        -2.8080    2.4890   -2.4200 ca        1 644      0.184600
     20 N01        -4.1650    2.4580   -2.8100 nh        1 644     -0.618000
     21 C03        -5.0480    3.4530   -2.4240 ca        1 644      0.234600
     22 C04        -4.8730    4.1040   -1.1670 ca        1 644     -0.230000
     23 C05        -5.7920    5.0280   -0.6960 ca        1 644     -0.120000
     24 C06        -6.9230    5.3450   -1.4430 ca        1 644     -0.251000
     25 C07        -7.1050    4.7290   -2.6800 ca        1 644     -0.082000
     26 C02        -6.1930    3.8120   -3.1990 ca        1 644     -0.196600
     27 C01        -6.4750    3.3030   -4.6010 c         1 644      0.911200
     28 O02        -5.5360    2.8260   -5.2980 o         1 644     -0.848800
     29 O01        -7.6580    3.4300   -5.0470 o         1 644     -0.848800
     30 H2          4.1770   -1.6280   -0.9320 ha        1 644      0.132000
     31 H3          5.0210   -0.5020   -3.0060 ha        1 644      0.080000
     32 H4          3.4860    0.9990   -4.2900 ha        1 644      0.082000
     33 H5          1.1600    1.3320   -3.5490 ha        1 644      0.133000
     34 H6         -0.4060   -0.4160   -0.7440 hn        1 644      0.505800
     35 H8          0.9660    2.6640   -1.4060 ha        1 644      0.118000
     36 H9         -0.2810    4.7440   -1.9040 ha        1 644      0.085000
     37 H10        -2.6700    4.6630   -2.5490 ha        1 644      0.118000
     38 H11        -4.3950    1.8870   -3.6080 hn        1 644      0.505800
     39 H12        -3.9960    3.8540   -0.5500 ha        1 644      0.133000
     40 H13        -5.6250    5.5050    0.2810 ha        1 644      0.082000
     41 H14        -7.6570    6.0670   -1.0660 ha        1 644      0.080000
     42 H15        -7.9920    4.9640   -3.2920 ha        1 644      0.132000
@<TRIPOS>BOND
     1    1    2 1   
     2    2    3 1   
     3    2    4 1   
     4    4    5 ar  
     5    4    9 ar  
     6    5    6 ar  
     7    5   30 1   
     8    6    7 ar  
     9    6   31 1   
    10    7    8 ar  
    11    7   32 1   
    12    8    9 ar  
    13    8   33 1   
    14    9   10 1   
    15   10   11 1   
    16   10   34 1   
    17   11   12 ar  
    18   11   16 ar  
    19   12   13 1   
    20   12   19 ar  
    21   13   14 1   
    22   13   15 1   
    23   16   17 ar  
    24   16   35 1   
    25   17   18 ar  
    26   17   36 1   
    27   18   19 ar  
    28   18   37 1   
    29   19   20 1   
    30   20   21 1   
    31   20   38 1   
    32   21   22 ar  
    33   21   26 ar  
    34   22   23 ar  
    35   22   39 1   
    36   23   24 ar  
    37   23   40 1   
    38   24   25 ar  
    39   24   41 1   
    40   25   26 ar  
    41   25   42 1   
    42   26   27 1   
    43   27   28 1   
    44   27   29 1   
@<TRIPOS>SUBSTRUCTURE
     1 644         1 TEMP              0 ****  ****    0 ROOT
