@<TRIPOS>MOLECULE
644
   42    44     1     0     0
SMALL
bcc


@<TRIPOS>ATOM
      1 O05         0.9220   -1.0180    0.9580 o         1 644     -0.848800
      2 C21         1.8810   -1.4520    0.2600 c         1 644      0.911200
      3 O06         2.6290   -2.4040    0.6480 o         1 644     -0.848800
      4 C15         2.2170   -0.7860   -1.0620 ca        1 644     -0.196600
      5 C16         3.5150   -0.9720   -1.5340 ca        1 644     -0.082000
      6 C17         3.9870   -0.3470   -2.6870 ca        1 644     -0.251000
      7 C18         3.1270    0.4880   -3.3970 ca        1 644     -0.120000
      8 C19         1.8230    0.6810   -2.9710 ca        1 644     -0.230000
      9 C14         1.3170    0.0400   -1.8020 ca        1 644      0.234600
     10 N02        -0.0210    0.1730   -1.4700 nu        1 644     -0.618000
     11 C10        -0.7400    1.3500   -1.7750 ca        1 644      0.184600
     12 C09        -2.1080    1.2910   -2.1390 ca        1 644     -0.144600
     13 C20        -2.8210   -0.0530   -2.2300 c         1 644      0.922200
     14 O04        -3.3520   -0.3670   -3.3320 o         1 644     -0.830300
     15 O03        -2.8430   -0.7820   -1.1990 o         1 644     -0.830300
     16 C11        -0.0930    2.6060   -1.6970 ca        1 644     -0.217000
     17 C12        -0.7910    3.7730   -1.9700 ca        1 644     -0.140000
     18 C13        -2.1310    3.7300   -2.3260 ca        1 644     -0.217000
     19 C08        -2.8080    2.4910   -2.4170 ca        1 644      0.184600
     20 N01        -4.1660    2.4620   -2.8030 nu        1 644     -0.618000
     21 C03        -5.0470    3.4580   -2.4130 ca        1 644      0.234600
     22 C04        -4.8670    4.1060   -1.1550 ca        1 644     -0.230000
     23 C05        -5.7840    5.0310   -0.6800 ca        1 644     -0.120000
     24 C06        -6.9170    5.3510   -1.4230 ca        1 644     -0.251000
     25 C07        -7.1030    4.7360   -2.6610 ca        1 644     -0.082000
     26 C02        -6.1940    3.8190   -3.1830 ca        1 644     -0.196600
     27 C01        -6.4810    3.3120   -4.5850 c         1 644      0.911200
     28 O02        -5.5440    2.8350   -5.2860 o         1 644     -0.848800
     29 O01        -7.6650    3.4410   -5.0280 o         1 644     -0.848800
     30 H2          4.1760   -1.6370   -0.9530 ha        1 644      0.132000
     31 H3          5.0160   -0.5090   -3.0290 ha        1 644      0.080000
     32 H4          3.4790    0.9960   -4.3060 ha        1 644      0.082000
     33 H5          1.1550    1.3310   -3.5580 ha        1 644      0.133000
     34 H6         -0.4050   -0.4200   -0.7510 hn        1 644      0.505800
     35 H8          0.9680    2.6590   -1.4130 ha        1 644      0.118000
     36 H9         -0.2770    4.7420   -1.9050 ha        1 644      0.085000
     37 H10        -2.6680    4.6650   -2.5430 ha        1 644      0.118000
     38 H11        -4.3990    1.8930   -3.6010 hn        1 644      0.505800
     39 H12        -3.9890    3.8550   -0.5420 ha        1 644      0.133000
     40 H13        -5.6130    5.5070    0.2960 ha        1 644      0.082000
     41 H14        -7.6490    6.0730   -1.0440 ha        1 644      0.080000
     42 H15        -7.9920    4.9730   -3.2700 ha        1 644      0.132000
@<TRIPOS>BOND
     1    1    2 1   
     2    2    3 1   
     3    2    4 1   
     4    4    5 ar  
     5    4    9 ar  
     6    5    6 ar  
     7    5   30 1   
     8    6    7 ar  
     9    6   31 1   
    10    7    8 ar  
    11    7   32 1   
    12    8    9 ar  
    13    8   33 1   
    14    9   10 1   
    15   10   11 1   
    16   10   34 1   
    17   11   12 ar  
    18   11   16 ar  
    19   12   13 1   
    20   12   19 ar  
    21   13   14 1   
    22   13   15 1   
    23   16   17 ar  
    24   16   35 1   
    25   17   18 ar  
    26   17   36 1   
    27   18   19 ar  
    28   18   37 1   
    29   19   20 1   
    30   20   21 1   
    31   20   38 1   
    32   21   22 ar  
    33   21   26 ar  
    34   22   23 ar  
    35   22   39 1   
    36   23   24 ar  
    37   23   40 1   
    38   24   25 ar  
    39   24   41 1   
    40   25   26 ar  
    41   25   42 1   
    42   26   27 1   
    43   27   28 1   
    44   27   29 1   
@<TRIPOS>SUBSTRUCTURE
     1 644         1 TEMP              0 ****  ****    0 ROOT
