@<TRIPOS>MOLECULE
644
   44    46     1     0     0
SMALL
bcc


@<TRIPOS>ATOM
      1 O05         1.5940    1.2290    0.7840 o         1 644     -0.801300
      2 C21         2.5790    0.9990    0.0060 c         1 644      0.905200
      3 O06         3.7490    1.3770    0.2470 o         1 644     -0.801300
      4 C15         2.3240    0.2280   -1.2830 ca        1 644     -0.121600
      5 C16         3.4370   -0.1520   -2.0440 ca        1 644     -0.103000
      6 C17         3.2920   -0.8730   -3.2240 ca        1 644     -0.124000
      7 C18         2.0200   -1.2370   -3.6690 ca        1 644     -0.140000
      8 C19         0.8930   -0.8750   -2.9400 ca        1 644     -0.116000
      9 C14         1.0460   -0.1380   -1.7490 ca        1 644     -0.001400
     10 N02        -0.1560    0.2130   -0.9830 n4        1 644     -0.546800
     11 C10        -0.8540    1.3790   -1.5390 ca        1 644      0.013600
     12 C09        -2.1200    1.2550   -2.1520 ca        1 644     -0.110600
     13 C20        -2.8260   -0.0960   -2.2640 c         1 644      0.906200
     14 O04        -2.1240   -1.1460   -2.2920 o         1 644     -0.803300
     15 O03        -4.0870   -0.1170   -2.3230 o         1 644     -0.803300
     16 C11        -0.2170    2.6270   -1.4070 ca        1 644     -0.081000
     17 C12        -0.8090    3.7630   -1.9460 ca        1 644     -0.128000
     18 C13        -2.0400    3.6770   -2.5850 ca        1 644     -0.081000
     19 C08        -2.7030    2.4370   -2.6590 ca        1 644      0.013600
     20 N01        -4.0170    2.4230   -3.3120 n4        1 644     -0.546800
     21 C03        -5.0460    3.1080   -2.5180 ca        1 644     -0.001400
     22 C04        -5.6390    2.4150   -1.4450 ca        1 644     -0.116000
     23 C05        -6.6300    3.0380   -0.6940 ca        1 644     -0.140000
     24 C06        -7.0320    4.3390   -1.0020 ca        1 644     -0.124000
     25 C07        -6.4470    5.0150   -2.0680 ca        1 644     -0.103000
     26 C02        -5.4470    4.4170   -2.8460 ca        1 644     -0.121600
     27 C01        -4.8780    5.2250   -4.0050 c         1 644      0.905200
     28 O02        -5.2230    6.4250   -4.1170 o         1 644     -0.801300
     29 O01        -4.0730    4.6510   -4.8110 o         1 644     -0.801300
     30 H2          4.4330    0.1450   -1.6730 ha        1 644      0.171000
     31 H3          4.1800   -1.1580   -3.8070 ha        1 644      0.127000
     32 H4          1.9010   -1.8120   -4.5990 ha        1 644      0.132000
     33 H5         -0.1170   -1.1720   -3.2840 ha        1 644      0.184000
     34 H6          0.1530    0.4580    0.0020 hn        1 644      0.498800
     35 H8          0.7500    2.7000   -0.8670 ha        1 644      0.196000
     36 H9         -0.3010    4.7360   -1.8650 ha        1 644      0.156000
     37 H10        -2.4990    4.5770   -3.0450 ha        1 644      0.196000
     38 H11        -3.9290    2.9400   -4.2340 hn        1 644      0.498800
     39 H12        -5.3260    1.3800   -1.2100 ha        1 644      0.184000
     40 H13        -7.0950    2.4980    0.1430 ha        1 644      0.132000
     41 H14        -7.8140    4.8280   -0.4030 ha        1 644      0.127000
     42 H15        -6.7510    6.0440   -2.3300 ha        1 644      0.171000
     43 H022       -0.7920   -0.6070   -0.9850 hn        1 644      0.498800
     44 H012       -4.3220    1.4420   -3.4580 hn        1 644      0.498800
@<TRIPOS>BOND
     1    1    2 1   
     2    2    3 1   
     3    2    4 1   
     4    4    5 ar  
     5    4    9 ar  
     6    5    6 ar  
     7    5   30 1   
     8    6    7 ar  
     9    6   31 1   
    10    7    8 ar  
    11    7   32 1   
    12    8    9 ar  
    13    8   33 1   
    14    9   10 1   
    15   10   11 1   
    16   10   34 1   
    17   10   43 1   
    18   11   12 ar  
    19   11   16 ar  
    20   12   13 1   
    21   12   19 ar  
    22   13   14 1   
    23   13   15 1   
    24   16   17 ar  
    25   16   35 1   
    26   17   18 ar  
    27   17   36 1   
    28   18   19 ar  
    29   18   37 1   
    30   19   20 1   
    31   20   21 1   
    32   20   38 1   
    33   20   44 1   
    34   21   22 ar  
    35   21   26 ar  
    36   22   23 ar  
    37   22   39 1   
    38   23   24 ar  
    39   23   40 1   
    40   24   25 ar  
    41   24   41 1   
    42   25   26 ar  
    43   25   42 1   
    44   26   27 1   
    45   27   28 1   
    46   27   29 1   
@<TRIPOS>SUBSTRUCTURE
     1 644         1 TEMP              0 ****  ****    0 ROOT
