@<TRIPOS>MOLECULE
645
   50    52     1     0     0
SMALL
bcc


@<TRIPOS>ATOM
      1 O1         -0.2730   -0.0490   -1.0170 oh        1 645     -0.478100
      2 C1          0.9910   -0.2590   -0.5760 cc        1 645      0.188800
      3 C2          1.4700   -0.9110    0.6040 cd        1 645     -0.413900
      4 C3          0.5820   -1.4670    1.5920 c         1 645      0.636300
      5 O2         -0.6460   -1.5150    1.3870 o         1 645     -0.573100
      6 C4          1.1270   -1.9900    2.8740 ca        1 645     -0.066600
      7 C5          1.2570   -1.1640    4.0010 ca        1 645      0.018400
      8 CL1         0.8590    0.4840    3.9230 cl        1 645     -0.061400
      9 C6          1.7060   -1.6970    5.2130 ca        1 645     -0.018000
     10 C7          2.0320   -3.0520    5.3190 ca        1 645     -0.360500
     11 C8          1.8810   -3.8720    4.1950 ca        1 645     -0.025000
     12 C9          1.4330   -3.3500    2.9850 ca        1 645     -0.119000
     13 S1          2.5450   -3.7000    6.7870 sy        1 645      1.395300
     14 O3          2.4130   -5.0950    6.7580 o         1 645     -0.653300
     15 O4          1.9480   -3.0090    7.8490 o         1 645     -0.653300
     16 C10         4.1850   -3.2940    6.7240 c3        1 645     -0.364300
     17 C11         2.9140   -0.8060    0.4820 cd        1 645      0.421800
     18 N1          3.2420   -0.1470   -0.6640 nc        1 645     -0.484800
     19 N2          2.1000    0.1830   -1.2990 na        1 645      0.091400
     20 C12         2.0410    0.9300   -2.5830 c3        1 645      0.091700
     21 C13         3.4410    1.2740   -3.1080 c3        1 645     -0.107100
     22 C14         1.2640    2.2430   -2.3890 c3        1 645     -0.107100
     23 C15         1.3220    0.0860   -3.6470 c3        1 645     -0.107100
     24 C16         3.9410   -1.3260    1.3810 ca        1 645     -0.113500
     25 C17         4.5970   -0.4930    2.3010 ca        1 645      0.049400
     26 CL2         4.1990    1.1510    2.4270 cl        1 645     -0.063400
     27 C18         5.5980   -1.0060    3.1330 ca        1 645     -0.129000
     28 C19         5.9480   -2.3540    3.0330 ca        1 645      0.025400
     29 CL3         7.1560   -2.9840    4.0480 cl        1 645     -0.083400
     30 C20         5.3160   -3.1900    2.1060 ca        1 645     -0.131000
     31 C21         4.3190   -2.6710    1.2850 ca        1 645     -0.090000
     32 HO1        -0.8790   -0.4430   -0.3550 ho        1 645      0.482000
     33 H6          1.7860   -1.0470    6.1040 ha        1 645      0.168000
     34 H8          2.1050   -4.9510    4.2790 ha        1 645      0.165000
     35 H9          1.3060   -4.0100    2.1120 ha        1 645      0.152000
     36 H101        4.3640   -2.1940    6.8090 h1        1 645      0.117367
     37 H102        4.6960   -3.6260    5.7870 h1        1 645      0.117367
     38 H103        4.7490   -3.7680    7.5670 h1        1 645      0.117367
     39 H131        3.9940    1.9190   -2.3850 hc        1 645      0.054922
     40 H132        3.3250    1.8310   -4.0690 hc        1 645      0.054922
     41 H133        4.0370    0.3500   -3.2990 hc        1 645      0.054922
     42 H141        1.7830    2.9060   -1.6580 hc        1 645      0.054922
     43 H142        0.2270    2.0410   -2.0280 hc        1 645      0.054922
     44 H143        1.2050    2.7690   -3.3720 hc        1 645      0.054922
     45 H151        0.2860   -0.1710   -3.3170 hc        1 645      0.054922
     46 H152        1.2600    0.6800   -4.5890 hc        1 645      0.054922
     47 H153        1.8840   -0.8550   -3.8530 hc        1 645      0.054922
     48 H18         6.1090   -0.3480    3.8540 ha        1 645      0.164000
     49 H20         5.6080   -4.2480    2.0190 ha        1 645      0.154000
     50 H21         3.8240   -3.3220    0.5470 ha        1 645      0.150000
@<TRIPOS>BOND
     1    1    2 1   
     2    1   32 1   
     3    2    3 2   
     4    2   19 1   
     5    3    4 1   
     6    3   17 1   
     7    4    5 2   
     8    4    6 1   
     9    6    7 ar  
    10    6   12 ar  
    11    7    8 1   
    12    7    9 ar  
    13    9   10 ar  
    14    9   33 1   
    15   10   11 ar  
    16   10   13 1   
    17   11   12 ar  
    18   11   34 1   
    19   12   35 1   
    20   13   14 2   
    21   13   15 2   
    22   13   16 1   
    23   16   36 1   
    24   16   37 1   
    25   16   38 1   
    26   17   18 2   
    27   17   24 1   
    28   18   19 1   
    29   19   20 1   
    30   20   21 1   
    31   20   22 1   
    32   20   23 1   
    33   21   39 1   
    34   21   40 1   
    35   21   41 1   
    36   22   42 1   
    37   22   43 1   
    38   22   44 1   
    39   23   45 1   
    40   23   46 1   
    41   23   47 1   
    42   24   25 ar  
    43   24   31 ar  
    44   25   26 1   
    45   25   27 ar  
    46   27   28 ar  
    47   27   48 1   
    48   28   29 1   
    49   28   30 ar  
    50   30   31 ar  
    51   30   49 1   
    52   31   50 1   
@<TRIPOS>SUBSTRUCTURE
     1 645         1 TEMP              0 ****  ****    0 ROOT
