@<TRIPOS>MOLECULE
645
   50    44     1     0     0
SMALL
bcc


@<TRIPOS>ATOM
      1 O1         -2.0670    1.3150   -1.4210 oh        1 645     -0.233000
      2 C1         -0.6710    1.2090   -1.3880 c2        1 645      0.168000
      3 C2          0.1030    1.1280   -0.2620 c1        1 645     -0.327000
      4 C3         -0.4020    1.1900    1.1750 c1        1 645      0.357000
      5 O2         -0.3990    2.2460    1.7750 o         1 645     -0.335000
      6 C4         -0.9570   -0.0630    1.8430 c2        1 645     -0.045000
      7 C5         -2.0170   -0.7420    1.2630 c1        1 645     -0.063000
      8 CL1        -2.6530   -0.2170   -0.2760 cl        1 645      0.009000
      9 C6         -2.6080   -1.8050    1.9320 c2        1 645     -0.019000
     10 C7         -2.1390   -2.1880    3.1810 c1        1 645     -0.806000
     11 C8         -1.0800   -1.5100    3.7600 c1        1 645     -0.022000
     12 C9         -0.4880   -0.4470    3.0930 c2        1 645     -0.115000
     13 S1         -2.8930   -3.5450    4.0330 s4        1 645      2.075800
     14 O3         -4.3230   -3.4550    3.9910 o         1 645     -0.540900
     15 O4         -2.6510   -3.4720    5.4480 o         1 645     -0.540900
     16 C10        -2.3250   -5.0840    3.3620 c2        1 645     -0.943000
     17 C11         1.4130    1.1100   -0.6520 c2        1 645     -0.013000
     18 N1          1.4480    1.1790   -2.0040 n2        1 645     -0.053000
     19 N2          0.1540    1.2410   -2.4610 n2        1 645     -0.123000
     20 C12        -0.2500    1.2700   -3.8310 c2        1 645      0.111000
     21 C13         0.9750    1.2260   -4.7200 c3        1 645     -0.225000
     22 C14        -1.0240    2.5410   -4.1010 c3        1 645     -0.225000
     23 C15        -1.1290    0.0740   -4.1220 c3        1 645     -0.225000
     24 C16         2.5110    1.1040    0.1900 c1        1 645     -0.007000
     25 C17         2.8420    2.2460    0.9020 c1        1 645     -0.041500
     26 CL2         1.8470    3.6760    0.7690 cl        1 645      0.001500
     27 C18         4.0040    2.2790    1.6600 c1        1 645     -0.130000
     28 C19         4.8340    1.1690    1.7040 c1        1 645     -0.041500
     29 CL3         6.2930    1.2080    2.6610 cl        1 645      0.001500
     30 C20         4.5040    0.0280    0.9920 c1        1 645     -0.130000
     31 C21         3.3430   -0.0050    0.2340 c1        1 645     -0.086000
     32 HO1        -2.3070    2.1610   -1.2550 ho        1 645      0.282000
     33 H6         -3.3530   -2.2810    1.5250 ha        1 645      0.174000
     34 H8         -0.7490   -1.7800    4.6410 ha        1 645      0.160000
     35 H9          0.2570    0.0300    3.5010 ha        1 645      0.157000
     36 H101       -1.3470   -5.1130    3.3970 ha        1 645      0.157000
     37 H102       -2.6930   -5.8260    3.8880 ha        1 645      0.157000
     38 H103       -2.6210   -5.1640    2.4330 ha        1 645      0.157000
     39 H131        0.6950    1.1860   -5.6600 hc        1 645      0.094222
     40 H132        1.5060    0.4360   -4.5040 hc        1 645      0.094222
     41 H133        1.5130    2.0310   -4.5740 hc        1 645      0.094222
     42 H141       -1.0930    2.6830   -5.0710 hc        1 645      0.094222
     43 H142       -0.5590    3.3010   -3.6920 hc        1 645      0.094222
     44 H143       -1.9220    2.4650   -3.7180 hc        1 645      0.094222
     45 H151       -1.9910    0.1830   -3.6690 hc        1 645      0.094222
     46 H152       -1.2750    0.0040   -5.0860 hc        1 645      0.094222
     47 H153       -0.6910   -0.7400   -3.7980 hc        1 645      0.094222
     48 H18         4.2360    3.0770    2.1590 ha        1 645      0.159000
     49 H20         5.0870   -0.7510    1.0230 ha        1 645      0.159000
     50 H21         3.1100   -0.8080   -0.2670 ha        1 645      0.156000
@<TRIPOS>BOND
     1    1    2 1   
     2    1   32 1   
     3    2    3 1   
     4    2   19 1   
     5    3   17 1   
     6    4    5 1   
     7    4    6 1   
     8    6    7 1   
     9    6   12 1   
    10    7    9 1   
    11    9   10 1   
    12    9   33 1   
    13   10   13 1   
    14   11   12 1   
    15   11   34 1   
    16   12   35 1   
    17   13   14 1   
    18   13   15 1   
    19   16   36 1   
    20   16   37 1   
    21   16   38 1   
    22   17   18 1   
    23   17   24 1   
    24   18   19 1   
    25   20   21 1   
    26   20   22 1   
    27   20   23 1   
    28   21   39 1   
    29   21   40 1   
    30   21   41 1   
    31   22   42 1   
    32   22   43 1   
    33   22   44 1   
    34   23   45 1   
    35   23   46 1   
    36   23   47 1   
    37   24   31 1   
    38   25   26 1   
    39   25   27 1   
    40   27   48 1   
    41   28   29 1   
    42   28   30 1   
    43   30   49 1   
    44   31   50 1   
@<TRIPOS>SUBSTRUCTURE
     1 645         1 TEMP              0 ****  ****    0 ROOT
