@<TRIPOS>MOLECULE
645
   50    52     1     0     0
SMALL
bcc


@<TRIPOS>ATOM
      1 O1         -0.3070   -0.1560   -1.0240 oh        1 645     -0.478100
      2 C1          0.9630   -0.3210   -0.5800 cc        1 645      0.188800
      3 C2          1.4620   -0.9540    0.6020 cd        1 645     -0.413900
      4 C3          0.5930   -1.5370    1.5910 c         1 645      0.636300
      5 O2         -0.6330   -1.6270    1.3830 o         1 645     -0.573100
      6 C4          1.1530   -2.0380    2.8750 ca        1 645     -0.066600
      7 C5          1.2540   -1.2050    3.9990 ca        1 645      0.018400
      8 Cl1         0.8000    0.4270    3.9170 cl        1 645     -0.061400
      9 C6          1.7190   -1.7200    5.2130 ca        1 645     -0.018000
     10 C7          2.0910   -3.0630    5.3230 ca        1 645     -0.360500
     11 C8          1.9700   -3.8900    4.2000 ca        1 645     -0.025000
     12 C9          1.5050   -3.3870    2.9890 ca        1 645     -0.119000
     13 S1          2.6240   -3.6900    6.7920 sy        1 645      1.395300
     14 O3          2.5390   -5.0890    6.7670 o         1 645     -0.653300
     15 O4          2.0020   -3.0170    7.8520 o         1 645     -0.653300
     16 C10         4.2490   -3.2290    6.7310 c3        1 645     -0.364300
     17 C11         2.9020   -0.7990    0.4810 cd        1 645      0.421800
     18 N1          3.2090   -0.1330   -0.6660 nc        1 645     -0.484800
     19 N2          2.0570    0.1570   -1.3030 na        1 645      0.090400
     20 C12         1.9740    0.8980   -2.5890 c3        1 645      0.091700
     21 C13         3.3620    1.2880   -3.1130 c3        1 645     -0.107100
     22 C14         1.1530    2.1830   -2.4010 c3        1 645     -0.107100
     23 C15         1.2860    0.0260   -3.6510 c3        1 645     -0.107100
     24 C16         3.9450   -1.2820    1.3830 ca        1 645     -0.113500
     25 C17         4.5700   -0.4240    2.3020 ca        1 645      0.049400
     26 Cl2         4.1170    1.2060    2.4240 cl        1 645     -0.063400
     27 C18         5.5870   -0.9000    3.1370 ca        1 645     -0.129000
     28 C19         5.9840   -2.2360    3.0410 ca        1 645      0.025400
     29 Cl3         7.2110   -2.8210    4.0590 cl        1 645     -0.083400
     30 C20         5.3830   -3.0950    2.1150 ca        1 645     -0.131000
     31 C21         4.3700   -2.6130    1.2910 ca        1 645     -0.090000
     32 HO1        -0.9000   -0.5680   -0.3610 ho        1 645      0.482000
     33 H6          1.7750   -1.0660    6.1020 ha        1 645      0.168000
     34 H8          2.2300   -4.9610    4.2870 ha        1 645      0.165000
     35 H9          1.4030   -4.0530    2.1170 ha        1 645      0.152000
     36 H101        4.3910   -2.1230    6.8160 h1        1 645      0.117367
     37 H102        4.7720   -3.5440    5.7950 h1        1 645      0.117367
     38 H103        4.8280   -3.6840    7.5750 h1        1 645      0.117367
     39 H131        3.8930    1.9530   -2.3910 hc        1 645      0.054922
     40 H132        3.2290    1.8380   -4.0760 hc        1 645      0.054922
     41 H133        3.9900    0.3850   -3.3010 hc        1 645      0.054922
     42 H141        1.6470    2.8660   -1.6700 hc        1 645      0.054922
     43 H142        0.1220    1.9470   -2.0400 hc        1 645      0.054922
     44 H143        1.0770    2.7040   -3.3850 hc        1 645      0.054922
     45 H151        0.2590   -0.2650   -3.3220 hc        1 645      0.054922
     46 H152        1.2050    0.6160   -4.5960 hc        1 645      0.054922
     47 H153        1.8810   -0.8960   -3.8540 hc        1 645      0.054922
     48 H18         6.0740   -0.2240    3.8570 ha        1 645      0.164000
     49 H20         5.7110   -4.1430    2.0310 ha        1 645      0.154000
     50 H21         3.8980   -3.2830    0.5540 ha        1 645      0.150000
@<TRIPOS>BOND
     1    1    2 1   
     2    1   32 1   
     3    2    3 2   
     4    2   19 1   
     5    3    4 1   
     6    3   17 1   
     7    4    5 2   
     8    4    6 1   
     9    6    7 ar  
    10    6   12 ar  
    11    7    8 1   
    12    7    9 ar  
    13    9   10 ar  
    14    9   33 1   
    15   10   11 ar  
    16   10   13 1   
    17   11   12 ar  
    18   11   34 1   
    19   12   35 1   
    20   13   14 2   
    21   13   15 2   
    22   13   16 1   
    23   16   36 1   
    24   16   37 1   
    25   16   38 1   
    26   17   18 2   
    27   17   24 1   
    28   18   19 1   
    29   19   20 1   
    30   20   21 1   
    31   20   22 1   
    32   20   23 1   
    33   21   39 1   
    34   21   40 1   
    35   21   41 1   
    36   22   42 1   
    37   22   43 1   
    38   22   44 1   
    39   23   45 1   
    40   23   46 1   
    41   23   47 1   
    42   24   25 ar  
    43   24   31 ar  
    44   25   26 1   
    45   25   27 ar  
    46   27   28 ar  
    47   27   48 1   
    48   28   29 1   
    49   28   30 ar  
    50   30   31 ar  
    51   30   49 1   
    52   31   50 1   
@<TRIPOS>SUBSTRUCTURE
     1 645         1 TEMP              0 ****  ****    0 ROOT
