@<TRIPOS>MOLECULE
645
   50    52     1     0     0
SMALL
bcc


@<TRIPOS>ATOM
      1 O1          4.1810    0.3360    2.2850 oh        1 645     -0.478100
      2 C1          2.9120   -0.1320    2.1830 cc        1 645      0.188800
      3 C2          2.0550   -0.2610    1.0450 cd        1 645     -0.413900
      4 C3          2.4560    0.1540   -0.2740 c         1 645      0.636300
      5 O2          3.6270    0.5210   -0.4950 o         1 645     -0.573100
      6 C4          1.4720    0.1470   -1.3890 ca        1 645     -0.066600
      7 C5          0.6930    1.2770   -1.6790 ca        1 645      0.018400
      8 CL1         0.7970    2.6750   -0.7240 cl        1 645     -0.061400
      9 C6         -0.1740    1.2680   -2.7760 ca        1 645     -0.018000
     10 C7         -0.2790    0.1390   -3.5940 ca        1 645     -0.360500
     11 C8          0.5160   -0.9770   -3.3070 ca        1 645     -0.025000
     12 C9          1.3840   -0.9760   -2.2190 ca        1 645     -0.119000
     13 S1         -1.3010    0.1380   -4.9320 sy        1 645      1.395300
     14 O3         -0.9390   -0.8990   -5.8030 o         1 645     -0.653300
     15 O4         -1.3970    1.4320   -5.4610 o         1 645     -0.653300
     16 C10        -2.7630   -0.2530   -4.1780 c3        1 645     -0.364300
     17 C11         0.8410   -0.8330    1.6050 cd        1 645      0.421800
     18 N1          0.9820   -1.0140    2.9470 nc        1 645     -0.484800
     19 N2          2.2140   -0.5960    3.2990 na        1 645      0.091400
     20 C12         2.7410   -0.6170    4.6890 c3        1 645      0.091700
     21 C13         1.7140   -1.1810    5.6800 c3        1 645     -0.107100
     22 C14         3.1030    0.8090    5.1330 c3        1 645     -0.107100
     23 C15         4.0050   -1.4890    4.7570 c3        1 645     -0.107100
     24 C16        -0.3820   -1.2210    0.9090 ca        1 645     -0.113500
     25 C17        -1.5220   -0.4020    0.9220 ca        1 645      0.049400
     26 CL2        -1.5130    1.0930    1.7250 cl        1 645     -0.063400
     27 C18        -2.6940   -0.8060    0.2730 ca        1 645     -0.129000
     28 C19        -2.7230   -2.0400   -0.3810 ca        1 645      0.025400
     29 CL3        -4.1410   -2.5310   -1.1780 cl        1 645     -0.083400
     30 C20        -1.6010   -2.8750   -0.3840 ca        1 645     -0.131000
     31 C21        -0.4390   -2.4620    0.2620 ca        1 645     -0.090000
     32 HO1         4.4630    0.6020    1.3840 ho        1 645      0.482000
     33 H6         -0.7690    2.1680   -3.0140 ha        1 645      0.168000
     34 H8          0.4640   -1.8620   -3.9680 ha        1 645      0.165000
     35 H9          2.0130   -1.8560   -2.0130 ha        1 645      0.152000
     36 H101       -3.5670   -0.4430   -4.9350 h1        1 645      0.117367
     37 H102       -2.7130   -1.1730   -3.5460 h1        1 645      0.117367
     38 H103       -3.1440    0.5640   -3.5180 h1        1 645      0.117367
     39 H131        2.1700   -1.1690    6.6990 hc        1 645      0.054922
     40 H132        0.7870   -0.5600    5.6950 hc        1 645      0.054922
     41 H133        1.4420   -2.2320    5.4220 hc        1 645      0.054922
     42 H141        2.1990    1.4630    5.1440 hc        1 645      0.054922
     43 H142        3.5260    0.7640    6.1650 hc        1 645      0.054922
     44 H143        3.8690    1.2550    4.4520 hc        1 645      0.054922
     45 H151        3.7720   -2.5470    4.4910 hc        1 645      0.054922
     46 H152        4.7920   -1.1020    4.0660 hc        1 645      0.054922
     47 H153        4.3990   -1.4610    5.8010 hc        1 645      0.054922
     48 H18        -3.5850   -0.1590    0.2850 ha        1 645      0.164000
     49 H20        -1.6360   -3.8540   -0.8860 ha        1 645      0.154000
     50 H21         0.4450   -3.1190    0.2700 ha        1 645      0.150000
@<TRIPOS>BOND
     1    1    2 1   
     2    1   32 1   
     3    2    3 2   
     4    2   19 1   
     5    3    4 1   
     6    3   17 1   
     7    4    5 2   
     8    4    6 1   
     9    6    7 ar  
    10    6   12 ar  
    11    7    8 1   
    12    7    9 ar  
    13    9   10 ar  
    14    9   33 1   
    15   10   11 ar  
    16   10   13 1   
    17   11   12 ar  
    18   11   34 1   
    19   12   35 1   
    20   13   14 2   
    21   13   15 2   
    22   13   16 1   
    23   16   36 1   
    24   16   37 1   
    25   16   38 1   
    26   17   18 2   
    27   17   24 1   
    28   18   19 1   
    29   19   20 1   
    30   20   21 1   
    31   20   22 1   
    32   20   23 1   
    33   21   39 1   
    34   21   40 1   
    35   21   41 1   
    36   22   42 1   
    37   22   43 1   
    38   22   44 1   
    39   23   45 1   
    40   23   46 1   
    41   23   47 1   
    42   24   25 ar  
    43   24   31 ar  
    44   25   26 1   
    45   25   27 ar  
    46   27   28 ar  
    47   27   48 1   
    48   28   29 1   
    49   28   30 ar  
    50   30   31 ar  
    51   30   49 1   
    52   31   50 1   
@<TRIPOS>SUBSTRUCTURE
     1 645         1 TEMP              0 ****  ****    0 ROOT
