@<TRIPOS>MOLECULE
646
   56    54     1     0     0
SMALL
bcc


@<TRIPOS>ATOM
      1 CAA         0.5760   -1.4760   -1.0870 c3        1 646     -0.190000
      2 CAB         4.8270    1.0360   -1.2170 c2        1 646     -0.195000
      3 CAC         3.7290   -2.3640    2.2000 c3        1 646     -0.173000
      4 OAD         0.5390    1.6830   -3.9050 o         1 646     -0.915000
      5 OAE         0.1310    1.3720   -1.5800 o         1 646     -0.915000
      6 CAH         6.0590    8.0810   -2.6950 c1        1 646     -0.135500
      7 CAI         5.1460    7.2230   -2.2110 c2        1 646     -0.217500
      8 CAJ         3.5950    4.8320   -2.8400 c2        1 646     -0.173000
      9 CAK         0.7400    4.7740   -1.0360 c1        1 646      0.270000
     10 CAL         3.4420    8.1840   -3.6700 c2        1 646     -0.217500
     11 CAM         6.4690   12.8870   -3.8140 c1        1 646     -0.125000
     12 CAN         9.2790    8.6700   -2.8610 c1        1 646     -0.238500
     13 CAO         5.9900   11.5400   -4.2230 c3        1 646     -0.130000
     14 CAP        10.3730    9.0880   -3.1100 c1        1 646     -0.238500
     15 NAQ         5.6170    9.2610   -3.4640 n3        1 646      0.092000
     16 NAR         2.5850   -2.0260    0.2140 n2        1 646     -0.075000
     17 NAS         7.0850   13.1820   -2.7080 n8        1 646     -0.227000
     18 NAT         2.2190    0.4310   -2.6240 n7        1 646     -0.831000
     19 CAU         2.0190   -1.2050   -0.8210 c2        1 646     -0.033000
     20 CAV         4.2000   -0.1370   -1.2960 c2        1 646     -0.140000
     21 CAW         2.9130    3.5650   -3.0650 c2        1 646      0.129000
     22 CAX         1.5420    3.7090   -1.0650 c2        1 646     -0.333000
     23 CAY         3.6510    7.3010   -2.4730 c3        1 646     -0.024000
     24 CAZ         2.9600    6.0030   -2.7020 c2        1 646     -0.090000
     25 CBA         4.3480    9.1640   -3.7770 c1        1 646     -0.135500
     26 CBB         2.7560   -0.2980   -1.5420 c2        1 646      0.024000
     27 CBC         1.9460    3.0240   -2.2890 c2        1 646     -0.770000
     28 NBD         6.3110   10.4310   -3.3050 n7        1 646     -0.197000
     29 NBE         3.1750   -1.5160    1.1590 n2        1 646     -0.089000
     30 SBF         1.0710    1.5700   -2.6030 s6        1 646      2.836000
     31 HAA         0.3780   -1.4860   -2.1880 hc        1 646      0.106667
     32 HAAA       -0.0490   -0.6710   -0.6180 hc        1 646      0.106667
     33 HAAB        0.2490   -2.4630   -0.6730 hc        1 646      0.106667
     34 HAB         4.7560   -1.0830   -1.1770 ha        1 646      0.133000
     35 HABA        4.3110    2.0010   -1.3210 ha        1 646      0.116000
     36 HABB        5.9060    1.1040   -1.0280 ha        1 646      0.116000
     37 HAC         4.8220   -2.1200    2.2610 h1        1 646      0.101333
     38 HACA        3.2330   -2.0570    3.1590 h1        1 646      0.101333
     39 HACB        3.6090   -3.4720    2.0660 h1        1 646      0.101333
     40 HAH         5.4560    6.4550   -1.4890 ha        1 646      0.173500
     41 HAI         3.2110    7.7530   -1.5300 hc        1 646      0.139000
     42 HAJ         4.6990    4.7690   -2.8200 ha        1 646      0.171000
     43 HAK         1.8570    6.0720   -2.7540 ha        1 646      0.140000
     44 HAL         2.6840    7.9530   -4.4250 ha        1 646      0.173500
     45 HAM         8.4530   10.5060   -1.2870 ha        1 646      0.001500
     46 HAMA        4.8660   11.6390   -4.3190 h1        1 646      0.131000
     47 HAN         7.3270   12.5550   -1.9660 hn        1 646      0.206000
     48 HANA        8.3030    8.2840   -2.6420 ha        1 646      0.235500
     49 HAO         8.2440   10.9630   -0.8310 ha        1 646      0.001500
     50 HAOA        6.4030   11.3620   -5.2610 h1        1 646      0.131000
     51 HAP        11.3430    9.4550   -3.3290 ha        1 646      0.235500
     52 HAPA        7.3000   10.1880   -3.3650 hn        1 646      0.203000
     53 HNAS        7.3390   14.1340   -2.5590 hn        1 646      0.206000
     54 HNAT        2.7010    0.2340   -3.4760 hn        1 646      0.254000
     55 ClF         3.4760    2.7480   -4.4510 cl        1 646      0.017000
     56 ClG         2.1500    3.0940    0.4040 cl        1 646      0.049000
@<TRIPOS>BOND
     1    1   19 1   
     2    1   31 1   
     3    1   32 1   
     4    1   33 1   
     5    2   20 1   
     6    2   35 1   
     7    2   36 1   
     8    3   29 1   
     9    3   37 1   
    10    3   38 1   
    11    3   39 1   
    12    4   30 1   
    13    5   30 1   
    14    6    7 1   
    15    6   15 1   
    16    7   23 1   
    17    7   40 1   
    18    8   21 1   
    19    8   24 1   
    20    8   42 1   
    21    9   22 1   
    22   10   23 1   
    23   10   25 1   
    24   10   44 1   
    25   11   13 1   
    26   11   17 1   
    27   12   14 1   
    28   12   48 1   
    29   13   28 1   
    30   13   46 1   
    31   13   50 1   
    32   14   51 1   
    33   15   25 1   
    34   15   28 1   
    35   16   19 1   
    36   16   29 1   
    37   17   47 1   
    38   17   53 1   
    39   18   26 1   
    40   18   30 1   
    41   18   54 1   
    42   19   26 1   
    43   20   26 1   
    44   20   34 1   
    45   21   27 1   
    46   21   55 1   
    47   22   27 1   
    48   22   56 1   
    49   23   24 1   
    50   23   41 1   
    51   24   43 1   
    52   27   30 1   
    53   28   52 1   
    54   45   49 1   
@<TRIPOS>SUBSTRUCTURE
     1 646         1 TEMP              0 ****  ****    0 ROOT
