@<TRIPOS>MOLECULE
646
   56    59     1     0     0
SMALL
bcc


@<TRIPOS>ATOM
      1 CAA        -5.7990    1.8690   -1.1760 c3        1 646     -0.141400
      2 CAB        -2.2740    1.3260    2.5130 c3        1 646     -0.035800
      3 CAC        -3.0080    4.2450    2.1270 c3        1 646      0.040600
      4 OAD        -3.9110   -2.3650   -0.9230 o         1 646     -0.634800
      5 OAE        -3.7510   -0.3410   -2.1200 o         1 646     -0.634800
      6 CAH         4.3490   -3.0040    0.6860 ca        1 646      0.424200
      7 CAI         2.9670   -2.8660    0.4850 ca        1 646     -0.258300
      8 CAJ         0.1020   -1.9910    0.7180 ca        1 646     -0.145500
      9 CAK         0.6060   -0.6160   -1.1890 ca        1 646     -0.145500
     10 CAL         3.3810   -0.5490   -0.0430 ca        1 646     -0.246300
     11 CAM         7.9520    1.1760   -0.5510 c3        1 646      0.148300
     12 CAN         6.3110    2.6820    0.3330 c3        1 646      0.148300
     13 CAO         7.0890   -0.0400   -0.1410 c3        1 646      0.146800
     14 CAP         5.4160    1.4910    0.7500 c3        1 646      0.146800
     15 NAQ         5.2390   -2.0090    0.5590 nb        1 646     -0.703000
     16 NAR        -4.5300    3.3460    0.4190 nc        1 646     -0.506800
     17 NAS         7.7220    2.3770    0.2250 n3        1 646     -0.796200
     18 NAT        -4.0410   -0.2650    0.3630 nh        1 646     -0.745500
     19 CAU        -4.8250    2.1220   -0.0980 cd        1 646      0.343600
     20 CAV        -3.2450    1.8210    1.5260 cc        1 646     -0.090600
     21 CAW        -1.2570   -1.8020    0.4740 ca        1 646      0.117900
     22 CAX        -0.7660   -0.4410   -1.4210 ca        1 646      0.117900
     23 CAY         2.4800   -1.6060    0.1100 cp        1 646     -0.003000
     24 CAZ         1.0510   -1.4020   -0.1260 cp        1 646      0.028000
     25 CBA         4.7720   -0.7740    0.1890 ca        1 646      0.619200
     26 CBB        -4.0150    1.1040    0.5730 cd        1 646     -0.073700
     27 CBC        -1.7440   -1.0590   -0.6230 ca        1 646     -0.313500
     28 NBD         5.6760    0.3030   -0.0540 nh        1 646     -0.730300
     29 NBE        -3.6130    3.1670    1.3840 na        1 646      0.095400
     30 SBF        -3.4560   -1.0300   -0.9380 sy        1 646      1.494200
     31 HAA        -5.2770    1.3880   -2.0450 hc        1 646      0.064367
     32 HAAA       -6.5920    1.1730   -0.8050 hc        1 646      0.064367
     33 HAAB       -6.2870    2.8110   -1.5270 hc        1 646      0.064367
     34 HAB        -2.6640    1.4670    3.5540 hc        1 646      0.054700
     35 HABA       -2.0870    0.2360    2.3480 hc        1 646      0.054700
     36 HABB       -1.3010    1.8730    2.4260 hc        1 646      0.054700
     37 HAC        -2.9080    3.9280    3.1990 h1        1 646      0.059033
     38 HACA       -1.9900    4.4660    1.7090 h1        1 646      0.059033
     39 HACB       -3.6420    5.1680    2.0650 h1        1 646      0.059033
     40 HAH         4.7790   -3.9810    0.9780 h4        1 646      0.027100
     41 HAI         2.2940   -3.7250    0.6060 ha        1 646      0.152000
     42 HAJ         0.4350   -2.5970    1.5760 ha        1 646      0.162500
     43 HAK         1.3410   -0.1350   -1.8570 ha        1 646      0.162500
     44 HAL         3.0190    0.4420   -0.3520 ha        1 646      0.152000
     45 HAM         9.0320    0.8790   -0.4590 h1        1 646      0.062200
     46 HAMA        7.7450    1.4250   -1.6300 h1        1 646      0.062200
     47 HAN         5.9680    3.0600   -0.6710 h1        1 646      0.062200
     48 HANA        6.1660    3.5020    1.0880 h1        1 646      0.062200
     49 HAO         7.2080   -0.8380   -0.9240 h1        1 646      0.047450
     50 HAOA        7.4800   -0.4480    0.8360 h1        1 646      0.047450
     51 HAP         5.5770    1.2810    1.8470 h1        1 646      0.047450
     52 HAPA        4.3420    1.7950    0.6110 h1        1 646      0.047450
     53 HNAS        8.1220    2.2750    1.1420 hn        1 646      0.350800
     54 HNAT       -4.4530   -0.7750    1.1150 hn        1 646      0.458800
     55 CLF        -2.3150   -2.5180    1.6040 cl        1 646     -0.052900
     56 CLG        -1.1430    0.5780   -2.7230 cl        1 646     -0.052900
@<TRIPOS>BOND
     1    1   19 1   
     2    1   31 1   
     3    1   32 1   
     4    1   33 1   
     5    2   20 1   
     6    2   34 1   
     7    2   35 1   
     8    2   36 1   
     9    3   29 1   
    10    3   37 1   
    11    3   38 1   
    12    3   39 1   
    13    4   30 2   
    14    5   30 2   
    15    6    7 ar  
    16    6   15 ar  
    17    6   40 1   
    18    7   23 ar  
    19    7   41 1   
    20    8   21 ar  
    21    8   24 ar  
    22    8   42 1   
    23    9   22 ar  
    24    9   24 ar  
    25    9   43 1   
    26   10   23 ar  
    27   10   25 ar  
    28   10   44 1   
    29   11   13 1   
    30   11   17 1   
    31   11   45 1   
    32   11   46 1   
    33   12   14 1   
    34   12   17 1   
    35   12   47 1   
    36   12   48 1   
    37   13   28 1   
    38   13   49 1   
    39   13   50 1   
    40   14   28 1   
    41   14   51 1   
    42   14   52 1   
    43   15   25 ar  
    44   16   19 2   
    45   16   29 1   
    46   17   53 1   
    47   18   26 1   
    48   18   30 1   
    49   18   54 1   
    50   19   26 1   
    51   20   26 2   
    52   20   29 1   
    53   21   27 ar  
    54   21   55 1   
    55   22   27 ar  
    56   22   56 1   
    57   23   24 1   
    58   25   28 1   
    59   27   30 1   
@<TRIPOS>SUBSTRUCTURE
     1 646         1 TEMP              0 ****  ****    0 ROOT
