@<TRIPOS>MOLECULE
646
   56    54     1     0     0
SMALL
bcc


@<TRIPOS>ATOM
      1 CAA         1.9240    4.8050    4.7600 c3        1 646     -0.151000
      2 CAB         5.7680    3.6320    1.5550 c3        1 646     -0.175000
      3 CAC         6.5130    3.8060    4.6530 c3        1 646     -0.059000
      4 OAD         3.5100    1.4410    0.8750 o         1 646     -0.921500
      5 OAE         2.2700    0.7860    2.6110 o         1 646     -0.921500
      6 CLF         2.4770    1.9920   -1.6280 cl        1 646      0.015000
      7 CLG        -0.8140    1.4920    2.6610 cl        1 646      0.044000
      8 CAH        -1.3340   -4.0660   -0.7390 c1        1 646     -0.039000
      9 CAI        -0.7670   -2.7990   -0.5650 c1        1 646     -0.170500
     10 CAJ         0.3760    0.2620   -1.5600 c1        1 646     -0.143000
     11 CAK        -1.0650   -0.0090    0.3710 c1        1 646     -0.170500
     12 CAL        -2.4120   -1.8780   -2.0010 c1        1 646     -0.184000
     13 CAM        -6.3210   -4.0020   -3.4000 c3        1 646     -0.078500
     14 CAN        -4.7720   -4.1780   -5.1870 c3        1 646     -0.078500
     15 CAO        -5.1820   -3.7690   -2.4410 c3        1 646     -0.052500
     16 CAP        -3.6390   -3.9450   -4.2290 c3        1 646     -0.052500
     17 NAQ        -2.4300   -4.2220   -1.5390 n1        1 646     -0.176000
     18 NAR         4.4620    4.3570    4.6880 n2        1 646     -0.075000
     19 NAS        -5.9190   -4.7390   -4.5480 n3        1 646     -0.300000
     20 NAT         2.2660    3.2970    2.1740 nh        1 646     -0.803000
     21 CAU         3.2610    4.2910    4.1260 c2        1 646     -0.086000
     22 CAV         4.7300    3.5380    2.6620 c2        1 646     -0.038000
     23 CAW         1.1630    1.1880   -0.8440 c2        1 646      0.030000
     24 CAX        -0.2760    0.9200    1.0890 c1        1 646      0.046000
     25 CAY        -1.3080   -1.7200   -1.1940 c1        1 646      0.015000
     26 CAZ        -0.7360   -0.3340   -0.9490 c1        1 646      0.015000
     27 CBA        -2.9740   -3.1420   -2.1710 c1        1 646      0.102000
     28 CBB         3.4120    3.7800    2.8580 c2        1 646     -0.108000
     29 CBC         0.8340    1.5130    0.4780 c2        1 646     -0.767000
     30 NBD        -4.0410   -3.2090   -3.0820 n3        1 646     -0.223000
     31 NBE         5.3850    3.8890    3.7810 na        1 646     -0.117000
     32 SBF         2.2550    1.7490    1.5660 s6        1 646      2.852000
     33 HAA         1.2690    4.0800    4.7730 hc        1 646      0.094333
     34 HAAA        1.5780    5.5430    4.2350 hc        1 646      0.094333
     35 HAAB        2.0920    5.1060    5.6720 hc        1 646      0.094333
     36 HAB         5.3360    3.5190    0.6970 hc        1 646      0.104000
     37 HABA        6.4490    2.9220    1.6790 hc        1 646      0.104000
     38 HABB        6.1930    4.4900    1.5890 hc        1 646      0.104000
     39 HAC         7.2760    3.3810    4.1710 h1        1 646      0.099333
     40 HACA        6.2880    3.2810    5.4160 h1        1 646      0.099333
     41 HACB        6.7750    4.7290    4.9480 h1        1 646      0.099333
     42 HAH        -0.9480   -4.8360   -0.2900 ha        1 646      0.164000
     43 HAI         0.0240   -2.6880    0.0120 ha        1 646      0.157000
     44 HAJ         0.6100    0.0320   -2.4930 ha        1 646      0.161000
     45 HAK        -1.8230   -0.4140    0.7870 ha        1 646      0.157000
     46 HAL        -2.8060   -1.0960   -2.4580 ha        1 646      0.151000
     47 HAM        -6.6830   -3.1270   -3.6890 h1        1 646      0.077000
     48 HAMA       -7.0460   -4.5130   -2.9240 h1        1 646      0.077000
     49 HAN        -5.0250   -3.3140   -5.6020 h1        1 646      0.077000
     50 HANA       -4.4550   -4.8210   -5.9250 h1        1 646      0.077000
     51 HAO        -4.9330   -4.6120   -2.0370 h1        1 646      0.091250
     52 HAOA       -5.4720   -3.1760   -1.7600 h1        1 646      0.091250
     53 HAP        -2.9190   -3.4400   -4.7000 h1        1 646      0.091250
     54 HAPA       -3.2820   -4.8160   -3.9390 h1        1 646      0.091250
     55 HNAS       -6.5970   -4.7740   -5.1330 hn        1 646      0.162000
     56 HNAT        1.4840    3.8200    2.1420 hn        1 646      0.251000
@<TRIPOS>BOND
     1    1   21 1   
     2    1   33 1   
     3    1   34 1   
     4    1   35 1   
     5    2   22 1   
     6    2   36 1   
     7    2   37 1   
     8    2   38 1   
     9    3   31 1   
    10    3   39 1   
    11    3   40 1   
    12    3   41 1   
    13    4   32 1   
    14    5   32 1   
    15    6   23 1   
    16    7   24 1   
    17    8   17 1   
    18    8   42 1   
    19    9   25 1   
    20    9   43 1   
    21   10   23 1   
    22   10   44 1   
    23   11   26 1   
    24   11   45 1   
    25   12   27 1   
    26   12   46 1   
    27   13   15 1   
    28   13   19 1   
    29   13   47 1   
    30   13   48 1   
    31   14   16 1   
    32   14   19 1   
    33   14   49 1   
    34   14   50 1   
    35   15   30 1   
    36   15   51 1   
    37   15   52 1   
    38   16   30 1   
    39   16   53 1   
    40   16   54 1   
    41   18   21 1   
    42   18   31 1   
    43   19   55 1   
    44   20   28 1   
    45   20   32 1   
    46   20   56 1   
    47   21   28 1   
    48   22   28 1   
    49   22   31 1   
    50   23   29 1   
    51   24   29 1   
    52   25   26 1   
    53   27   30 1   
    54   29   32 1   
@<TRIPOS>SUBSTRUCTURE
     1 646         1 TEMP              0 ****  ****    0 ROOT
