@<TRIPOS>MOLECULE
647
   45    35     1     0     0
SMALL
bcc


@<TRIPOS>ATOM
      1 C1         -1.6310    6.5170    0.8570 c1        1 647     -0.127500
      2 C3         -1.7660    6.8850    2.2090 c1        1 647     -0.044500
      3 N5         -0.9590    6.3320    3.1470 n1        1 647     -0.166500
      4 C6         -0.6770    5.5930    0.4860 c1        1 647     -0.127500
      5 N8          0.9900    4.7490    3.5070 n2        1 647     -0.200000
      6 C10         1.7380    3.9790    2.6350 c1        1 647     -0.023000
      7 C12         1.2200    4.1490    1.3620 c1        1 647     -0.126000
      8 C13         0.1490    5.0270    1.4510 c1        1 647     -0.126000
      9 C14         0.0100    5.3950    2.7770 c1        1 647     -0.023000
     10 C15         1.9610    3.5080    0.2200 c2        1 647     -0.042000
     11 C18         1.3750    2.1440   -0.0670 c1        1 647     -0.158000
     12 C19         0.5140    1.9740   -1.1400 c1        1 647     -0.044500
     13 N21         0.0890    0.7320   -1.4800 n1        1 647     -0.166500
     14 C22         0.5020   -0.3390   -0.7770 c1        1 647     -0.031500
     15 C23         1.3640   -0.1720    0.2980 c1        1 647     -0.150500
     16 C25         1.7900    1.0710    0.6400 c1        1 647     -0.056000
     17 N27         0.1210   -1.6750   -1.2010 n2        1 647     -0.272000
     18 C29        -0.7060   -2.5020   -0.3450 c3        1 647     -0.019000
     19 C32        -0.7380   -3.8940   -0.8860 c2        1 647     -0.070000
     20 C33        -1.9290   -4.4120   -1.3900 c2        1 647     -0.124000
     21 C35        -1.9870   -5.7500   -1.8310 c1        1 647     -0.082000
     22 C37        -0.8820   -6.5340   -1.7650 c1        1 647     -0.031500
     23 C38         0.3330   -6.0040   -1.2510 c1        1 647     -0.150500
     24 C40         0.3880   -4.6920   -0.8190 c1        1 647     -0.122000
     25 C42        -0.9300   -7.9530   -2.2800 c2        1 647      0.466000
     26 F43         0.0000   -8.6550   -1.6980 f         1 647     -0.165000
     27 F44        -2.1800   -8.5100   -2.0010 f         1 647     -0.165000
     28 F45        -0.7370   -7.9550   -3.5450 f         1 647     -0.165000
     29 H1         -2.2010    6.9110    0.1940 ha        1 647      0.141500
     30 H2         -2.4430    7.5370    2.4720 ha        1 647      0.157500
     31 H3         -0.5800    5.3280   -0.4830 ha        1 647      0.141500
     32 H4          1.1220    4.8210    4.4150 DU        1 647      0.215500
     33 H5          2.4360    3.3850    2.8770 DU        1 647      0.215500
     34 H6          1.8850    4.0340   -0.5240 ha        1 647      0.095000
     35 H7          2.8760    3.4150    0.4500 ha        1 647      0.095000
     36 H8          0.2160    2.7460   -1.6480 ha        1 647      0.157500
     37 H9          1.6520   -0.9190    0.7880 ha        1 647      0.148000
     38 H10         2.4110    1.1910    1.4120 ha        1 647      0.144000
     39 H11         0.3620   -1.9720   -2.0070 hn        1 647      0.210000
     40 H12        -1.6120   -2.1430   -0.3240 h1        1 647      0.094500
     41 H13        -0.3390   -2.5100    0.5570 h1        1 647      0.094500
     42 H14        -2.7390   -3.8350   -1.4390 ha        1 647      0.145000
     43 H15        -2.8480   -6.1250   -2.1950 ha        1 647      0.154000
     44 H16         1.1170   -6.5600   -1.2040 ha        1 647      0.148000
     45 H17         1.2610   -4.3130   -0.4510 ha        1 647      0.155000
@<TRIPOS>BOND
     1    1    4 1   
     2    1   29 1   
     3    2    3 1   
     4    2   30 1   
     5    4   31 1   
     6    5    6 1   
     7    5    9 1   
     8    6    7 1   
     9    7    8 1   
    10    8    9 1   
    11   10   11 1   
    12   10   34 1   
    13   10   35 1   
    14   11   16 1   
    15   12   13 1   
    16   12   36 1   
    17   14   15 1   
    18   15   37 1   
    19   16   38 1   
    20   17   18 1   
    21   17   39 1   
    22   18   19 1   
    23   18   40 1   
    24   18   41 1   
    25   19   20 1   
    26   19   24 1   
    27   20   21 1   
    28   20   42 1   
    29   21   43 1   
    30   22   23 1   
    31   23   44 1   
    32   24   45 1   
    33   25   26 1   
    34   25   27 1   
    35   25   28 1   
@<TRIPOS>SUBSTRUCTURE
     1 647         1 TEMP              0 ****  ****    0 ROOT
