@<TRIPOS>MOLECULE
647
   45    48     1     0     0
SMALL
bcc


@<TRIPOS>ATOM
      1 C1          0.2870    2.4490    0.5360 ca        1 647     -0.275300
      2 C3          1.6960    2.2760    0.5410 ca        1 647      0.412200
      3 N5          2.3610    1.3720    1.2690 nb        1 647     -0.670000
      4 C6         -0.5100    1.6410    1.3330 ca        1 647     -0.050000
      5 N8          1.9700   -0.4520    2.9190 na        1 647     -0.286100
      6 C10         0.8290   -0.9920    3.5110 cc        1 647     -0.088100
      7 C12        -0.3180   -0.3380    3.0570 cd        1 647     -0.136400
      8 C13         0.1170    0.6730    2.1220 ca        1 647     -0.194100
      9 C14         1.5710    0.5770    2.0530 ca        1 647      0.421800
     10 C15        -1.7140   -0.5770    3.4570 c3        1 647      0.049100
     11 C18        -1.9960   -1.9790    3.8600 ca        1 647     -0.236600
     12 C19        -2.0780   -3.0070    2.8950 ca        1 647      0.440200
     13 N21        -2.3530   -4.2860    3.1680 nb        1 647     -0.715000
     14 C22        -2.5550   -4.6310    4.4850 ca        1 647      0.619200
     15 C23        -2.5040   -3.6550    5.5220 ca        1 647     -0.290300
     16 C25        -2.2220   -2.3320    5.1930 ca        1 647     -0.065000
     17 N27        -2.7300   -5.9960    4.8010 nu        1 647     -0.829900
     18 C29        -3.5940   -6.3020    5.9240 c3        1 647      0.226100
     19 C32        -4.2220   -7.6630    5.8430 ca        1 647     -0.077300
     20 C33        -3.4300   -8.7970    5.6300 ca        1 647     -0.123000
     21 C35        -4.0140  -10.0620    5.5920 ca        1 647     -0.081000
     22 C37        -5.3940  -10.1920    5.7700 ca        1 647     -0.163300
     23 C38        -6.1900   -9.0650    5.9820 ca        1 647     -0.081000
     24 C40        -5.6030   -7.8020    6.0160 ca        1 647     -0.123000
     25 C42        -6.0320  -11.5760    5.7490 c3        1 647      0.687200
     26 F43        -5.3840  -12.4920    4.9570 f         1 647     -0.235967
     27 F44        -6.0940  -12.1830    6.9810 f         1 647     -0.235967
     28 F45        -7.3290  -11.6000    5.2990 f         1 647     -0.235967
     29 H1         -0.1550    3.2240   -0.1020 ha        1 647      0.141000
     30 H2          2.3310    2.9200   -0.0940 h4        1 647      0.021100
     31 H3         -1.6040    1.7510    1.3490 ha        1 647      0.137000
     32 H4          2.8990   -0.7530    3.0580 hn        1 647      0.310700
     33 H5          0.9120   -1.8190    4.2200 h4        1 647      0.174000
     34 H6         -1.9700    0.1170    4.3080 hc        1 647      0.055200
     35 H7         -2.3890   -0.3000    2.5980 hc        1 647      0.055200
     36 H8         -1.9160   -2.7790    1.8240 h4        1 647      0.028100
     37 H9         -2.6710   -3.9380    6.5700 ha        1 647      0.143000
     38 H10        -2.1780   -1.5690    5.9850 ha        1 647      0.138000
     39 H11        -2.8770   -6.5890    4.0070 hn        1 647      0.416800
     40 H12        -2.9540   -6.2640    6.8560 h1        1 647      0.054700
     41 H13        -4.4040   -5.5230    6.0430 h1        1 647      0.054700
     42 H14        -2.3420   -8.6930    5.4980 ha        1 647      0.150000
     43 H15        -3.3950  -10.9570    5.4190 ha        1 647      0.154500
     44 H16        -7.2780   -9.1780    6.1140 ha        1 647      0.154500
     45 H17        -6.2330   -6.9140    6.1790 ha        1 647      0.150000
@<TRIPOS>BOND
     1    1    2 ar  
     2    1    4 ar  
     3    1   29 1   
     4    2    3 ar  
     5    2   30 1   
     6    3    9 ar  
     7    4    8 ar  
     8    4   31 1   
     9    5    6 1   
    10    5    9 1   
    11    5   32 1   
    12    6    7 2   
    13    6   33 1   
    14    7    8 1   
    15    7   10 1   
    16    8    9 ar  
    17   10   11 1   
    18   10   34 1   
    19   10   35 1   
    20   11   12 ar  
    21   11   16 ar  
    22   12   13 ar  
    23   12   36 1   
    24   13   14 ar  
    25   14   15 ar  
    26   14   17 1   
    27   15   16 ar  
    28   15   37 1   
    29   16   38 1   
    30   17   18 1   
    31   17   39 1   
    32   18   19 1   
    33   18   40 1   
    34   18   41 1   
    35   19   20 ar  
    36   19   24 ar  
    37   20   21 ar  
    38   20   42 1   
    39   21   22 ar  
    40   21   43 1   
    41   22   23 ar  
    42   22   25 1   
    43   23   24 ar  
    44   23   44 1   
    45   24   45 1   
    46   25   26 1   
    47   25   27 1   
    48   25   28 1   
@<TRIPOS>SUBSTRUCTURE
     1 647         1 TEMP              0 ****  ****    0 ROOT
