@<TRIPOS>MOLECULE
647
   46    49     1     0     0
SMALL
bcc


@<TRIPOS>ATOM
      1 C1          0.3320   -0.0510    0.0920 ca        1 647     -0.255300
      2 C3          1.7480   -0.0810    0.2210 ca        1 647      0.421200
      3 N5          2.4160   -0.0920    1.3770 nb        1 647     -0.651000
      4 C6         -0.4630   -0.0350    1.2260 ca        1 647     -0.070000
      5 N8          2.0360   -0.0670    3.8390 na        1 647     -0.271100
      6 C10         0.9010   -0.0280    4.6400 cc        1 647     -0.068100
      7 C12        -0.2570   -0.0300    3.8530 cd        1 647     -0.184400
      8 C13         0.1700   -0.0510    2.4740 ca        1 647     -0.202100
      9 C14         1.6270   -0.0710    2.4940 ca        1 647      0.423800
     10 C15        -1.6390    0.0360    4.3420 c3        1 647      0.032100
     11 C18        -2.2880   -1.2970    4.4850 ca        1 647     -0.111600
     12 C19        -2.0300   -2.3350    3.5470 ca        1 647      0.434200
     13 N21        -2.5950   -3.5430    3.5980 nb        1 647     -0.648000
     14 C22        -3.4710   -3.7750    4.6220 ca        1 647      0.420200
     15 C23        -3.7960   -2.8220    5.6070 ca        1 647     -0.192300
     16 C25        -3.1850   -1.5640    5.5200 ca        1 647     -0.092000
     17 N27        -4.0990   -5.1130    4.6670 n4        1 647     -0.739700
     18 C29        -3.1200   -6.1810    5.0720 c3        1 647      0.171100
     19 C32        -3.7920   -7.5100    5.1530 ca        1 647     -0.164300
     20 C33        -3.9150   -8.2970    4.0020 ca        1 647     -0.106500
     21 C35        -4.5080   -9.5560    4.0800 ca        1 647     -0.073500
     22 C37        -4.9760  -10.0230    5.3110 ca        1 647     -0.125300
     23 C38        -4.8520   -9.2440    6.4630 ca        1 647     -0.073500
     24 C40        -4.2600   -7.9840    6.3830 ca        1 647     -0.106500
     25 C42        -5.6130  -11.4130    5.4020 c3        1 647      0.686200
     26 F43        -6.2490  -11.8090    4.2530 f         1 647     -0.220300
     27 F44        -4.7110  -12.4120    5.6670 f         1 647     -0.220300
     28 F45        -6.5630  -11.5260    6.3850 f         1 647     -0.220300
     29 H1         -0.1130   -0.0320   -0.9120 ha        1 647      0.153000
     30 H2          2.3830   -0.0930   -0.6860 h4        1 647      0.036100
     31 H3         -1.5590    0.0030    1.1550 ha        1 647      0.134000
     32 H4          2.9740   -0.0240    4.1480 hn        1 647      0.322700
     33 H5          0.9930    0.0050    5.7290 h4        1 647      0.175000
     34 H6         -2.2590    0.6440    3.6200 hc        1 647      0.080200
     35 H7         -1.6670    0.5720    5.3330 hc        1 647      0.080200
     36 H8         -1.3170   -2.1650    2.7090 h4        1 647      0.078100
     37 H9         -4.5040   -3.0330    6.4220 ha        1 647      0.163000
     38 H10        -3.4190   -0.7940    6.2740 ha        1 647      0.175000
     39 H11        -4.4780   -5.3460    3.7380 hn        1 647      0.458800
     40 H12        -2.2900   -6.1960    4.3050 hx        1 647      0.119700
     41 H13        -2.6820   -5.8830    6.0680 hx        1 647      0.119700
     42 H14        -3.5290   -7.9370    3.0350 ha        1 647      0.150000
     43 H15        -4.6070  -10.1840    3.1780 ha        1 647      0.177000
     44 H16        -5.2210   -9.6270    7.4310 ha        1 647      0.177000
     45 H17        -4.1480   -7.3790    7.2960 ha        1 647      0.150000
     46 H272       -4.8760   -5.0870    5.3360 hn        1 647      0.458800
@<TRIPOS>BOND
     1    1    2 ar  
     2    1    4 ar  
     3    1   29 1   
     4    2    3 ar  
     5    2   30 1   
     6    3    9 ar  
     7    4    8 ar  
     8    4   31 1   
     9    5    6 1   
    10    5    9 1   
    11    5   32 1   
    12    6    7 2   
    13    6   33 1   
    14    7    8 1   
    15    7   10 1   
    16    8    9 ar  
    17   10   11 1   
    18   10   34 1   
    19   10   35 1   
    20   11   12 ar  
    21   11   16 ar  
    22   12   13 ar  
    23   12   36 1   
    24   13   14 ar  
    25   14   15 ar  
    26   14   17 1   
    27   15   16 ar  
    28   15   37 1   
    29   16   38 1   
    30   17   18 1   
    31   17   39 1   
    32   17   46 1   
    33   18   19 1   
    34   18   40 1   
    35   18   41 1   
    36   19   20 ar  
    37   19   24 ar  
    38   20   21 ar  
    39   20   42 1   
    40   21   22 ar  
    41   21   43 1   
    42   22   23 ar  
    43   22   25 1   
    44   23   24 ar  
    45   23   44 1   
    46   24   45 1   
    47   25   26 1   
    48   25   27 1   
    49   25   28 1   
@<TRIPOS>SUBSTRUCTURE
     1 647         1 TEMP              0 ****  ****    0 ROOT
