@<TRIPOS>MOLECULE
647
   45    48     1     0     0
SMALL
bcc


@<TRIPOS>ATOM
      1 C1          6.5370    2.0520    1.8940 ca        1 647     -0.272300
      2 C3          7.0950    2.8150    0.8350 ca        1 647      0.413200
      3 N5          7.0460    2.4900   -0.4610 nb        1 647     -0.669000
      4 C6          5.8760    0.8650    1.6160 ca        1 647     -0.053000
      5 N8          6.1810    0.7160   -1.9810 na        1 647     -0.285100
      6 C10         5.4690   -0.4660   -1.7800 cc        1 647     -0.091100
      7 C12         5.2080   -0.6600   -0.4220 cd        1 647     -0.133400
      8 C13         5.7850    0.4620    0.2810 ca        1 647     -0.194100
      9 C14         6.3930    1.3180   -0.7310 ca        1 647      0.421800
     10 C15         4.5050   -1.8030    0.1820 c3        1 647      0.049100
     11 C18         3.0320   -1.6170    0.2700 ca        1 647     -0.232600
     12 C19         2.4800   -0.4510    0.8460 ca        1 647      0.440200
     13 N21         1.1710   -0.2190    0.9870 nb        1 647     -0.713000
     14 C22         0.2980   -1.1920    0.5550 ca        1 647      0.617200
     15 C23         0.7690   -2.3920   -0.0510 ca        1 647     -0.288300
     16 C25         2.1410   -2.5910   -0.1840 ca        1 647     -0.066000
     17 N27        -1.0810   -1.0120    0.8020 nh        1 647     -0.828900
     18 C29        -1.9950   -1.5580   -0.1800 c3        1 647      0.226100
     19 C32        -3.3250   -0.8620   -0.2140 ca        1 647     -0.076300
     20 C33        -3.8450   -0.4170   -1.4340 ca        1 647     -0.122500
     21 C35        -5.0960    0.1950   -1.4810 ca        1 647     -0.082000
     22 C37        -5.8260    0.3680   -0.3020 ca        1 647     -0.164300
     23 C38        -5.3110   -0.0680    0.9200 ca        1 647     -0.082000
     24 C40        -4.0610   -0.6830    0.9620 ca        1 647     -0.122500
     25 C42        -7.2010    1.0220   -0.3540 c3        1 647      0.687200
     26 F43        -7.3570    1.9450   -1.3600 f         1 647     -0.236633
     27 F44        -8.2360    0.1390   -0.5490 f         1 647     -0.236633
     28 F45        -7.5530    1.7040    0.7850 f         1 647     -0.236633
     29 H1          6.6370    2.4140    2.9250 ha        1 647      0.143000
     30 H2          7.6220    3.7610    1.0580 h4        1 647      0.022100
     31 H3          5.4340    0.2530    2.4150 ha        1 647      0.140000
     32 H4          6.4760    1.0810   -2.8480 hn        1 647      0.310700
     33 H5          5.1960   -1.0960   -2.6290 h4        1 647      0.170000
     34 H6          4.7310   -2.7330   -0.4110 hc        1 647      0.054700
     35 H7          4.9060   -1.9690    1.2230 hc        1 647      0.054700
     36 H8          3.1480    0.3560    1.2060 h4        1 647      0.030100
     37 H9          0.0660   -3.1620   -0.3950 ha        1 647      0.142000
     38 H10         2.5160   -3.5180   -0.6440 ha        1 647      0.135000
     39 H11        -1.3280   -0.0920    1.1130 hn        1 647      0.415800
     40 H12        -1.5420   -1.5480   -1.2160 h1        1 647      0.054200
     41 H13        -2.1730   -2.6410    0.0950 h1        1 647      0.054200
     42 H14        -3.2700   -0.5490   -2.3630 ha        1 647      0.149500
     43 H15        -5.5080    0.5490   -2.4390 ha        1 647      0.154500
     44 H16        -5.8910    0.0790    1.8450 ha        1 647      0.154500
     45 H17        -3.6570   -1.0340    1.9250 ha        1 647      0.149500
@<TRIPOS>BOND
     1    1    2 ar  
     2    1    4 ar  
     3    1   29 1   
     4    2    3 ar  
     5    2   30 1   
     6    3    9 ar  
     7    4    8 ar  
     8    4   31 1   
     9    5    6 1   
    10    5    9 1   
    11    5   32 1   
    12    6    7 2   
    13    6   33 1   
    14    7    8 1   
    15    7   10 1   
    16    8    9 ar  
    17   10   11 1   
    18   10   34 1   
    19   10   35 1   
    20   11   12 ar  
    21   11   16 ar  
    22   12   13 ar  
    23   12   36 1   
    24   13   14 ar  
    25   14   15 ar  
    26   14   17 1   
    27   15   16 ar  
    28   15   37 1   
    29   16   38 1   
    30   17   18 1   
    31   17   39 1   
    32   18   19 1   
    33   18   40 1   
    34   18   41 1   
    35   19   20 ar  
    36   19   24 ar  
    37   20   21 ar  
    38   20   42 1   
    39   21   22 ar  
    40   21   43 1   
    41   22   23 ar  
    42   22   25 1   
    43   23   24 ar  
    44   23   44 1   
    45   24   45 1   
    46   25   26 1   
    47   25   27 1   
    48   25   28 1   
@<TRIPOS>SUBSTRUCTURE
     1 647         1 TEMP              0 ****  ****    0 ROOT
