@<TRIPOS>MOLECULE
647
   45    48     1     0     0
SMALL
bcc


@<TRIPOS>ATOM
      1 C1          0.2440    2.4360    0.5200 ca        1 647     -0.275300
      2 C3          1.6540    2.2720    0.5190 ca        1 647      0.412200
      3 N5          2.3290    1.3820    1.2540 nb        1 647     -0.670000
      4 C6         -0.5430    1.6330    1.3320 ca        1 647     -0.050000
      5 N8          1.9600   -0.4230    2.9300 na        1 647     -0.286100
      6 C10         0.8250   -0.9640    3.5340 cc        1 647     -0.088100
      7 C12        -0.3280   -0.3230    3.0790 cd        1 647     -0.136400
      8 C13         0.0950    0.6800    2.1280 ca        1 647     -0.194100
      9 C14         1.5490    0.5920    2.0520 ca        1 647      0.421800
     10 C15        -1.7200   -0.5650    3.4900 c3        1 647      0.049100
     11 C18        -1.9970   -1.9710    3.8870 ca        1 647     -0.236600
     12 C19        -2.0710   -2.9950    2.9170 ca        1 647      0.440200
     13 N21        -2.3420   -4.2770    3.1840 nb        1 647     -0.715000
     14 C22        -2.5460   -4.6280    4.4990 ca        1 647      0.619200
     15 C23        -2.5020   -3.6560    5.5400 ca        1 647     -0.290300
     16 C25        -2.2250   -2.3310    5.2180 ca        1 647     -0.065000
     17 N27        -2.7160   -5.9950    4.8080 nh        1 647     -0.829900
     18 C29        -3.5830   -6.3090    5.9260 c3        1 647      0.226100
     19 C32        -4.2070   -7.6720    5.8360 ca        1 647     -0.077300
     20 C33        -3.4120   -8.8030    5.6200 ca        1 647     -0.123000
     21 C35        -3.9930  -10.0690    5.5720 ca        1 647     -0.081000
     22 C37        -5.3720  -10.2040    5.7440 ca        1 647     -0.163300
     23 C38        -6.1730   -9.0800    5.9590 ca        1 647     -0.081000
     24 C40        -5.5890   -7.8150    6.0020 ca        1 647     -0.123000
     25 C42        -6.0060  -11.5890    5.7130 c3        1 647      0.687200
     26 F43        -5.3530  -12.4990    4.9180 f         1 647     -0.235967
     27 F44        -6.0720  -12.2040    6.9410 f         1 647     -0.235967
     28 F45        -7.3020  -11.6140    5.2580 f         1 647     -0.235967
     29 H1         -0.2060    3.2000   -0.1260 ha        1 647      0.141000
     30 H2          2.2810    2.9130   -0.1280 h4        1 647      0.021100
     31 H3         -1.6370    1.7360    1.3530 ha        1 647      0.137000
     32 H4          2.8910   -0.7170    3.0660 hn        1 647      0.310700
     33 H5          0.9190   -1.7820    4.2530 h4        1 647      0.174000
     34 H6         -2.4040   -0.2840    2.6400 hc        1 647      0.055200
     35 H7         -1.9680    0.1220    4.3490 hc        1 647      0.055200
     36 H8         -1.9070   -2.7620    1.8480 h4        1 647      0.028100
     37 H9         -2.6710   -3.9450    6.5860 ha        1 647      0.143000
     38 H10        -2.1860   -1.5710    6.0130 ha        1 647      0.138000
     39 H11        -2.8580   -6.5850    4.0110 hn        1 647      0.416800
     40 H12        -4.3960   -5.5330    6.0470 h1        1 647      0.054700
     41 H13        -2.9470   -6.2750    6.8610 h1        1 647      0.054700
     42 H14        -2.3240   -8.6950    5.4920 ha        1 647      0.150000
     43 H15        -3.3700  -10.9610    5.3970 ha        1 647      0.154500
     44 H16        -7.2610   -9.1970    6.0870 ha        1 647      0.154500
     45 H17        -6.2220   -6.9300    6.1680 ha        1 647      0.150000
@<TRIPOS>BOND
     1    1    2 ar  
     2    1    4 ar  
     3    1   29 1   
     4    2    3 ar  
     5    2   30 1   
     6    3    9 ar  
     7    4    8 ar  
     8    4   31 1   
     9    5    6 1   
    10    5    9 1   
    11    5   32 1   
    12    6    7 2   
    13    6   33 1   
    14    7    8 1   
    15    7   10 1   
    16    8    9 ar  
    17   10   11 1   
    18   10   34 1   
    19   10   35 1   
    20   11   12 ar  
    21   11   16 ar  
    22   12   13 ar  
    23   12   36 1   
    24   13   14 ar  
    25   14   15 ar  
    26   14   17 1   
    27   15   16 ar  
    28   15   37 1   
    29   16   38 1   
    30   17   18 1   
    31   17   39 1   
    32   18   19 1   
    33   18   40 1   
    34   18   41 1   
    35   19   20 ar  
    36   19   24 ar  
    37   20   21 ar  
    38   20   42 1   
    39   21   22 ar  
    40   21   43 1   
    41   22   23 ar  
    42   22   25 1   
    43   23   24 ar  
    44   23   44 1   
    45   24   45 1   
    46   25   26 1   
    47   25   27 1   
    48   25   28 1   
@<TRIPOS>SUBSTRUCTURE
     1 647         1 TEMP              0 ****  ****    0 ROOT
