@<TRIPOS>MOLECULE
64D
   38    39     1     0     0
SMALL
bcc


@<TRIPOS>ATOM
      1 C13        -0.0990    0.2330    0.7000 ca        1 64D     -0.008000
      2 C17        -0.0920   -1.7950    1.9980 ca        1 64D     -0.008000
      3 C14         1.1830   -0.0440    0.2370 ca        1 64D     -0.153000
      4 C16         1.1910   -2.0920    1.5440 ca        1 64D     -0.153000
      5 C10        -0.7570   -0.6360    1.5810 ca        1 64D     -0.396500
      6 C15         1.8270   -1.2140    0.6600 ca        1 64D      0.076400
      7 C19        -1.4920   -5.8310    2.2710 c         1 64D      0.706100
      8 C4         -3.5260   -3.5640    3.3170 c3        1 64D     -0.108400
      9 C5         -3.8690   -4.1670    0.9000 c3        1 64D     -0.108400
     10 C2         -3.3540   -5.0500    3.6180 c3        1 64D      0.056500
     11 C3         -3.7150   -5.6370    1.2980 c3        1 64D      0.056500
     12 C6         -4.3630   -3.3340    2.0700 c3        1 64D     -0.087700
     13 C7         -4.4340   -1.8380    1.7230 c3        1 64D      0.235800
     14 N1         -2.9010   -5.8520    2.4870 n         1 64D     -0.427800
     15 N8         -3.2230   -1.2320    1.2570 n7        1 64D     -0.918100
     16 O20        -0.9380   -6.7180    1.3850 oh        1 64D     -0.566100
     17 O11        -2.4140   -0.5880    3.5170 o         1 64D     -0.658300
     18 O12        -2.5580    1.0990    1.8390 o         1 64D     -0.658300
     19 S9         -2.2970   -0.2470    2.1550 sy        1 64D      1.523200
     20 Cl1         3.3880   -1.5630    0.0980 cl        1 64D     -0.075400
     21 O22        -0.6510   -5.1280    2.8470 o         1 64D     -0.527000
     22 H13        -0.6050    1.1630    0.3810 ha        1 64D      0.166500
     23 H14         1.6860    0.6520   -0.4510 ha        1 64D      0.162000
     24 H17        -0.5770   -2.4930    2.7070 ha        1 64D      0.166500
     25 H16         1.6920   -3.0140    1.8820 ha        1 64D      0.162000
     26 H41C       -4.0150   -3.0700    4.1970 hc        1 64D      0.060700
     27 H42C       -2.5140   -3.0920    3.2010 hc        1 64D      0.060700
     28 H21C       -2.6200   -5.1730    4.4630 h1        1 64D      0.064700
     29 H22C       -4.3430   -5.4890    3.9340 h1        1 64D      0.064700
     30 H6         -5.4210   -3.6530    2.2990 hc        1 64D      0.055700
     31 H51C       -2.8810   -3.7850    0.5320 hc        1 64D      0.060700
     32 H52C       -4.5980   -4.0980    0.0520 hc        1 64D      0.060700
     33 H31C       -3.2750   -6.2080    0.4330 h1        1 64D      0.064700
     34 H32C       -4.7310   -6.0690    1.5230 h1        1 64D      0.064700
     35 H71C       -5.2310   -1.7080    0.9330 h1        1 64D      0.054700
     36 H72C       -4.7720   -1.2900    2.6520 h1        1 64D      0.054700
     37 H8         -1.5920   -7.3570    1.0660 ho        1 64D      0.435000
     38 H82        -2.9780   -1.4950    0.3350 hn        1 64D      0.442800
@<TRIPOS>BOND
     1    1    3 ar  
     2    1    5 ar  
     3    1   22 1   
     4    2    4 ar  
     5    2    5 ar  
     6    2   24 1   
     7    3    6 ar  
     8    3   23 1   
     9    4    6 ar  
    10    4   25 1   
    11    5   19 1   
    12    6   20 1   
    13    7   14 1   
    14    7   16 1   
    15    7   21 2   
    16    8   10 1   
    17    8   12 1   
    18    8   26 1   
    19    8   27 1   
    20    9   11 1   
    21    9   12 1   
    22    9   31 1   
    23    9   32 1   
    24   10   14 1   
    25   10   28 1   
    26   10   29 1   
    27   11   14 1   
    28   11   33 1   
    29   11   34 1   
    30   12   13 1   
    31   12   30 1   
    32   13   15 1   
    33   13   35 1   
    34   13   36 1   
    35   15   19 1   
    36   15   38 1   
    37   16   37 1   
    38   17   19 2   
    39   18   19 2   
@<TRIPOS>SUBSTRUCTURE
     1 64D         1 TEMP              0 ****  ****    0 ROOT
