@<TRIPOS>MOLECULE
64D
   38    39     1     0     0
SMALL
bcc


@<TRIPOS>ATOM
      1 C13        -0.0330    0.2110    0.7610 ca        1 64D     -0.008000
      2 C17        -0.0660   -1.8470    2.0110 ca        1 64D     -0.008000
      3 C14         1.2390   -0.0840    0.2850 ca        1 64D     -0.153000
      4 C16         1.2080   -2.1630    1.5430 ca        1 64D     -0.153000
      5 C10        -0.7070   -0.6630    1.6260 ca        1 64D     -0.396500
      6 C15         1.8580   -1.2780    0.6770 ca        1 64D      0.076400
      7 C19        -1.5560   -5.8540    2.2000 c         1 64D      0.706100
      8 C4         -3.5320   -3.5670    3.3110 c3        1 64D     -0.108400
      9 C5         -3.9010   -4.1060    0.8820 c3        1 64D     -0.108400
     10 C2         -3.3920   -5.0640    3.5760 c3        1 64D      0.056500
     11 C3         -3.7780   -5.5870    1.2450 c3        1 64D      0.056500
     12 C6         -4.3700   -3.2900    2.0750 c3        1 64D     -0.087700
     13 C7         -4.4090   -1.7840    1.7620 c3        1 64D      0.235800
     14 N1         -2.9640   -5.8490    2.4240 n         1 64D     -0.427800
     15 N8         -3.1880   -1.1950    1.3040 n3        1 64D     -0.918100
     16 O20        -1.0260   -6.7330    1.2900 oh        1 64D     -0.566100
     17 O11        -2.3510   -0.6230    3.5720 o         1 64D     -0.658300
     18 O12        -2.4660    1.1060    1.9360 o         1 64D     -0.658300
     19 S9         -2.2340   -0.2530    2.2190 sy        1 64D      1.523200
     20 CL1         3.4080   -1.6500    0.0960 cl        1 64D     -0.075400
     21 O22        -0.6960   -5.1840    2.7870 o         1 64D     -0.527000
     22 H13        -0.5200    1.1600    0.4680 ha        1 64D      0.166500
     23 H14         1.7550    0.6160   -0.3900 ha        1 64D      0.162000
     24 H17        -0.5630   -2.5500    2.7070 ha        1 64D      0.166500
     25 H16         1.6890   -3.1030    1.8570 ha        1 64D      0.162000
     26 H41C       -4.0050   -3.0830    4.2050 hc        1 64D      0.060700
     27 H42C       -2.5100   -3.1160    3.2000 hc        1 64D      0.060700
     28 H21C       -2.6560   -5.2220    4.4130 h1        1 64D      0.064700
     29 H22C       -4.3890   -5.4870    3.8880 h1        1 64D      0.064700
     30 H6         -5.4340   -3.5900    2.3010 hc        1 64D      0.055700
     31 H51C       -2.9070   -3.7380    0.5180 hc        1 64D      0.060700
     32 H52C       -4.6330   -4.0000    0.0400 hc        1 64D      0.060700
     33 H31C       -3.3560   -6.1480    0.3650 h1        1 64D      0.064700
     34 H32C       -4.8020   -6.0020    1.4660 h1        1 64D      0.064700
     35 H71C       -4.7290   -1.2500    2.7060 h1        1 64D      0.054700
     36 H72C       -5.2070   -1.6180    0.9800 h1        1 64D      0.054700
     37 H8         -1.6960   -7.3490    0.9600 ho        1 64D      0.435000
     38 H82        -2.9540   -1.4420    0.3730 hn        1 64D      0.442800
@<TRIPOS>BOND
     1    1    3 ar  
     2    1    5 ar  
     3    1   22 1   
     4    2    4 ar  
     5    2    5 ar  
     6    2   24 1   
     7    3    6 ar  
     8    3   23 1   
     9    4    6 ar  
    10    4   25 1   
    11    5   19 1   
    12    6   20 1   
    13    7   14 1   
    14    7   16 1   
    15    7   21 2   
    16    8   10 1   
    17    8   12 1   
    18    8   26 1   
    19    8   27 1   
    20    9   11 1   
    21    9   12 1   
    22    9   31 1   
    23    9   32 1   
    24   10   14 1   
    25   10   28 1   
    26   10   29 1   
    27   11   14 1   
    28   11   33 1   
    29   11   34 1   
    30   12   13 1   
    31   12   30 1   
    32   13   15 1   
    33   13   35 1   
    34   13   36 1   
    35   15   19 1   
    36   15   38 1   
    37   16   37 1   
    38   17   19 2   
    39   18   19 2   
@<TRIPOS>SUBSTRUCTURE
     1 64D         1 TEMP              0 ****  ****    0 ROOT
