@<TRIPOS>MOLECULE
64I
   24    25     1     0     0
SMALL
bcc


@<TRIPOS>ATOM
      1 F15         0.0490    0.0700   -0.0020 f         1 64I     -0.102900
      2 C8          1.3970    0.0700   -0.0240 ca        1 64I      0.175400
      3 C10         2.1010    0.0800    1.2050 ca        1 64I      0.036400
      4 F14         1.4290    0.0890    2.3820 f         1 64I     -0.107900
      5 C12         3.5110    0.0810    1.2120 ca        1 64I      0.125100
      6 O13         4.2460    0.0890    2.3650 oh        1 64I     -0.459100
      7 C11         4.2260    0.0710   -0.0050 ca        1 64I      0.036400
      8 F17         5.5750    0.0710   -0.0080 f         1 64I     -0.107900
      9 C9          3.5110    0.0610   -1.2300 ca        1 64I      0.175400
     10 F16         4.2100    0.0520   -2.3840 f         1 64I     -0.102900
     11 C7          2.0990    0.0610   -1.2480 cp        1 64I     -0.112000
     12 C2          1.3740    0.0520   -2.5190 cp        1 64I     -0.112000
     13 C4          1.0210   -1.1690   -3.1320 ca        1 64I      0.175400
     14 F22         1.3440   -2.3470   -2.5600 f         1 64I     -0.102900
     15 C1          1.0180    1.2650   -3.1480 ca        1 64I      0.175400
     16 F18         1.3410    2.4480   -2.5860 f         1 64I     -0.102900
     17 C3          0.3160    1.2700   -4.3810 ca        1 64I      0.036400
     18 F19        -0.0160    2.4380   -4.9670 f         1 64I     -0.107900
     19 C5         -0.0310    0.0400   -4.9830 ca        1 64I      0.125100
     20 O20        -0.7070    0.0990   -6.1700 oh        1 64I     -0.459100
     21 C6          0.3200   -1.1770   -4.3620 ca        1 64I      0.036400
     22 F21        -0.0200   -2.3470   -4.9530 f         1 64I     -0.107900
     23 H1          3.6310    0.0980    3.1190 ho        1 64I      0.444000
     24 H2         -0.8770   -0.8110   -6.4690 ho        1 64I      0.444000
@<TRIPOS>BOND
     1    1    2 1   
     2    2    3 ar  
     3    2   11 ar  
     4    3    4 1   
     5    3    5 ar  
     6    5    6 1   
     7    5    7 ar  
     8    6   23 1   
     9    7    8 1   
    10    7    9 ar  
    11    9   10 1   
    12    9   11 ar  
    13   11   12 1   
    14   12   13 ar  
    15   12   15 ar  
    16   13   14 1   
    17   13   21 ar  
    18   15   16 1   
    19   15   17 ar  
    20   17   18 1   
    21   17   19 ar  
    22   19   20 1   
    23   19   21 ar  
    24   20   24 1   
    25   21   22 1   
@<TRIPOS>SUBSTRUCTURE
     1 64I         1 TEMP              0 ****  ****    0 ROOT
