@<TRIPOS>MOLECULE
64M
   49    52     1     0     0
SMALL
bcc


@<TRIPOS>ATOM
      1 C1         -0.2360    0.5770   -0.0930 ca        1 64M     -0.019200
      2 C2          1.1760    0.7020   -0.2340 ca        1 64M      0.353200
      3 N4          2.0500    0.5690    0.7680 nb        1 64M     -0.642000
      4 C5         -0.8030    0.2960    1.1540 ca        1 64M     -0.091000
      5 N7          2.1620    0.1040    3.2120 na        1 64M     -0.286100
      6 C9          1.2030   -0.1560    4.1880 cc        1 64M     -0.078100
      7 C11        -0.0810   -0.1380    3.6390 cd        1 64M     -0.143400
      8 C12         0.0680    0.1460    2.2300 ca        1 64M     -0.158100
      9 C13         1.5000    0.2930    1.9860 ca        1 64M      0.394800
     10 O14        -1.1310    0.7070   -1.1380 os        1 64M     -0.322900
     11 C15        -1.3480   -0.3470    4.3590 c3        1 64M      0.049100
     12 C18        -1.7480   -1.7760    4.4460 ca        1 64M     -0.231600
     13 C19        -2.0830   -2.3590    5.6860 ca        1 64M      0.430200
     14 N21        -2.4810   -3.6270    5.8490 nb        1 64M     -0.716000
     15 C22        -2.5480   -4.4250    4.7310 ca        1 64M      0.616200
     16 C23        -2.2360   -3.9150    3.4370 ca        1 64M     -0.284300
     17 C25        -1.8350   -2.5890    3.3110 ca        1 64M     -0.056000
     18 C27        -0.5730    1.0700   -2.3960 c3        1 64M      0.112700
     19 N31        -2.8530   -5.7940    4.9020 nu        1 64M     -0.828900
     20 C33        -3.5980   -6.4320    3.8350 c3        1 64M      0.225100
     21 C36        -4.4000   -7.6170    4.2900 ca        1 64M     -0.076300
     22 C37        -5.7530   -7.7130    3.9490 ca        1 64M     -0.123000
     23 C39        -6.4950   -8.8290    4.3330 ca        1 64M     -0.082000
     24 C41        -5.8830   -9.8480    5.0650 ca        1 64M     -0.164300
     25 C42        -4.5340   -9.7580    5.4130 ca        1 64M     -0.082000
     26 C44        -3.7940   -8.6430    5.0240 ca        1 64M     -0.123000
     27 C46        -6.6890  -11.0750    5.4710 c3        1 64M      0.687200
     28 F47        -6.6670  -12.0930    4.5470 f         1 64M     -0.236633
     29 F48        -6.2730  -11.6730    6.6360 f         1 64M     -0.236633
     30 F49        -8.0270  -10.8390    5.6740 f         1 64M     -0.236633
     31 H1          1.6290    0.9240   -1.2160 h4        1 64M      0.026100
     32 H2         -1.8910    0.2010    1.2720 ha        1 64M      0.155000
     33 H3          3.1390    0.1320    3.3420 hn        1 64M      0.310700
     34 H4          1.5040   -0.3370    5.2230 h4        1 64M      0.172000
     35 H5         -1.2610    0.0840    5.3950 hc        1 64M      0.055200
     36 H6         -2.1650    0.2220    3.8300 hc        1 64M      0.055200
     37 H7         -2.0390   -1.7640    6.6170 h4        1 64M      0.019100
     38 H8         -2.2920   -4.5600    2.5500 ha        1 64M      0.143000
     39 H9         -1.5780   -2.1760    2.3220 ha        1 64M      0.147000
     40 H10        -1.4700    1.1550   -3.0610 h1        1 64M      0.045033
     41 H11         0.1160    0.2720   -2.7660 h1        1 64M      0.045033
     42 H12        -0.0400    2.0490   -2.3280 h1        1 64M      0.045033
     43 H13        -3.1810   -6.0320    5.8180 hn        1 64M      0.414800
     44 H14        -4.2810   -5.6980    3.3130 h1        1 64M      0.054700
     45 H15        -2.8450   -6.7900    3.0700 h1        1 64M      0.054700
     46 H16        -6.2380   -6.9090    3.3750 ha        1 64M      0.150000
     47 H17        -7.5620   -8.9060    4.0680 ha        1 64M      0.154000
     48 H18        -4.0610  -10.5650    5.9960 ha        1 64M      0.154000
     49 H19        -2.7270   -8.5740    5.2910 ha        1 64M      0.150000
@<TRIPOS>BOND
     1    1    2 ar  
     2    1    4 ar  
     3    1   10 1   
     4    2    3 ar  
     5    2   31 1   
     6    3    9 ar  
     7    4    8 ar  
     8    4   32 1   
     9    5    6 1   
    10    5    9 1   
    11    5   33 1   
    12    6    7 2   
    13    6   34 1   
    14    7    8 1   
    15    7   11 1   
    16    8    9 ar  
    17   10   18 1   
    18   11   12 1   
    19   11   35 1   
    20   11   36 1   
    21   12   13 ar  
    22   12   17 ar  
    23   13   14 ar  
    24   13   37 1   
    25   14   15 ar  
    26   15   16 ar  
    27   15   19 1   
    28   16   17 ar  
    29   16   38 1   
    30   17   39 1   
    31   18   40 1   
    32   18   41 1   
    33   18   42 1   
    34   19   20 1   
    35   19   43 1   
    36   20   21 1   
    37   20   44 1   
    38   20   45 1   
    39   21   22 ar  
    40   21   26 ar  
    41   22   23 ar  
    42   22   46 1   
    43   23   24 ar  
    44   23   47 1   
    45   24   25 ar  
    46   24   27 1   
    47   25   26 ar  
    48   25   48 1   
    49   26   49 1   
    50   27   28 1   
    51   27   29 1   
    52   27   30 1   
@<TRIPOS>SUBSTRUCTURE
     1 64M         1 TEMP              0 ****  ****    0 ROOT
