@<TRIPOS>MOLECULE
64M
   49    52     1     0     0
SMALL
bcc


@<TRIPOS>ATOM
      1 C1          6.2470   -1.8340   -0.4310 ca        1 64M     -0.019200
      2 C2          6.7550   -1.9790    0.8920 ca        1 64M      0.353200
      3 N4          6.5550   -1.0980    1.8770 nb        1 64M     -0.642000
      4 C5          5.4810   -0.7170   -0.7810 ca        1 64M     -0.091000
      5 N7          5.4380    1.0740    2.3580 na        1 64M     -0.287100
      6 C9          4.6760    1.9550    1.5950 cc        1 64M     -0.080100
      7 C11         4.5330    1.4820    0.2880 cd        1 64M     -0.142400
      8 C12         5.2440    0.2280    0.2140 ca        1 64M     -0.158100
      9 C13         5.8080   -0.0080    1.5400 ca        1 64M      0.394800
     10 O14         6.4510   -2.7560   -1.4410 os        1 64M     -0.322900
     11 C15         3.8140    2.1460   -0.8120 c3        1 64M      0.049100
     12 C18         2.3730    1.7800   -0.8790 ca        1 64M     -0.231600
     13 C19         1.3720    2.7730   -0.8480 ca        1 64M      0.430200
     14 N21         0.0570    2.5300   -0.9190 nb        1 64M     -0.716000
     15 C22        -0.3460    1.2230   -1.0520 ca        1 64M      0.616200
     16 C23         0.5990    0.1550   -1.0820 ca        1 64M     -0.283300
     17 C25         1.9550    0.4510   -0.9960 ca        1 64M     -0.056000
     18 C27         7.3010   -3.8520   -1.1240 c3        1 64M      0.112700
     19 N31        -1.7210    0.9610   -1.2440 nh        1 64M     -0.828900
     20 C33        -2.2320   -0.2760   -0.6870 c3        1 64M      0.225100
     21 C36        -3.6960   -0.2270   -0.3580 ca        1 64M     -0.076300
     22 C37        -4.6240    0.1950   -1.3170 ca        1 64M     -0.123000
     23 C39        -5.9850    0.2060   -1.0180 ca        1 64M     -0.082000
     24 C41        -6.4190   -0.2090    0.2430 ca        1 64M     -0.164300
     25 C42        -5.5000   -0.6310    1.2050 ca        1 64M     -0.082000
     26 C44        -4.1390   -0.6370    0.9040 ca        1 64M     -0.123000
     27 C46        -7.9080   -0.2180    0.5650 c3        1 64M      0.687200
     28 F47        -8.5410   -1.4000    0.2630 f         1 64M     -0.236300
     29 F48        -8.2070   -0.0090    1.8900 f         1 64M     -0.236300
     30 F49        -8.6430    0.7340   -0.1000 f         1 64M     -0.236300
     31 H1          7.3610   -2.8580    1.1730 h4        1 64M      0.026100
     32 H2          5.0890   -0.5970   -1.8000 ha        1 64M      0.156000
     33 H3          5.6790    1.1780    3.3080 hn        1 64M      0.310700
     34 H4          4.2820    2.8730    2.0390 h4        1 64M      0.171000
     35 H5          3.9150    3.2610   -0.7030 hc        1 64M      0.055700
     36 H6          4.3000    1.8620   -1.7890 hc        1 64M      0.055700
     37 H7          1.6420    3.8410   -0.7530 h4        1 64M      0.019100
     38 H8          0.2670   -0.8860   -1.1870 ha        1 64M      0.143000
     39 H9          2.7040   -0.3580   -1.0160 ha        1 64M      0.146000
     40 H10         8.3160   -3.4940   -0.8240 h1        1 64M      0.045033
     41 H11         6.8510   -4.4800   -0.3170 h1        1 64M      0.045033
     42 H12         7.3540   -4.4250   -2.0850 h1        1 64M      0.045033
     43 H13        -2.3180    1.7500   -1.0840 hn        1 64M      0.414800
     44 H14        -2.0730   -1.0820   -1.4640 h1        1 64M      0.055200
     45 H15        -1.6530   -0.5830    0.2340 h1        1 64M      0.055200
     46 H16        -4.2800    0.5150   -2.3140 ha        1 64M      0.150000
     47 H17        -6.7180    0.5420   -1.7690 ha        1 64M      0.153500
     48 H18        -5.8510   -0.9510    2.1990 ha        1 64M      0.153500
     49 H19        -3.4150   -0.9660    1.6650 ha        1 64M      0.150000
@<TRIPOS>BOND
     1    1    2 ar  
     2    1    4 ar  
     3    1   10 1   
     4    2    3 ar  
     5    2   31 1   
     6    3    9 ar  
     7    4    8 ar  
     8    4   32 1   
     9    5    6 1   
    10    5    9 1   
    11    5   33 1   
    12    6    7 2   
    13    6   34 1   
    14    7    8 1   
    15    7   11 1   
    16    8    9 ar  
    17   10   18 1   
    18   11   12 1   
    19   11   35 1   
    20   11   36 1   
    21   12   13 ar  
    22   12   17 ar  
    23   13   14 ar  
    24   13   37 1   
    25   14   15 ar  
    26   15   16 ar  
    27   15   19 1   
    28   16   17 ar  
    29   16   38 1   
    30   17   39 1   
    31   18   40 1   
    32   18   41 1   
    33   18   42 1   
    34   19   20 1   
    35   19   43 1   
    36   20   21 1   
    37   20   44 1   
    38   20   45 1   
    39   21   22 ar  
    40   21   26 ar  
    41   22   23 ar  
    42   22   46 1   
    43   23   24 ar  
    44   23   47 1   
    45   24   25 ar  
    46   24   27 1   
    47   25   26 ar  
    48   25   48 1   
    49   26   49 1   
    50   27   28 1   
    51   27   29 1   
    52   27   30 1   
@<TRIPOS>SUBSTRUCTURE
     1 64M         1 TEMP              0 ****  ****    0 ROOT
