@<TRIPOS>MOLECULE
64M
   49    41     1     0     0
SMALL
bcc


@<TRIPOS>ATOM
      1 C1          5.5020    3.3940   -2.4800 c1        1 64M     -0.031000
      2 C2          5.2440    4.7610   -2.4150 c1        1 64M     -0.073000
      3 N4          3.9650    5.2070   -2.2520 n1        1 64M     -0.130000
      4 C5          4.4750    2.5000   -2.3790 c1        1 64M     -0.061000
      5 N7          1.5610    4.4760   -2.0810 n2        1 64M     -0.198000
      6 C9          0.9690    3.2360   -2.1020 c1        1 64M     -0.020000
      7 C11         1.9600    2.2950   -2.1830 c1        1 64M     -0.124000
      8 C12         3.1710    2.9560   -2.2120 c1        1 64M     -0.124000
      9 C13         2.9200    4.3000   -2.1490 c1        1 64M     -0.020000
     10 O14         6.8150    3.0720   -2.8490 os        1 64M     -0.217000
     11 C15         1.6370    0.8730   -2.6650 c2        1 64M     -0.041000
     12 C18         0.6060    0.2320   -1.7250 c2        1 64M     -0.168000
     13 C19         0.9990   -0.2080   -0.4630 c2        1 64M     -0.024000
     14 N21         0.1300   -0.9330    0.3120 n1        1 64M     -0.191000
     15 C22        -1.1270   -1.2260   -0.1520 c1        1 64M      0.104000
     16 C23        -1.5220   -0.7910   -1.4050 c1        1 64M     -0.231000
     17 C25        -0.6490   -0.0610   -2.1890 c1        1 64M     -0.061000
     18 C27         7.6990    2.9470   -1.7580 c3        1 64M     -0.074000
     19 N31        -2.0200   -1.9990    0.6490 n2        1 64M     -0.277000
     20 C33        -2.4680   -1.4920    1.9220 c3        1 64M     -0.013000
     21 C36        -3.4600   -2.4950    2.5580 c2        1 64M     -0.066000
     22 C37        -4.6740   -2.7770    1.9210 c2        1 64M     -0.120000
     23 C39        -5.6060   -3.5860    2.5370 c1        1 64M     -0.084000
     24 C41        -5.3390   -4.1230    3.7950 c1        1 64M     -0.159000
     25 C42        -4.1360   -3.8450    4.4280 c1        1 64M     -0.083000
     26 C44        -3.1960   -3.0290    3.8080 c1        1 64M     -0.127000
     27 C46        -6.4300   -4.8750    4.5440 c3        1 64M      0.466000
     28 F47        -5.8750   -5.6810    5.4490 f         1 64M     -0.165333
     29 F48        -7.1460   -5.6030    3.6790 f         1 64M     -0.165333
     30 F49        -7.2320   -3.9990    5.1610 f         1 64M     -0.165333
     31 H1          5.9820    5.4040   -2.4870 ha        1 64M      0.166000
     32 H2          4.6540    1.5520   -2.4240 ha        1 64M      0.152000
     33 H3          1.1250    5.2770   -2.0310 DU        1 64M      0.218500
     34 H4          0.0080    3.0550   -2.0230 DU        1 64M      0.218500
     35 H5          1.2670    0.9120   -3.5800 ha        1 64M      0.096000
     36 H6          2.4540    0.3380   -2.6670 ha        1 64M      0.096000
     37 H7          1.8970   -0.0000   -0.1290 h4        1 64M      0.164000
     38 H8         -2.4220   -1.0020   -1.7370 ha        1 64M      0.142000
     39 H9         -0.9270    0.2460   -3.0740 ha        1 64M      0.139000
     40 H10         7.5730    2.0690   -1.3330 h1        1 64M      0.079667
     41 H11         8.6250    3.0280   -2.0760 h1        1 64M      0.079667
     42 H12         7.5150    3.6550   -1.1060 h1        1 64M      0.079667
     43 H13        -2.2910   -2.8250    0.3650 hn        1 64M      0.201000
     44 H14        -2.9190   -0.6220    1.7900 h1        1 64M      0.104500
     45 H15        -1.6920   -1.3720    2.5190 h1        1 64M      0.104500
     46 H16        -4.8610   -2.4010    1.0410 ha        1 64M      0.155000
     47 H17        -6.4590   -3.7840    2.0890 ha        1 64M      0.153000
     48 H18        -3.9510   -4.2200    5.3070 ha        1 64M      0.153000
     49 H19        -2.3490   -2.8340    4.2540 ha        1 64M      0.145000
@<TRIPOS>BOND
     1    1    4 1   
     2    1   10 1   
     3    2    3 1   
     4    2   31 1   
     5    4   32 1   
     6    5    6 1   
     7    5    9 1   
     8    6    7 1   
     9    7    8 1   
    10    8    9 1   
    11   10   18 1   
    12   11   12 1   
    13   11   35 1   
    14   11   36 1   
    15   12   13 1   
    16   12   17 1   
    17   13   14 1   
    18   13   37 1   
    19   15   16 1   
    20   16   38 1   
    21   17   39 1   
    22   18   40 1   
    23   18   41 1   
    24   18   42 1   
    25   19   20 1   
    26   19   43 1   
    27   20   21 1   
    28   20   44 1   
    29   20   45 1   
    30   21   22 1   
    31   21   26 1   
    32   22   23 1   
    33   22   46 1   
    34   23   47 1   
    35   24   25 1   
    36   24   27 1   
    37   25   48 1   
    38   26   49 1   
    39   27   28 1   
    40   27   29 1   
    41   27   30 1   
@<TRIPOS>SUBSTRUCTURE
     1 64M         1 TEMP              0 ****  ****    0 ROOT
