@<TRIPOS>MOLECULE
64M
   50    53     1     0     0
SMALL
bcc


@<TRIPOS>ATOM
      1 C1          0.4630   -0.3720   -0.0420 ca        1 64M      0.002800
      2 C2          1.8390   -0.0680    0.1870 ca        1 64M      0.362200
      3 N4          2.3450    0.2850    1.3710 nb        1 64M     -0.622000
      4 C5         -0.4600   -0.3120    1.0060 ca        1 64M     -0.117000
      5 N7          1.6880    0.6840    3.7410 na        1 64M     -0.270100
      6 C9          0.4840    0.6260    4.4270 cc        1 64M     -0.057100
      7 C11        -0.5540    0.2300    3.5730 cd        1 64M     -0.195400
      8 C12         0.0250    0.0460    2.2640 ca        1 64M     -0.163100
      9 C13         1.4450    0.3420    2.3960 ca        1 64M      0.391800
     10 O14        -0.0450   -0.7590   -1.2640 os        1 64M     -0.322900
     11 C15        -1.9710    0.0940    3.9330 c3        1 64M      0.034100
     12 C18        -2.3760   -1.3020    4.2590 ca        1 64M     -0.111600
     13 C19        -1.8530   -2.4020    3.5240 ca        1 64M      0.434200
     14 N21        -2.1920   -3.6740    3.7440 nb        1 64M     -0.648000
     15 C22        -3.0970   -3.9100    4.7420 ca        1 64M      0.420200
     16 C23        -3.6780   -2.8980    5.5300 ca        1 64M     -0.192300
     17 C25        -3.2980   -1.5750    5.2710 ca        1 64M     -0.093000
     18 C27         0.8330   -0.6270   -2.3800 c3        1 64M      0.108700
     19 N31        -3.4590   -5.3230    4.9870 n4        1 64M     -0.739700
     20 C33        -4.3100   -5.8850    3.8810 c3        1 64M      0.170100
     21 C36        -4.6950   -7.2950    4.1770 ca        1 64M     -0.163300
     22 C37        -5.9380   -7.5740    4.7550 ca        1 64M     -0.106500
     23 C39        -6.3120   -8.8960    4.9960 ca        1 64M     -0.073500
     24 C41        -5.4390   -9.9330    4.6610 ca        1 64M     -0.125300
     25 C42        -4.2000   -9.6610    4.0760 ca        1 64M     -0.073500
     26 C44        -3.8280   -8.3390    3.8340 ca        1 64M     -0.106500
     27 C46        -5.8390  -11.3830    4.9480 c3        1 64M      0.686200
     28 F47        -7.1910  -11.6100    4.9020 f         1 64M     -0.220300
     29 F48        -5.2970  -12.2950    4.0800 f         1 64M     -0.220300
     30 F49        -5.4550  -11.8150    6.1940 f         1 64M     -0.220300
     31 H1          2.5720   -0.1100   -0.6390 h4        1 64M      0.039100
     32 H2         -1.5220   -0.5270    0.8310 ha        1 64M      0.150000
     33 H3          2.5580    0.9800    4.1030 hn        1 64M      0.322700
     34 H4          0.4390    0.8760    5.4910 h4        1 64M      0.175000
     35 H5         -2.6070    0.4410    3.0660 hc        1 64M      0.079200
     36 H6         -2.2070    0.7640    4.8060 hc        1 64M      0.079200
     37 H7         -1.1120   -2.2290    2.7110 h4        1 64M      0.080100
     38 H8         -4.4040   -3.1150    6.3290 ha        1 64M      0.162000
     39 H9         -3.7320   -0.7580    5.8720 ha        1 64M      0.175000
     40 H10         1.2070    0.4210   -2.4700 h1        1 64M      0.052700
     41 H11         1.6830   -1.3460   -2.2930 h1        1 64M      0.052700
     42 H12         0.1800   -0.8920   -3.2510 h1        1 64M      0.052700
     43 H13        -2.6020   -5.8890    5.0650 hn        1 64M      0.458300
     44 H14        -5.2190   -5.2250    3.7790 hx        1 64M      0.119700
     45 H15        -3.7130   -5.8250    2.9230 hx        1 64M      0.119700
     46 H16        -6.6360   -6.7600    5.0060 ha        1 64M      0.150500
     47 H17        -7.2960   -9.1260    5.4410 ha        1 64M      0.177000
     48 H18        -3.5260  -10.4900    3.7990 ha        1 64M      0.177000
     49 H19        -2.8590   -8.1260    3.3550 ha        1 64M      0.150500
     50 H312       -3.9680   -5.3810    5.8760 hn        1 64M      0.458300
@<TRIPOS>BOND
     1    1    2 ar  
     2    1    4 ar  
     3    1   10 1   
     4    2    3 ar  
     5    2   31 1   
     6    3    9 ar  
     7    4    8 ar  
     8    4   32 1   
     9    5    6 1   
    10    5    9 1   
    11    5   33 1   
    12    6    7 2   
    13    6   34 1   
    14    7    8 1   
    15    7   11 1   
    16    8    9 ar  
    17   10   18 1   
    18   11   12 1   
    19   11   35 1   
    20   11   36 1   
    21   12   13 ar  
    22   12   17 ar  
    23   13   14 ar  
    24   13   37 1   
    25   14   15 ar  
    26   15   16 ar  
    27   15   19 1   
    28   16   17 ar  
    29   16   38 1   
    30   17   39 1   
    31   18   40 1   
    32   18   41 1   
    33   18   42 1   
    34   19   20 1   
    35   19   43 1   
    36   19   50 1   
    37   20   21 1   
    38   20   44 1   
    39   20   45 1   
    40   21   22 ar  
    41   21   26 ar  
    42   22   23 ar  
    43   22   46 1   
    44   23   24 ar  
    45   23   47 1   
    46   24   25 ar  
    47   24   27 1   
    48   25   26 ar  
    49   25   48 1   
    50   26   49 1   
    51   27   28 1   
    52   27   29 1   
    53   27   30 1   
@<TRIPOS>SUBSTRUCTURE
     1 64M         1 TEMP              0 ****  ****    0 ROOT
