@<TRIPOS>MOLECULE
64M
   49    52     1     0     0
SMALL
bcc


@<TRIPOS>ATOM
      1 C1         -0.2650    0.5950   -0.0840 ca        1 64M     -0.019200
      2 C2          1.1440    0.7110   -0.2530 ca        1 64M      0.353200
      3 N4          2.0370    0.5590    0.7300 nb        1 64M     -0.642000
      4 C5         -0.8090    0.3050    1.1710 ca        1 64M     -0.091000
      5 N7          2.1960    0.0670    3.1650 na        1 64M     -0.286100
      6 C9          1.2550   -0.1960    4.1580 cc        1 64M     -0.078100
      7 C11        -0.0400   -0.1620    3.6350 cd        1 64M     -0.143400
      8 C12         0.0830    0.1360    2.2280 ca        1 64M     -0.158100
      9 C13         1.5110    0.2750    1.9560 ca        1 64M      0.394800
     10 O14        -1.1800    0.7440   -1.1090 os        1 64M     -0.322900
     11 C15        -1.2930   -0.3690    4.3790 c3        1 64M      0.049100
     12 C18        -1.7040   -1.7960    4.4590 ca        1 64M     -0.231600
     13 C19        -2.0240   -2.3880    5.6980 ca        1 64M      0.430200
     14 N21        -2.4300   -3.6540    5.8550 nb        1 64M     -0.716000
     15 C22        -2.5220   -4.4400    4.7310 ca        1 64M      0.616200
     16 C23        -2.2270   -3.9200    3.4360 ca        1 64M     -0.284300
     17 C25        -1.8170   -2.5970    3.3170 ca        1 64M     -0.056000
     18 C27        -0.6460    1.1150   -2.3740 c3        1 64M      0.112700
     19 N31        -2.8370   -5.8080    4.8930 nh        1 64M     -0.828900
     20 C33        -3.6050   -6.4290    3.8320 c3        1 64M      0.225100
     21 C36        -4.4100   -7.6110    4.2880 ca        1 64M     -0.076300
     22 C37        -5.7690   -7.6910    3.9680 ca        1 64M     -0.123000
     23 C39        -6.5160   -8.8030    4.3530 ca        1 64M     -0.082000
     24 C41        -5.9020   -9.8350    5.0650 ca        1 64M     -0.164300
     25 C42        -4.5460   -9.7610    5.3930 ca        1 64M     -0.082000
     26 C44        -3.8020   -8.6500    5.0020 ca        1 64M     -0.123000
     27 C46        -6.7120  -11.0590    5.4720 c3        1 64M      0.687200
     28 F47        -6.7160  -12.0670    4.5370 f         1 64M     -0.236633
     29 F48        -6.2820  -11.6740    6.6230 f         1 64M     -0.236633
     30 F49        -8.0440  -10.8120    5.7010 f         1 64M     -0.236633
     31 H1          1.5790    0.9400   -1.2420 h4        1 64M      0.026100
     32 H2         -1.8950    0.2160    1.3100 ha        1 64M      0.155000
     33 H3          3.1750    0.0860    3.2760 hn        1 64M      0.310700
     34 H4          1.5750   -0.3910    5.1850 h4        1 64M      0.172000
     35 H5         -1.1810    0.0500    5.4180 hc        1 64M      0.055200
     36 H6         -2.1160    0.2130    3.8740 hc        1 64M      0.055200
     37 H7         -1.9590   -1.8020    6.6350 h4        1 64M      0.019100
     38 H8         -2.3030   -4.5560    2.5450 ha        1 64M      0.143000
     39 H9         -1.5720   -2.1750    2.3290 ha        1 64M      0.147000
     40 H10         0.0290    0.3170   -2.7670 h1        1 64M      0.045033
     41 H11        -0.1040    2.0900   -2.3060 h1        1 64M      0.045033
     42 H12        -1.5550    1.2140   -3.0200 h1        1 64M      0.045033
     43 H13        -3.1510   -6.0530    5.8120 hn        1 64M      0.414800
     44 H14        -2.8680   -6.7860    3.0520 h1        1 64M      0.054700
     45 H15        -4.2890   -5.6830    3.3280 h1        1 64M      0.054700
     46 H16        -6.2560   -6.8760    3.4100 ha        1 64M      0.150000
     47 H17        -7.5870   -8.8680    4.1050 ha        1 64M      0.154000
     48 H18        -4.0720  -10.5790    5.9600 ha        1 64M      0.154000
     49 H19        -2.7310   -8.5930    5.2530 ha        1 64M      0.150000
@<TRIPOS>BOND
     1    1    2 ar  
     2    1    4 ar  
     3    1   10 1   
     4    2    3 ar  
     5    2   31 1   
     6    3    9 ar  
     7    4    8 ar  
     8    4   32 1   
     9    5    6 1   
    10    5    9 1   
    11    5   33 1   
    12    6    7 2   
    13    6   34 1   
    14    7    8 1   
    15    7   11 1   
    16    8    9 ar  
    17   10   18 1   
    18   11   12 1   
    19   11   35 1   
    20   11   36 1   
    21   12   13 ar  
    22   12   17 ar  
    23   13   14 ar  
    24   13   37 1   
    25   14   15 ar  
    26   15   16 ar  
    27   15   19 1   
    28   16   17 ar  
    29   16   38 1   
    30   17   39 1   
    31   18   40 1   
    32   18   41 1   
    33   18   42 1   
    34   19   20 1   
    35   19   43 1   
    36   20   21 1   
    37   20   44 1   
    38   20   45 1   
    39   21   22 ar  
    40   21   26 ar  
    41   22   23 ar  
    42   22   46 1   
    43   23   24 ar  
    44   23   47 1   
    45   24   25 ar  
    46   24   27 1   
    47   25   26 ar  
    48   25   48 1   
    49   26   49 1   
    50   27   28 1   
    51   27   29 1   
    52   27   30 1   
@<TRIPOS>SUBSTRUCTURE
     1 64M         1 TEMP              0 ****  ****    0 ROOT
