@<TRIPOS>MOLECULE
64P
   38    39     1     0     0
SMALL
bcc


@<TRIPOS>ATOM
      1 P          -1.9730    1.3680   -0.7750 p5        1 64P      1.336900
      2 OP2        -2.6830    0.6890    0.3680 o         1 64P     -0.928833
      3 OP1        -0.4740    1.4280   -0.5240 o         1 64P     -0.928833
      4 O5'        -2.1040    0.0570   -1.9010 os        1 64P     -0.569200
      5 C5'        -0.9700   -0.5860   -2.3060 c3        1 64P      0.233400
      6 C4'        -0.6720   -1.8610   -1.4790 c3        1 64P      0.065100
      7 O4'         0.6920   -2.2850   -1.7300 os        1 64P     -0.441600
      8 C3'        -0.8210   -1.6910    0.0470 c3        1 64P      0.113100
      9 O3'        -2.0400   -2.2230    0.5140 oh        1 64P     -0.651800
     10 C2'         0.3650   -2.4500    0.6390 c3        1 64P     -0.129400
     11 C1'         1.4070   -2.4630   -0.5020 c3        1 64P      0.317500
     12 N1          2.4630   -1.4510   -0.3740 n         1 64P     -0.446800
     13 C2          3.5720   -1.7480    0.4060 c         1 64P      0.815500
     14 O2          3.9410   -2.9210    0.6870 o         1 64P     -0.725500
     15 N3          4.4000   -0.6850    0.8550 n         1 64P     -0.603500
     16 C4          3.9880    0.6460    0.8920 c         1 64P      0.709500
     17 O4          4.7770    1.4980    1.3420 o         1 64P     -0.674500
     18 C5          2.5610    0.9610    0.3820 c3        1 64P      0.135200
     19 C5M         2.5580    2.3320   -0.3000 c3        1 64P     -0.131100
     20 C6          2.1960   -0.0770   -0.7190 c3        1 64P      0.047000
     21 N5          1.6530    0.8650    1.5220 n3        1 64P     -0.910800
     22 H5'        -1.1100   -0.9350   -3.3740 h1        1 64P     -0.007800
     23 H5'A       -0.0840    0.1060   -2.2880 h1        1 64P     -0.007800
     24 H4'        -1.3190   -2.7060   -1.8360 h1        1 64P      0.035700
     25 H3'        -0.7710   -0.5800    0.2930 h1        1 64P      0.139700
     26 HO3'       -2.6540   -1.4580    0.5350 ho        1 64P      0.477000
     27 H2'         0.7410   -1.9500    1.5620 hc        1 64P      0.054200
     28 H2'A        0.0800   -3.5000    0.8920 hc        1 64P      0.054200
     29 H1'         1.9300   -3.4600   -0.5880 h2        1 64P      0.065700
     30 HN3         5.2530   -0.9480    1.2920 hn        1 64P      0.313500
     31 H5M         3.2660    2.3430   -1.1610 hc        1 64P      0.060367
     32 H5MA        1.5070    2.5230   -0.6640 hc        1 64P      0.060367
     33 H5MB        2.8660    3.1270    0.4190 hc        1 64P      0.060367
     34 H6          2.7960    0.1670   -1.6410 h1        1 64P      0.109700
     35 H6A         1.0910    0.0650   -0.9500 h1        1 64P      0.109700
     36 HN5         1.6570    1.7430    2.0090 hn        1 64P      0.385300
     37 HN5A        0.7140    0.7160    1.1640 hn        1 64P      0.385300
     38 OP3        -2.5860    2.5400   -1.4690 o         1 64P     -0.928833
@<TRIPOS>BOND
     1    1    2 1   
     2    1    3 1   
     3    1    4 1   
     4    1   38 1   
     5    4    5 1   
     6    5    6 1   
     7    5   22 1   
     8    5   23 1   
     9    6    7 1   
    10    6    8 1   
    11    6   24 1   
    12    7   11 1   
    13    8    9 1   
    14    8   10 1   
    15    8   25 1   
    16    9   26 1   
    17   10   11 1   
    18   10   27 1   
    19   10   28 1   
    20   11   12 1   
    21   11   29 1   
    22   12   13 1   
    23   12   20 1   
    24   13   14 2   
    25   13   15 1   
    26   15   16 1   
    27   15   30 1   
    28   16   17 2   
    29   16   18 1   
    30   18   19 1   
    31   18   20 1   
    32   18   21 1   
    33   19   31 1   
    34   19   32 1   
    35   19   33 1   
    36   20   34 1   
    37   20   35 1   
    38   21   36 1   
    39   21   37 1   
@<TRIPOS>SUBSTRUCTURE
     1 64P         1 TEMP              0 ****  ****    0 ROOT
