@<TRIPOS>MOLECULE
64P
   38    38     1     0     0
SMALL
bcc


@<TRIPOS>ATOM
      1 P           1.5050   -1.7900    5.1080 p4        1 64P      1.702200
      2 OP2         2.9630   -2.0700    4.8120 o         1 64P     -0.923000
      3 OP1         1.3160   -1.6230    6.5940 os        1 64P     -1.255000
      4 O5'         1.0590   -0.4620    4.3650 os        1 64P     -0.576200
      5 C5'         0.8380   -0.5120    2.9410 c3        1 64P      0.229400
      6 C4'         1.1550    0.8750    2.3220 c3        1 64P      0.070100
      7 O4'         1.5910    0.7190    0.8100 os        1 64P     -0.434600
      8 C3'         0.1100    1.5960    2.2940 c3        1 64P      0.113100
      9 O3'         0.4690    3.0030    2.4420 oh        1 64P     -0.652800
     10 C2'        -0.5810    1.3430    0.8300 c3        1 64P     -0.113400
     11 C1'         0.3980    1.2360   -0.0170 c3        1 64P      0.311500
     12 N1          0.0560    0.2810   -1.0710 n         1 64P     -0.441800
     13 C2          0.5650   -1.0480   -1.0190 c         1 64P      0.802500
     14 O2          1.6070   -1.2810   -0.4260 o         1 64P     -0.740500
     15 N3         -0.0880   -2.0780   -1.7210 n         1 64P     -0.615500
     16 C4         -0.8310   -1.7770   -2.9050 c         1 64P      0.699500
     17 O4         -1.3560   -2.6780   -3.5400 o         1 64P     -0.655500
     18 C5         -1.0640   -0.3150   -3.3120 c3        1 64P      0.156200
     19 C5M        -0.2890    0.0020   -4.6680 c3        1 64P     -0.107100
     20 C6         -0.7170    0.7130   -2.2130 c3        1 64P      0.010000
     21 N5         -2.4260   -0.1270   -3.7360 n3        1 64P     -0.896800
     22 H5'        -0.1170   -0.7480    2.7590 h1        1 64P      0.000700
     23 H5'A        1.4270   -1.1930    2.5400 h1        1 64P      0.000700
     24 H4'         1.8540    1.3190    2.8290 h1        1 64P      0.015700
     25 H3'        -0.5080    1.3260    3.0120 h1        1 64P      0.138700
     26 HO3'       -0.1260    3.4110    2.9990 ho        1 64P      0.470000
     27 H2'        -1.1010    0.5270    0.8440 hc        1 64P      0.046200
     28 H2'A       -1.1490    2.1010    0.5920 hc        1 64P      0.046200
     29 H1'         0.6080    2.1100   -0.4050 h2        1 64P      0.069700
     30 HN3        -0.0730   -2.9330   -1.3960 hn        1 64P      0.311500
     31 H5M        -0.4350    0.9560   -4.9200 hc        1 64P      0.057033
     32 H5MA       -0.6310   -0.5850   -5.3880 hc        1 64P      0.057033
     33 H5MB        0.6800   -0.1620   -4.5420 hc        1 64P      0.057033
     34 H6         -0.2170    1.4600   -2.6480 h1        1 64P      0.123200
     35 H6A        -1.5640    1.0790   -1.8740 h1        1 64P      0.123200
     36 HN5        -2.9910   -0.5210   -3.1330 hn        1 64P      0.385800
     37 HN5A       -2.6100    0.7750   -3.7880 hn        1 64P      0.385800
     38 OP3         0.6750   -2.9270    4.6290 o         1 64P     -0.971800
@<TRIPOS>BOND
     1    1    2 1   
     2    1    4 1   
     3    1   38 2   
     4    4    5 1   
     5    5    6 1   
     6    5   22 1   
     7    5   23 1   
     8    6    7 1   
     9    6    8 1   
    10    6   24 1   
    11    7   11 1   
    12    8    9 1   
    13    8   10 1   
    14    8   25 1   
    15    9   26 1   
    16   10   11 1   
    17   10   27 1   
    18   10   28 1   
    19   11   12 1   
    20   11   29 1   
    21   12   13 1   
    22   12   20 1   
    23   13   14 2   
    24   13   15 1   
    25   15   16 1   
    26   15   30 1   
    27   16   17 2   
    28   16   18 1   
    29   18   19 1   
    30   18   20 1   
    31   18   21 1   
    32   19   31 1   
    33   19   32 1   
    34   19   33 1   
    35   20   34 1   
    36   20   35 1   
    37   21   36 1   
    38   21   37 1   
@<TRIPOS>SUBSTRUCTURE
     1 64P         1 TEMP              0 ****  ****    0 ROOT
