@<TRIPOS>MOLECULE
64P
   39    39     1     0     0
SMALL
bcc


@<TRIPOS>ATOM
      1 P          -0.8420   -0.0270   -1.1940 p5        1 64P      1.433800
      2 OP2         0.2350   -0.5480   -0.3390 o         1 64P     -0.841000
      3 OP1        -2.0190    0.7720   -0.7740 o         1 64P     -0.841000
      4 O5'        -0.1780    0.9600   -2.3640 os        1 64P     -0.581200
      5 C5'         0.7310    1.9140   -1.9320 c3        1 64P      0.182400
      6 C4'         0.0630    3.2720   -1.6390 c3        1 64P      0.070100
      7 O4'         1.0100    4.3280   -1.9590 os        1 64P     -0.426400
      8 C3'        -1.2340    3.5350   -2.4370 c3        1 64P      0.146100
      9 O3'        -2.3500    3.6590   -1.5830 oh        1 64P     -0.638800
     10 C2'        -1.0110    4.8880   -3.1360 c3        1 64P     -0.113700
     11 C1'         0.4270    5.2020   -2.8690 c2        1 64P      0.105900
     12 N1          1.2500    5.9190   -3.6690 n         1 64P      0.013000
     13 C2          2.7030    5.8500   -3.4270 c         1 64P      0.774100
     14 O2          3.3660    4.9470   -3.9590 o         1 64P     -0.523100
     15 N3          3.3630    6.8420   -2.6960 n         1 64P     -0.598500
     16 C4          2.9040    7.8110   -1.7960 c         1 64P      0.693100
     17 O4          3.6400    8.8000   -1.6280 o         1 64P     -0.585100
     18 C5          1.6010    7.6430   -0.9950 c3        1 64P      0.106500
     19 C5M         0.5870    8.6340   -1.5690 c3        1 64P     -0.141100
     20 C6          0.8250    6.8890   -4.4990 c2        1 64P     -0.235600
     21 N5          1.9040    7.8040    0.4150 n3        1 64P     -0.900800
     22 H5'        -2.2500   -0.8740   -2.6040 ho        1 64P      0.430000
     23 H5'A        1.2520    1.5530   -1.0000 h1        1 64P      0.045200
     24 H4'         1.4920    2.0590   -2.7490 h1        1 64P      0.045200
     25 H3'        -0.1320    3.3890   -0.5380 h1        1 64P      0.080700
     26 HO3'       -1.4070    2.7190   -3.1900 h1        1 64P      0.083700
     27 H2'        -2.5110    2.7770   -1.1960 ho        1 64P      0.475000
     28 H2'A       -1.6690    5.6780   -2.6920 hc        1 64P      0.069200
     29 H1'        -1.2270    4.8170   -4.2310 hc        1 64P      0.069200
     30 HN3         4.3510    6.8700   -2.8730 hn        1 64P      0.340500
     31 H5M         0.4100    8.4160   -2.6510 hc        1 64P      0.052367
     32 H5MA        0.9600    9.6820   -1.4710 hc        1 64P      0.052367
     33 H5MB       -0.3840    8.5420   -1.0260 hc        1 64P      0.052367
     34 H6          1.5500    7.5450   -4.9810 h4        1 64P      0.014800
     35 H6A        -0.2450    6.9970   -4.6830 h4        1 64P      0.014800
     36 HN5         1.1980    6.5900   -1.1070 h1        1 64P      0.118700
     37 HN5A        2.2690    8.7180    0.6010 hn        1 64P      0.359300
     38 OP3        -1.4390   -1.1560   -2.1960 oh        1 64P     -0.762400
     39 H53         1.0760    7.6530    0.9560 hn        1 64P      0.359300
@<TRIPOS>BOND
     1    1    2 1   
     2    1    3 1   
     3    1    4 1   
     4    1   38 1   
     5    4    5 1   
     6    5    6 1   
     7    5   23 1   
     8    5   24 1   
     9    6    7 1   
    10    6    8 1   
    11    6   25 1   
    12    7   11 1   
    13    8    9 1   
    14    8   10 1   
    15    8   26 1   
    16    9   27 1   
    17   10   11 1   
    18   10   28 1   
    19   10   29 1   
    20   11   12 2   
    21   12   13 1   
    22   12   20 2   
    23   13   14 2   
    24   13   15 1   
    25   15   16 1   
    26   15   30 1   
    27   16   17 2   
    28   16   18 1   
    29   18   19 1   
    30   18   21 1   
    31   18   36 1   
    32   19   31 1   
    33   19   32 1   
    34   19   33 1   
    35   20   34 1   
    36   20   35 1   
    37   21   37 1   
    38   21   39 1   
    39   22   38 1   
@<TRIPOS>SUBSTRUCTURE
     1 64P         1 TEMP              0 ****  ****    0 ROOT
