@<TRIPOS>MOLECULE
64P
   39    39     1     0     0
SMALL
bcc


@<TRIPOS>ATOM
      1 P          -1.9460   -0.0970   -0.8090 p5        1 64P      1.426800
      2 OP2        -0.6380   -0.6680   -0.4280 o         1 64P     -0.823500
      3 OP1        -3.2910   -0.5720   -0.4640 o         1 64P     -0.823500
      4 O5'        -1.8880    1.5300   -0.4970 os        1 64P     -0.561200
      5 C5'        -0.6750    2.1740   -0.7040 c3        1 64P      0.186400
      6 C4'        -0.8000    3.1130   -1.9140 c3        1 64P      0.071100
      7 O4'        -0.0190    4.3090   -1.6230 os        1 64P     -0.392400
      8 C3'        -0.2680    2.5220   -3.2390 c3        1 64P      0.136100
      9 O3'        -1.3060    2.3430   -4.1790 oh        1 64P     -0.620800
     10 C2'         0.7020    3.5740   -3.7960 c3        1 64P     -0.119700
     11 C1'         0.7750    4.6070   -2.7160 c2        1 64P      0.212900
     12 N1          1.3450    5.8270   -2.7370 n         1 64P     -0.003000
     13 C2          2.2400    6.1580   -3.8430 c         1 64P      0.813500
     14 O2          2.4820    5.3400   -4.7520 o         1 64P     -0.614500
     15 N3          2.7910    7.4370   -3.8850 ns        1 64P     -0.577500
     16 C4          2.7060    8.3660   -2.8360 c         1 64P      0.726500
     17 O4          3.1170    9.5170   -3.0330 o         1 64P     -0.616500
     18 C5          2.1350    7.8490   -1.4890 c3        1 64P      0.162900
     19 C5M         1.3720    9.0160   -0.8440 c3        1 64P     -0.102100
     20 C6          1.1630    6.7500   -1.7460 c2        1 64P     -0.329500
     21 N5          3.3010    7.4010   -0.7210 n8        1 64P     -0.930800
     22 H5'        -0.9630   -0.4100   -2.7340 ho        1 64P      0.427000
     23 H5'A        0.1510    1.4250   -0.8570 h1        1 64P      0.048200
     24 H4'        -0.4470    2.8020    0.2040 h1        1 64P      0.048200
     25 H3'        -1.8640    3.4550   -2.0300 h1        1 64P      0.095700
     26 HO3'        0.2570    1.5440   -3.0580 h1        1 64P      0.066700
     27 H2'        -1.8640    1.6200   -3.8430 ho        1 64P      0.455000
     28 H2'A        0.3220    4.0090   -4.7560 hc        1 64P      0.090200
     29 H1'         1.7160    3.1400   -3.9900 hc        1 64P      0.090200
     30 HN3         3.2840    7.6790   -4.7190 hn        1 64P      0.341500
     31 H5M         0.5070    9.2970   -1.4920 hc        1 64P      0.048033
     32 H5MA        2.0410    9.9030   -0.7320 hc        1 64P      0.048033
     33 H5MB        0.9850    8.7110    0.1570 hc        1 64P      0.048033
     34 H6         -1.4710    9.7590   -2.6770 ha        1 64P      0.000500
     35 H6A        -1.3480   10.3960   -2.4810 ha        1 64P      0.000500
     36 HN5         0.3370    6.5830   -1.0490 h4        1 64P      0.052800
     37 HN5A        3.1100    6.5250   -0.2770 hn        1 64P      0.361300
     38 OP3        -1.7480    0.0380   -2.4410 oh        1 64P     -0.804400
     39 H53         3.5580    8.0800   -0.0340 hn        1 64P      0.361300
@<TRIPOS>BOND
     1    1    2 1   
     2    1    3 1   
     3    1    4 1   
     4    1   38 1   
     5    4    5 1   
     6    5    6 1   
     7    5   23 1   
     8    5   24 1   
     9    6    7 1   
    10    6    8 1   
    11    6   25 1   
    12    7   11 1   
    13    8    9 1   
    14    8   10 1   
    15    8   26 1   
    16    9   27 1   
    17   10   11 1   
    18   10   28 1   
    19   10   29 1   
    20   11   12 2   
    21   12   13 1   
    22   12   20 2   
    23   13   14 2   
    24   13   15 1   
    25   15   16 1   
    26   15   30 1   
    27   16   17 2   
    28   16   18 1   
    29   18   19 1   
    30   18   20 1   
    31   18   21 1   
    32   19   31 1   
    33   19   32 1   
    34   19   33 1   
    35   20   36 1   
    36   21   37 1   
    37   21   39 1   
    38   22   38 1   
    39   34   35 1   
@<TRIPOS>SUBSTRUCTURE
     1 64P         1 TEMP              0 ****  ****    0 ROOT
