@<TRIPOS>MOLECULE
64T
   37    38     1     0     0
SMALL
bcc


@<TRIPOS>ATOM
      1 P          -3.8370   -1.7750    2.3380 p5        1 64T      1.345900
      2 OP1        -4.4840   -2.4990    3.4740 o         1 64T     -0.929833
      3 OP2        -2.9190   -2.6120    1.4580 o         1 64T     -0.929833
      4 O5'        -2.6350   -0.7830    3.1070 os        1 64T     -0.556200
      5 C5'        -1.9650   -0.0070    2.2010 c3        1 64T      0.213400
      6 C4'        -0.5710    0.3860    2.7290 c3        1 64T      0.117100
      7 O4'         0.2990   -0.7450    2.9300 os        1 64T     -0.393600
      8 C3'         0.1340    1.3150    1.7200 c3        1 64T      0.099100
      9 O3'         0.6860    2.4150    2.4380 oh        1 64T     -0.605800
     10 C2'         1.2230    0.4630    1.0670 c3        1 64T     -0.142400
     11 C1'         1.2640   -0.8500    1.8870 c3        1 64T      0.335500
     12 N1          1.0700   -2.0630    1.0960 n         1 64T     -0.453800
     13 C2          2.0540   -2.3950    0.1830 c         1 64T      0.807500
     14 O2          3.0950   -1.7030   -0.0010 o         1 64T     -0.744500
     15 N3          1.9140   -3.5770   -0.5830 n         1 64T     -0.604500
     16 C4          0.7420   -4.3320   -0.6320 c         1 64T      0.709500
     17 O4          0.7470   -5.3630   -1.3300 o         1 64T     -0.661500
     18 C5         -0.4640   -3.8310    0.1870 c3        1 64T      0.150800
     19 C5M        -1.2740   -5.0130    0.6970 c3        1 64T     -0.136100
     20 O5         -1.2160   -3.0500   -0.7200 oh        1 64T     -0.654800
     21 C6         -0.0040   -2.9820    1.3940 c3        1 64T      0.023000
     22 OP3        -4.6280   -0.7510    1.5810 o         1 64T     -0.929833
     23 H5'        -1.8570   -0.5400    1.2120 h1        1 64T      0.006200
     24 H5''       -2.5090    0.9700    2.0270 h1        1 64T      0.006200
     25 H4'        -0.6550    0.8490    3.7470 h1        1 64T      0.078700
     26 H3'        -0.5920    1.7040    0.9570 h1        1 64T      0.055700
     27 HO3'        1.1190    2.9730    1.7830 ho        1 64T      0.374000
     28 H2'         0.9850    0.2720   -0.0070 hc        1 64T      0.057700
     29 H2''        2.2220    0.9600    1.1200 hc        1 64T      0.057700
     30 H1'         2.2670   -0.9520    2.4060 h2        1 64T      0.045700
     31 H3          2.6720   -3.7990   -1.1860 hn        1 64T      0.313500
     32 H71        -2.1670   -4.5950    1.2480 hc        1 64T      0.064700
     33 H72        -1.6190   -5.6300   -0.1650 hc        1 64T      0.064700
     34 H73        -0.6620   -5.6460    1.3790 hc        1 64T      0.064700
     35 HO5        -2.0110   -2.7390   -0.2200 ho        1 64T      0.514000
     36 H61        -0.9320   -2.4150    1.7690 h1        1 64T      0.118700
     37 H62         0.3380   -3.6740    2.2150 h1        1 64T      0.118700
@<TRIPOS>BOND
     1    1    2 1   
     2    1    3 1   
     3    1    4 1   
     4    1   22 1   
     5    4    5 1   
     6    5    6 1   
     7    5   23 1   
     8    5   24 1   
     9    6    7 1   
    10    6    8 1   
    11    6   25 1   
    12    7   11 1   
    13    8    9 1   
    14    8   10 1   
    15    8   26 1   
    16    9   27 1   
    17   10   11 1   
    18   10   28 1   
    19   10   29 1   
    20   11   12 1   
    21   11   30 1   
    22   12   13 1   
    23   12   21 1   
    24   13   14 2   
    25   13   15 1   
    26   15   16 1   
    27   15   31 1   
    28   16   17 2   
    29   16   18 1   
    30   18   19 1   
    31   18   20 1   
    32   18   21 1   
    33   19   32 1   
    34   19   33 1   
    35   19   34 1   
    36   20   35 1   
    37   21   36 1   
    38   21   37 1   
@<TRIPOS>SUBSTRUCTURE
     1 64T         1 TEMP              0 ****  ****    0 ROOT
