@<TRIPOS>MOLECULE
64T
   37    37     1     0     0
SMALL
bcc


@<TRIPOS>ATOM
      1 P           3.3390   -1.1980    4.1390 p4        1 64T      1.709200
      2 OP1         4.2940   -1.9990    3.2860 o         1 64T     -0.925500
      3 OP2         4.0590   -0.7030    5.3710 os        1 64T     -1.239000
      4 O5'         2.8020    0.0360    3.3120 os        1 64T     -0.572200
      5 C5'         1.9710   -0.2110    2.2050 c3        1 64T      0.232400
      6 C4'         2.2240    0.8520    1.1290 c3        1 64T      0.066100
      7 O4'         1.8060    0.3030   -0.2870 os        1 64T     -0.422600
      8 C3'         1.4760    1.8710    1.3280 c3        1 64T      0.115100
      9 O3'         2.1480    3.0870    0.8600 oh        1 64T     -0.651800
     10 C2'         0.1220    1.6170    0.4660 c3        1 64T     -0.132400
     11 C1'         0.5010    1.0370   -0.6440 c3        1 64T      0.316500
     12 N1         -0.4950    0.0980   -1.0810 n         1 64T     -0.446800
     13 C2         -0.3110   -1.2940   -0.8470 c         1 64T      0.806500
     14 O2          0.8020   -1.7310   -0.6330 o         1 64T     -0.725500
     15 N3         -1.4340   -2.1580   -0.7930 n         1 64T     -0.619500
     16 C4         -2.6260   -1.8080   -1.4630 c         1 64T      0.702500
     17 O4         -3.5810   -2.5590   -1.4350 o         1 64T     -0.644500
     18 C5         -2.7280   -0.4600   -2.1960 c3        1 64T      0.131800
     19 C5M        -2.7750   -0.6970   -3.7500 c3        1 64T     -0.166100
     20 O5         -3.9920    0.1170   -1.9820 oh        1 64T     -0.632800
     21 C6         -1.6270    0.5540   -1.8170 c3        1 64T      0.015000
     22 OP3         2.1780   -2.0720    4.5510 o         1 64T     -0.974300
     23 H5'         1.0330   -0.1740    2.4860 h1        1 64T      0.000200
     24 H5''        2.1680   -1.0990    1.8400 h1        1 64T      0.000200
     25 H4'         3.1650    1.1160    1.1270 h1        1 64T      0.017700
     26 H3'         1.2600    1.9500    2.2790 h1        1 64T      0.139700
     27 HO3'        2.0580    3.7290    1.4690 ho        1 64T      0.475000
     28 H2'        -0.4880    1.0300    0.9610 hc        1 64T      0.047200
     29 H2''       -0.3160    2.4690    0.2680 hc        1 64T      0.047200
     30 H1'         0.6670    1.7060   -1.3370 h2        1 64T      0.062700
     31 H3         -1.3720   -2.9590   -0.3610 hn        1 64T      0.312500
     32 H71        -1.9310   -1.1000   -4.0450 hc        1 64T      0.075367
     33 H72        -3.5170   -1.2990   -3.9670 hc        1 64T      0.075367
     34 H73        -2.9050    0.1600   -4.2080 hc        1 64T      0.075367
     35 HO5        -4.6230   -0.4290   -2.2890 ho        1 64T      0.508000
     36 H61        -1.2970    0.9510   -2.6480 h1        1 64T      0.111700
     37 H62        -2.0510    1.2660   -1.2940 h1        1 64T      0.111700
@<TRIPOS>BOND
     1    1    2 1   
     2    1    4 1   
     3    1   22 2   
     4    4    5 1   
     5    5    6 1   
     6    5   23 1   
     7    5   24 1   
     8    6    7 1   
     9    6    8 1   
    10    6   25 1   
    11    7   11 1   
    12    8    9 1   
    13    8   10 1   
    14    8   26 1   
    15    9   27 1   
    16   10   11 1   
    17   10   28 1   
    18   10   29 1   
    19   11   12 1   
    20   11   30 1   
    21   12   13 1   
    22   12   21 1   
    23   13   14 2   
    24   13   15 1   
    25   15   16 1   
    26   15   31 1   
    27   16   17 2   
    28   16   18 1   
    29   18   19 1   
    30   18   20 1   
    31   18   21 1   
    32   19   32 1   
    33   19   33 1   
    34   19   34 1   
    35   20   35 1   
    36   21   36 1   
    37   21   37 1   
@<TRIPOS>SUBSTRUCTURE
     1 64T         1 TEMP              0 ****  ****    0 ROOT
