@<TRIPOS>MOLECULE
64U
   57    59     1     0     0
SMALL
bcc


@<TRIPOS>ATOM
      1 C11        -5.2920    0.4870    0.3110 c3        1 64U     -0.065700
      2 C12        -5.5820   -0.7920   -0.4640 c3        1 64U     -0.073900
      3 C13        -7.0290   -0.8490   -0.9090 c3        1 64U     -0.075900
      4 C16        -7.9730   -0.7180    0.2690 c3        1 64U     -0.077400
      5 C17        -7.6860    0.5410    1.0600 c3        1 64U     -0.075900
      6 C18        -6.2380    0.6000    1.5010 c3        1 64U     -0.073900
      7 N          -2.9160    2.3050   -0.6640 n3        1 64U     -0.888800
      8 C15        -2.8690    0.9000   -0.3270 c3        1 64U      0.118500
      9 C1         -3.8510    0.5200    0.7940 c3        1 64U     -0.071400
     10 C14        -1.4630    0.4410    0.1420 c         1 64U      0.616100
     11 O32        -0.7380    1.2190    0.8020 o         1 64U     -0.640100
     12 N1         -0.9970   -0.8060   -0.2210 n         1 64U     -0.455800
     13 C5          0.2310   -1.3650    0.3350 c3        1 64U      0.031700
     14 C7          1.4930   -0.9560   -0.4610 c         1 64U      0.649100
     15 O22         2.2550   -1.8140   -0.9520 o         1 64U     -0.619100
     16 C2          0.0610   -2.9000    0.3450 c3        1 64U     -0.088400
     17 C3         -1.1980   -3.2010   -0.4600 c3        1 64U     -0.090400
     18 C4         -1.8340   -1.8430   -0.7980 c3        1 64U      0.084000
     19 N23         1.7320    0.3930   -0.6040 n         1 64U     -0.551900
     20 C24         2.9370    0.8900   -1.2120 c3        1 64U      0.131300
     21 C25         4.0740    1.1310   -0.2580 ca        1 64U     -0.112300
     22 C26         4.4550    2.4320    0.0820 ca        1 64U     -0.119000
     23 C27         5.5300    2.6420    0.9460 ca        1 64U     -0.126000
     24 C28         6.2280    1.5610    1.4790 ca        1 64U     -0.121000
     25 C29         5.8420    0.2600    1.1380 ca        1 64U      0.014400
     26 C30         4.7680    0.0380    0.2720 ca        1 64U     -0.108000
     27 CL21        6.6890   -1.0650    1.7860 cl        1 64U     -0.096400
     28 H11        -5.4740    1.3660   -0.3700 hc        1 64U      0.073700
     29 H12        -4.9150   -0.8500   -1.3630 hc        1 64U      0.037450
     30 H12A       -5.3540   -1.6810    0.1820 hc        1 64U      0.037450
     31 H13        -7.2270   -0.0210   -1.6400 hc        1 64U      0.041450
     32 H13A       -7.2200   -1.8190   -1.4380 hc        1 64U      0.041450
     33 H16        -9.0320   -0.6980   -0.0980 hc        1 64U      0.039700
     34 H16A       -7.8640   -1.6130    0.9360 hc        1 64U      0.039700
     35 H17        -7.9210    1.4400    0.4310 hc        1 64U      0.041450
     36 H17A       -8.3510    0.5780    1.9620 hc        1 64U      0.041450
     37 H18        -6.0290   -0.2320    2.2230 hc        1 64U      0.037450
     38 H18A       -6.0500    1.5680    2.0350 hc        1 64U      0.037450
     39 HNA        -2.2250    2.5200   -1.3560 hn        1 64U      0.361800
     40 H15        -3.1460    0.3370   -1.2680 h1        1 64U      0.077700
     41 H1         -3.7540    1.2520    1.6400 hc        1 64U      0.052200
     42 H1A        -3.5690   -0.4880    1.1980 hc        1 64U      0.052200
     43 H5          0.3770   -0.9770    1.3870 h1        1 64U      0.085700
     44 H2          0.9550   -3.4030   -0.1010 hc        1 64U      0.075700
     45 H2A        -0.0470   -3.2520    1.4000 hc        1 64U      0.075700
     46 H3         -0.9480   -3.7520   -1.3990 hc        1 64U      0.057700
     47 H3A        -1.9110   -3.8290    0.1280 hc        1 64U      0.057700
     48 H4         -2.8830   -1.7830   -0.3920 h1        1 64U      0.050700
     49 H4A        -1.8830   -1.6950   -1.9120 h1        1 64U      0.050700
     50 HN23        1.2110    1.0310   -0.0420 hn        1 64U      0.336500
     51 H24         3.2770    0.1460   -1.9910 h1        1 64U      0.068700
     52 H24A        2.6780    1.8570   -1.7330 h1        1 64U      0.068700
     53 H26         3.9080    3.2920   -0.3320 ha        1 64U      0.134000
     54 H27         5.8280    3.6670    1.2100 ha        1 64U      0.137000
     55 H28         7.0750    1.7290    2.1600 ha        1 64U      0.146000
     56 H30         4.4590   -0.9860   -0.0010 ha        1 64U      0.169000
     57 HN         -2.7500    2.8710    0.1470 hn        1 64U      0.361800
@<TRIPOS>BOND
     1    1    2 1   
     2    1    6 1   
     3    1    9 1   
     4    1   28 1   
     5    2    3 1   
     6    2   29 1   
     7    2   30 1   
     8    3    4 1   
     9    3   31 1   
    10    3   32 1   
    11    4    5 1   
    12    4   33 1   
    13    4   34 1   
    14    5    6 1   
    15    5   35 1   
    16    5   36 1   
    17    6   37 1   
    18    6   38 1   
    19    7    8 1   
    20    7   39 1   
    21    7   57 1   
    22    8    9 1   
    23    8   10 1   
    24    8   40 1   
    25    9   41 1   
    26    9   42 1   
    27   10   11 2   
    28   10   12 1   
    29   12   13 1   
    30   12   18 1   
    31   13   14 1   
    32   13   16 1   
    33   13   43 1   
    34   14   15 2   
    35   14   19 1   
    36   16   17 1   
    37   16   44 1   
    38   16   45 1   
    39   17   18 1   
    40   17   46 1   
    41   17   47 1   
    42   18   48 1   
    43   18   49 1   
    44   19   20 1   
    45   19   50 1   
    46   20   21 1   
    47   20   51 1   
    48   20   52 1   
    49   21   22 ar  
    50   21   26 ar  
    51   22   23 ar  
    52   22   53 1   
    53   23   24 ar  
    54   23   54 1   
    55   24   25 ar  
    56   24   55 1   
    57   25   26 ar  
    58   25   27 1   
    59   26   56 1   
@<TRIPOS>SUBSTRUCTURE
     1 64U         1 TEMP              0 ****  ****    0 ROOT
