@<TRIPOS>MOLECULE
64U
   57    57     1     0     0
SMALL
bcc


@<TRIPOS>ATOM
      1 C11        -0.8850   -2.5580   -2.4050 c3        1 64U     -0.097000
      2 C12        -2.2460   -3.0410   -2.8630 c3        1 64U     -0.154000
      3 C13        -2.8680   -2.1250   -3.9030 c3        1 64U     -0.154500
      4 C16        -1.9320   -1.8470   -5.0640 c3        1 64U     -0.155000
      5 C17        -0.5690   -1.3640   -4.6080 c3        1 64U     -0.154500
      6 C18         0.0520   -2.2790   -3.5680 c3        1 64U     -0.154000
      7 N           0.3340   -0.3700    0.1570 n3        1 64U     -0.348000
      8 C15        -0.4730   -1.4590   -0.1670 c3        1 64U     -0.050000
      9 C1         -1.0640   -1.2590   -1.5840 c3        1 64U     -0.180000
     10 C14        -1.6030   -1.5710    0.8430 c2        1 64U      0.326000
     11 O32        -2.5450   -2.3140    0.6200 o         1 64U     -0.368000
     12 N1         -1.6350   -0.6750    2.0190 n         1 64U     -0.317000
     13 C5         -0.6940    0.1790    2.3850 c3        1 64U      0.027000
     14 C7          0.7170   -0.2340    1.9820 c2        1 64U      0.275000
     15 O22         1.0560   -1.3970    2.0650 o         1 64U     -0.350000
     16 C2         -0.9340    0.2650    4.0210 c3        1 64U     -0.162000
     17 C3         -2.2720   -0.4020    4.2890 c3        1 64U     -0.171000
     18 C4         -2.8360   -0.5550    3.1040 c3        1 64U     -0.022000
     19 N23         1.6840    0.7780    1.5860 n         1 64U     -0.371000
     20 C24         2.1600    1.7460    2.5570 c3        1 64U      0.009000
     21 C25         2.9620    2.8610    1.8270 c2        1 64U     -0.114000
     22 C26         4.3350    2.7390    1.6700 c2        1 64U     -0.117000
     23 C27         5.0580    3.7570    1.0590 c1        1 64U     -0.122000
     24 C28         4.4090    4.8930    0.6070 c1        1 64U     -0.115000
     25 C29         3.0350    5.0170    0.7640 c1        1 64U     -0.064000
     26 C30         2.3120    3.9970    1.3750 c1        1 64U     -0.110000
     27 CL21        2.2500    6.5320    0.3820 cl        1 64U     -0.015000
     28 H11        -0.4840   -3.2390   -1.8340 hc        1 64U      0.104000
     29 H12        -2.8400   -3.0880   -2.0900 hc        1 64U      0.085000
     30 H12A       -2.1520   -3.9380   -3.2460 hc        1 64U      0.085000
     31 H13        -3.6830   -2.5450   -4.2470 hc        1 64U      0.074250
     32 H13A       -3.1040   -1.2750   -3.4760 hc        1 64U      0.074250
     33 H16        -1.8180   -2.6710   -5.5850 hc        1 64U      0.076500
     34 H16A       -2.3340   -1.1630   -5.6380 hc        1 64U      0.076500
     35 H17         0.0260   -1.3160   -5.3830 hc        1 64U      0.074250
     36 H17A       -0.6620   -0.4700   -4.2260 hc        1 64U      0.074250
     37 H18         0.8640   -1.8610   -3.2250 hc        1 64U      0.085000
     38 H18A        0.2880   -3.1260   -3.9940 hc        1 64U      0.085000
     39 HN          1.1640   -0.4860   -0.2110 hn        1 64U      0.153500
     40 HNA        -0.0400    0.3960   -0.1730 hn        1 64U      0.153500
     41 H15         0.0640   -2.2800   -0.1490 h1        1 64U      0.120000
     42 H1         -2.0150   -1.0480   -1.5130 hc        1 64U      0.092000
     43 H1A        -0.5980   -0.5230   -2.0320 hc        1 64U      0.092000
     44 H5         -0.7860    1.0480    1.9450 h1        1 64U      0.123000
     45 H2         -0.2200   -0.2120    4.4920 hc        1 64U      0.098500
     46 H2A        -0.9610    1.1980    4.3080 hc        1 64U      0.098500
     47 H3         -2.1350   -1.2760    4.7150 hc        1 64U      0.095000
     48 H3A        -2.8310    0.1720    4.8610 hc        1 64U      0.095000
     49 H4         -3.3790   -1.3730    3.0950 h1        1 64U      0.100500
     50 H4A        -3.3970    0.2200    2.8980 h1        1 64U      0.100500
     51 HN23        1.9910    0.8030    0.7330 hn        1 64U      0.225000
     52 H24         2.7410    1.2980    3.2070 h1        1 64U      0.100000
     53 H24A        1.3990    2.1430    3.0200 h1        1 64U      0.100000
     54 H26         4.7950    1.9360    1.9890 ha        1 64U      0.137000
     55 H27         6.0300    3.6700    0.9490 ha        1 64U      0.141000
     56 H28         4.9200    5.6120    0.1760 ha        1 64U      0.150000
     57 H30         1.3450    4.0830    1.4850 ha        1 64U      0.160000
@<TRIPOS>BOND
     1    1    2 1   
     2    1    6 1   
     3    1    9 1   
     4    1   28 1   
     5    2    3 1   
     6    2   29 1   
     7    2   30 1   
     8    3    4 1   
     9    3   31 1   
    10    3   32 1   
    11    4    5 1   
    12    4   33 1   
    13    4   34 1   
    14    5    6 1   
    15    5   35 1   
    16    5   36 1   
    17    6   37 1   
    18    6   38 1   
    19    7    8 1   
    20    7   39 1   
    21    7   40 1   
    22    8    9 1   
    23    8   10 1   
    24    8   41 1   
    25    9   42 1   
    26    9   43 1   
    27   10   11 1   
    28   10   12 1   
    29   12   13 1   
    30   12   18 1   
    31   13   14 1   
    32   13   16 1   
    33   13   44 1   
    34   14   15 1   
    35   14   19 1   
    36   16   17 1   
    37   16   45 1   
    38   16   46 1   
    39   17   18 1   
    40   17   47 1   
    41   17   48 1   
    42   18   49 1   
    43   18   50 1   
    44   19   20 1   
    45   19   51 1   
    46   20   21 1   
    47   20   52 1   
    48   20   53 1   
    49   21   22 1   
    50   21   26 1   
    51   22   23 1   
    52   22   54 1   
    53   23   55 1   
    54   24   25 1   
    55   24   56 1   
    56   25   27 1   
    57   26   57 1   
@<TRIPOS>SUBSTRUCTURE
     1 64U         1 TEMP              0 ****  ****    0 ROOT
