@<TRIPOS>MOLECULE
651
   42    45     1     0     0
SMALL
bcc


@<TRIPOS>ATOM
      1 OAA        -2.5460    2.0480   -0.2810 oh        1 651     -0.595800
      2 CAB         6.2890   -0.2820    0.0820 ca        1 651     -0.126000
      3 CAC         5.7230    0.9140   -0.3600 ca        1 651     -0.130000
      4 CAD         5.4640   -1.3330    0.4810 ca        1 651     -0.130000
      5 CAE         4.3380    1.0600   -0.4010 ca        1 651     -0.118000
      6 CAF         4.0790   -1.1930    0.4390 ca        1 651     -0.118000
      7 CAG         1.2340   -0.8980   -0.4760 ca        1 651     -0.121000
      8 CAH         1.4440    1.3620    0.3400 ca        1 651     -0.121000
      9 CAI        -0.1500   -0.7520   -0.5230 ca        1 651     -0.122000
     10 CAJ         0.0610    1.5040    0.2940 ca        1 651     -0.122000
     11 CAK        -2.7860   -1.3400    1.2420 c3        1 651     -0.107900
     12 CAL        -4.4050    0.5230    1.0680 c3        1 651     -0.107900
     13 CAM        -3.4620   -1.9800    0.0160 c3        1 651      0.133800
     14 CAN        -5.0190   -0.1840   -0.1530 c3        1 651      0.133800
     15 CAO        -2.9600   -0.0900   -1.3570 c3        1 651      0.114800
     16 CAP         3.5020    0.0070   -0.0030 cp        1 651     -0.040000
     17 CAQ         2.0500    0.1580   -0.0480 cp        1 651     -0.032000
     18 CAR        -0.7550    0.4520   -0.1480 ca        1 651     -0.108300
     19 CAS        -2.9160    0.1790    1.1420 c3        1 651     -0.047700
     20 NAT        -4.0330   -0.9810   -0.9010 n3        1 651     -0.661600
     21 CAU        -2.2480    0.6530   -0.1800 c3        1 651      0.168100
     22 HOAA       -2.1130    2.3670   -1.0810 ho        1 651      0.403000
     23 HAC         6.3700    1.7450   -0.6770 ha        1 651      0.132000
     24 HAD         5.9070   -2.2770    0.8320 ha        1 651      0.132000
     25 HAE         3.8960    2.0040   -0.7550 ha        1 651      0.134500
     26 HAF         3.4320   -2.0230    0.7600 ha        1 651      0.134500
     27 HAG         1.6920   -1.8500   -0.7840 ha        1 651      0.137000
     28 HAH         2.0680    2.1970    0.6940 ha        1 651      0.137000
     29 HAI        -0.7640   -1.6050   -0.8530 ha        1 651      0.142000
     30 HAJ        -0.4020    2.4500    0.6160 ha        1 651      0.142000
     31 HAK        -3.2790   -1.6920    2.1820 hc        1 651      0.053700
     32 HAKA       -1.7080   -1.6340    1.2910 hc        1 651      0.053700
     33 HAL        -4.5310    1.6310    0.9760 hc        1 651      0.053700
     34 HALA       -4.9140    0.1910    2.0060 hc        1 651      0.053700
     35 HAM        -2.7200   -2.5990   -0.5580 h1        1 651      0.054200
     36 HAMA       -4.2920   -2.6620    0.3450 h1        1 651      0.054200
     37 HAN        -5.8460   -0.8710    0.1710 h1        1 651      0.054200
     38 HANA       -5.4570    0.5760   -0.8560 h1        1 651      0.054200
     39 HAO        -2.2270   -0.6930   -1.9540 h1        1 651      0.063700
     40 HAOA       -3.4150    0.6780   -2.0420 h1        1 651      0.063700
     41 HAS        -2.4320    0.6880    2.0100 hc        1 651      0.072700
     42 HAB         7.3820   -0.3950    0.1150 ha        1 651      0.132000
@<TRIPOS>BOND
     1    1   21 1   
     2    1   22 1   
     3    2    3 ar  
     4    2    4 ar  
     5    2   42 1   
     6    3    5 ar  
     7    3   23 1   
     8    4    6 ar  
     9    4   24 1   
    10    5   16 ar  
    11    5   25 1   
    12    6   16 ar  
    13    6   26 1   
    14    7    9 ar  
    15    7   17 ar  
    16    7   27 1   
    17    8   10 ar  
    18    8   17 ar  
    19    8   28 1   
    20    9   18 ar  
    21    9   29 1   
    22   10   18 ar  
    23   10   30 1   
    24   11   13 1   
    25   11   19 1   
    26   11   31 1   
    27   11   32 1   
    28   12   14 1   
    29   12   19 1   
    30   12   33 1   
    31   12   34 1   
    32   13   20 1   
    33   13   35 1   
    34   13   36 1   
    35   14   20 1   
    36   14   37 1   
    37   14   38 1   
    38   15   20 1   
    39   15   21 1   
    40   15   39 1   
    41   15   40 1   
    42   16   17 1   
    43   18   21 1   
    44   19   21 1   
    45   19   41 1   
@<TRIPOS>SUBSTRUCTURE
     1 651         1 TEMP              0 ****  ****    0 ROOT
