@<TRIPOS>MOLECULE
651
   42    45     1     0     0
SMALL
bcc


@<TRIPOS>ATOM
      1 OAA         1.3150   -0.1490   -0.2640 oh        1 651     -0.595800
      2 CAB        -2.7730    7.0730   -4.1040 ca        1 651     -0.126000
      3 CAC        -1.4190    6.8870   -3.8260 ca        1 651     -0.130000
      4 CAD        -3.6990    6.1020   -3.7240 ca        1 651     -0.130000
      5 CAE        -0.9900    5.7340   -3.1710 ca        1 651     -0.118000
      6 CAF        -3.2750    4.9490   -3.0660 ca        1 651     -0.118000
      7 CAG        -2.2110    3.0100   -1.0350 ca        1 651     -0.121000
      8 CAH        -0.2860    2.8970   -2.4850 ca        1 651     -0.121000
      9 CAI        -1.7810    1.8610   -0.3760 ca        1 651     -0.122000
     10 CAJ         0.1390    1.7490   -1.8260 ca        1 651     -0.122000
     11 CAK        -2.2100   -1.3360   -0.3910 c3        1 651     -0.107900
     12 CAL        -0.0680   -2.5220   -0.0280 c3        1 651     -0.107900
     13 CAM        -2.4040   -1.3160    1.1360 c3        1 651      0.133800
     14 CAN        -0.3390   -2.4550    1.4850 c3        1 651      0.133800
     15 CAO        -0.3930   -0.0690    1.4620 c3        1 651      0.114800
     16 CAP        -1.9150    4.7540   -2.7840 cp        1 651     -0.040000
     17 CAQ        -1.4670    3.5450   -2.0950 cp        1 651     -0.032000
     18 CAR        -0.5970    1.2200   -0.7550 ca        1 651     -0.108300
     19 CAS        -0.7140   -1.3080   -0.7010 c3        1 651     -0.047700
     20 NAT        -1.1280   -1.2720    1.8670 n3        1 651     -0.661600
     21 CAU        -0.0970   -0.0270   -0.0720 c3        1 651      0.168100
     22 HOAA        1.7140    0.6530    0.0940 ho        1 651      0.403000
     23 HAC        -0.6860    7.6520   -4.1230 ha        1 651      0.132000
     24 HAD        -4.7670    6.2440   -3.9430 ha        1 651      0.132000
     25 HAE         0.0790    5.5940   -2.9490 ha        1 651      0.134500
     26 HAF        -4.0080    4.1820   -2.7720 ha        1 651      0.134500
     27 HAG        -3.1400    3.5060   -0.7160 ha        1 651      0.137000
     28 HAH         0.3020    3.2950   -3.3250 ha        1 651      0.137000
     29 HAI        -2.3940    1.4590    0.4460 ha        1 651      0.142000
     30 HAJ         1.0610    1.2410   -2.1520 ha        1 651      0.142000
     31 HAK        -2.7190   -0.4580   -0.8610 hc        1 651      0.053700
     32 HAKA       -2.6600   -2.2640   -0.8240 hc        1 651      0.053700
     33 HAL        -0.4960   -3.4610   -0.4590 hc        1 651      0.053700
     34 HALA        1.0330   -2.5180   -0.2240 hc        1 651      0.053700
     35 HAM        -2.9610   -2.2340    1.4660 h1        1 651      0.054200
     36 HAMA       -3.0120   -0.4210    1.4380 h1        1 651      0.054200
     37 HAN         0.6330   -2.4210    2.0480 h1        1 651      0.054200
     38 HANA       -0.9010   -3.3680    1.8200 h1        1 651      0.054200
     39 HAO         0.5870   -0.0590    2.0160 h1        1 651      0.063700
     40 HAOA       -0.9790    0.8320    1.7840 h1        1 651      0.063700
     41 HAS        -0.5250   -1.3150   -1.8020 hc        1 651      0.072700
     42 HAB        -3.1100    7.9820   -4.6220 ha        1 651      0.132000
@<TRIPOS>BOND
     1    1   21 1   
     2    1   22 1   
     3    2    3 ar  
     4    2    4 ar  
     5    2   42 1   
     6    3    5 ar  
     7    3   23 1   
     8    4    6 ar  
     9    4   24 1   
    10    5   16 ar  
    11    5   25 1   
    12    6   16 ar  
    13    6   26 1   
    14    7    9 ar  
    15    7   17 ar  
    16    7   27 1   
    17    8   10 ar  
    18    8   17 ar  
    19    8   28 1   
    20    9   18 ar  
    21    9   29 1   
    22   10   18 ar  
    23   10   30 1   
    24   11   13 1   
    25   11   19 1   
    26   11   31 1   
    27   11   32 1   
    28   12   14 1   
    29   12   19 1   
    30   12   33 1   
    31   12   34 1   
    32   13   20 1   
    33   13   35 1   
    34   13   36 1   
    35   14   20 1   
    36   14   37 1   
    37   14   38 1   
    38   15   20 1   
    39   15   21 1   
    40   15   39 1   
    41   15   40 1   
    42   16   17 1   
    43   18   21 1   
    44   19   21 1   
    45   19   41 1   
@<TRIPOS>SUBSTRUCTURE
     1 651         1 TEMP              0 ****  ****    0 ROOT
