@<TRIPOS>MOLECULE
651
   42    45     1     0     0
SMALL
bcc


@<TRIPOS>ATOM
      1 OAA         1.3110   -0.1600   -0.2740 oh        1 651     -0.595800
      2 CAB        -2.7630    7.0770   -4.1030 ca        1 651     -0.126000
      3 CAC        -1.4090    6.8850   -3.8300 ca        1 651     -0.130000
      4 CAD        -3.6910    6.1090   -3.7170 ca        1 651     -0.130000
      5 CAE        -0.9820    5.7310   -3.1760 ca        1 651     -0.118000
      6 CAF        -3.2700    4.9550   -3.0600 ca        1 651     -0.118000
      7 CAG        -2.2050    3.0140   -1.0320 ca        1 651     -0.121000
      8 CAH        -0.2880    2.8920   -2.4910 ca        1 651     -0.121000
      9 CAI        -1.7760    1.8640   -0.3730 ca        1 651     -0.122000
     10 CAJ         0.1360    1.7420   -1.8320 ca        1 651     -0.122000
     11 CAK        -2.2190   -1.3320   -0.3840 c3        1 651     -0.107900
     12 CAL        -0.0810   -2.5260   -0.0300 c3        1 651     -0.107900
     13 CAM        -2.4060   -1.3090    1.1440 c3        1 651      0.133800
     14 CAN        -0.3440   -2.4570    1.4850 c3        1 651      0.133800
     15 CAO        -0.3880   -0.0700    1.4600 c3        1 651      0.114800
     16 CAP        -1.9090    4.7550   -2.7840 cp        1 651     -0.040000
     17 CAQ        -1.4640    3.5450   -2.0960 cp        1 651     -0.032000
     18 CAR        -0.5970    1.2170   -0.7580 ca        1 651     -0.108300
     19 CAS        -0.7250   -1.3100   -0.7000 c3        1 651     -0.047700
     20 NAT        -1.1270   -1.2700    1.8690 n3        1 651     -0.661600
     21 CAU        -0.0990   -0.0310   -0.0760 c3        1 651      0.168100
     22 HOAA        1.7160    0.6420    0.0810 ho        1 651      0.403000
     23 HAC        -0.6740    7.6460   -4.1310 ha        1 651      0.132000
     24 HAD        -4.7600    6.2560   -3.9330 ha        1 651      0.132000
     25 HAE         0.0870    5.5860   -2.9580 ha        1 651      0.134500
     26 HAF        -4.0050    4.1920   -2.7630 ha        1 651      0.134500
     27 HAG        -3.1300    3.5140   -0.7090 ha        1 651      0.137000
     28 HAH         0.2990    3.2860   -3.3350 ha        1 651      0.137000
     29 HAI        -2.3880    1.4650    0.4520 ha        1 651      0.142000
     30 HAJ         1.0540    1.2290   -2.1630 ha        1 651      0.142000
     31 HAK        -2.6750   -2.2580   -0.8150 hc        1 651      0.053700
     32 HAKA       -2.7270   -0.4520   -0.8520 hc        1 651      0.053700
     33 HAL         1.0200   -2.5270   -0.2300 hc        1 651      0.053700
     34 HALA       -0.5150   -3.4630   -0.4580 hc        1 651      0.053700
     35 HAM        -3.0090   -0.4110    1.4480 h1        1 651      0.054200
     36 HAMA       -2.9650   -2.2250    1.4780 h1        1 651      0.054200
     37 HAN        -0.9090   -3.3670    1.8230 h1        1 651      0.054200
     38 HANA        0.6300   -2.4260    2.0430 h1        1 651      0.054200
     39 HAO         0.5940   -0.0640    2.0090 h1        1 651      0.063700
     40 HAOA       -0.9690    0.8330    1.7830 h1        1 651      0.063700
     41 HAS        -0.5410   -1.3190   -1.8020 hc        1 651      0.072700
     42 HAB        -3.0980    7.9870   -4.6200 ha        1 651      0.132000
@<TRIPOS>BOND
     1    1   21 1   
     2    1   22 1   
     3    2    3 ar  
     4    2    4 ar  
     5    2   42 1   
     6    3    5 ar  
     7    3   23 1   
     8    4    6 ar  
     9    4   24 1   
    10    5   16 ar  
    11    5   25 1   
    12    6   16 ar  
    13    6   26 1   
    14    7    9 ar  
    15    7   17 ar  
    16    7   27 1   
    17    8   10 ar  
    18    8   17 ar  
    19    8   28 1   
    20    9   18 ar  
    21    9   29 1   
    22   10   18 ar  
    23   10   30 1   
    24   11   13 1   
    25   11   19 1   
    26   11   31 1   
    27   11   32 1   
    28   12   14 1   
    29   12   19 1   
    30   12   33 1   
    31   12   34 1   
    32   13   20 1   
    33   13   35 1   
    34   13   36 1   
    35   14   20 1   
    36   14   37 1   
    37   14   38 1   
    38   15   20 1   
    39   15   21 1   
    40   15   39 1   
    41   15   40 1   
    42   16   17 1   
    43   18   21 1   
    44   19   21 1   
    45   19   41 1   
@<TRIPOS>SUBSTRUCTURE
     1 651         1 TEMP              0 ****  ****    0 ROOT
