@<TRIPOS>MOLECULE
651
   42    45     1     0     0
SMALL
bcc


@<TRIPOS>ATOM
      1 OAA         1.3130   -0.1550   -0.2700 oh        1 651     -0.595800
      2 CAB        -2.7700    7.0680   -4.1150 ca        1 651     -0.126000
      3 CAC        -1.4150    6.8780   -3.8430 ca        1 651     -0.130000
      4 CAD        -3.6970    6.1010   -3.7270 ca        1 651     -0.130000
      5 CAE        -0.9870    5.7260   -3.1860 ca        1 651     -0.118000
      6 CAF        -3.2740    4.9490   -3.0670 ca        1 651     -0.118000
      7 CAG        -2.2060    3.0130   -1.0360 ca        1 651     -0.121000
      8 CAH        -0.2890    2.8890   -2.4940 ca        1 651     -0.121000
      9 CAI        -1.7770    1.8650   -0.3740 ca        1 651     -0.122000
     10 CAJ         0.1360    1.7420   -1.8330 ca        1 651     -0.122000
     11 CAK        -2.2160   -1.3310   -0.3770 c3        1 651     -0.107900
     12 CAL        -0.0770   -2.5220   -0.0210 c3        1 651     -0.107900
     13 CAM        -2.4030   -1.3050    1.1510 c3        1 651      0.133800
     14 CAN        -0.3400   -2.4500    1.4940 c3        1 651      0.133800
     15 CAO        -0.3860   -0.0630    1.4630 c3        1 651      0.114800
     16 CAP        -1.9130    4.7500   -2.7910 cp        1 651     -0.040000
     17 CAQ        -1.4660    3.5420   -2.1010 cp        1 651     -0.032000
     18 CAR        -0.5970    1.2180   -0.7570 ca        1 651     -0.108300
     19 CAS        -0.7220   -1.3090   -0.6940 c3        1 651     -0.047700
     20 NAT        -1.1230   -1.2630    1.8760 n3        1 651     -0.661600
     21 CAU        -0.0970   -0.0280   -0.0730 c3        1 651      0.168100
     22 HOAA        1.7170    0.6470    0.0820 ho        1 651      0.403000
     23 HAC        -0.6810    7.6390   -4.1460 ha        1 651      0.132000
     24 HAD        -4.7660    6.2460   -3.9420 ha        1 651      0.132000
     25 HAE         0.0830    5.5830   -2.9690 ha        1 651      0.134500
     26 HAF        -4.0080    4.1860   -2.7680 ha        1 651      0.134500
     27 HAG        -3.1320    3.5130   -0.7130 ha        1 651      0.137000
     28 HAH         0.2970    3.2830   -3.3390 ha        1 651      0.137000
     29 HAI        -2.3870    1.4670    0.4520 ha        1 651      0.142000
     30 HAJ         1.0540    1.2290   -2.1620 ha        1 651      0.142000
     31 HAK        -2.7250   -0.4530   -0.8470 hc        1 651      0.053700
     32 HAKA       -2.6710   -2.2590   -0.8050 hc        1 651      0.053700
     33 HAL        -0.5090   -3.4610   -0.4460 hc        1 651      0.053700
     34 HALA        1.0240   -2.5220   -0.2210 hc        1 651      0.053700
     35 HAM        -2.9610   -2.2210    1.4870 h1        1 651      0.054200
     36 HAMA       -3.0070   -0.4070    1.4530 h1        1 651      0.054200
     37 HAN         0.6350   -2.4170    2.0520 h1        1 651      0.054200
     38 HANA       -0.9030   -3.3600    1.8340 h1        1 651      0.054200
     39 HAO        -0.9680    0.8400    1.7850 h1        1 651      0.063700
     40 HAOA        0.5960   -0.0540    2.0120 h1        1 651      0.063700
     41 HAS        -0.5380   -1.3200   -1.7960 hc        1 651      0.072700
     42 HAB        -3.1060    7.9770   -4.6350 ha        1 651      0.132000
@<TRIPOS>BOND
     1    1   21 1   
     2    1   22 1   
     3    2    3 ar  
     4    2    4 ar  
     5    2   42 1   
     6    3    5 ar  
     7    3   23 1   
     8    4    6 ar  
     9    4   24 1   
    10    5   16 ar  
    11    5   25 1   
    12    6   16 ar  
    13    6   26 1   
    14    7    9 ar  
    15    7   17 ar  
    16    7   27 1   
    17    8   10 ar  
    18    8   17 ar  
    19    8   28 1   
    20    9   18 ar  
    21    9   29 1   
    22   10   18 ar  
    23   10   30 1   
    24   11   13 1   
    25   11   19 1   
    26   11   31 1   
    27   11   32 1   
    28   12   14 1   
    29   12   19 1   
    30   12   33 1   
    31   12   34 1   
    32   13   20 1   
    33   13   35 1   
    34   13   36 1   
    35   14   20 1   
    36   14   37 1   
    37   14   38 1   
    38   15   20 1   
    39   15   21 1   
    40   15   39 1   
    41   15   40 1   
    42   16   17 1   
    43   18   21 1   
    44   19   21 1   
    45   19   41 1   
@<TRIPOS>SUBSTRUCTURE
     1 651         1 TEMP              0 ****  ****    0 ROOT
