@<TRIPOS>MOLECULE
651
   42    38     1     0     0
SMALL
bcc


@<TRIPOS>ATOM
      1 OAA         1.9300   -1.4010    1.3300 oh        1 651     -0.595800
      2 CAB         0.1430    5.5760   -3.1450 c1        1 651     -0.066833
      3 CAC         1.1020    5.3890   -2.1660 c1        1 651     -0.066833
      4 CAD        -0.7920    4.5770   -3.4100 c1        1 651     -0.066833
      5 CAE         1.1360    4.2060   -1.4460 c1        1 651     -0.066833
      6 CAF        -0.7610    3.3920   -2.6900 c1        1 651     -0.062500
      7 CAG        -0.5690    1.8710    0.1750 c1        1 651     -0.062500
      8 CAH         0.9780    0.9230   -1.4380 c1        1 651     -0.066833
      9 CAI        -0.6050    0.6360    0.8650 c1        1 651     -0.064500
     10 CAJ         0.9380   -0.3100   -0.7430 c1        1 651     -0.066833
     11 CAK        -1.1900   -2.7350    0.2070 c3        1 651     -0.107900
     12 CAL         0.7840   -3.7900    1.2160 c3        1 651     -0.107900
     13 CAM        -1.8910   -2.8990    1.4020 c3        1 651      0.133800
     14 CAN         0.0560   -3.9660    2.4020 c3        1 651      0.133800
     15 CAO        -0.3180   -1.6430    2.6510 c3        1 651      0.114800
     16 CAP         0.1990    3.2010   -1.7090 c1        1 651     -0.036000
     17 CAQ         0.2260    2.0080   -0.9780 c1        1 651     -0.036000
     18 CAR         0.1460   -0.4430    0.4040 c1        1 651     -0.074100
     19 CAS         0.2710   -2.7640    0.3570 c3        1 651     -0.047700
     20 NAT        -1.0550   -3.0590    2.5600 n3        1 651     -0.661600
     21 CAU         0.5760   -1.4980    1.0940 c3        1 651      0.133900
     22 HOAA        2.0690   -0.8770    2.0100 ho        1 651      0.403000
     23 HAB         0.1210    6.4050   -3.6480 ha        1 651      0.078333
     24 HAC         1.7450    6.0780   -1.9860 ha        1 651      0.078333
     25 HAD        -1.4750    4.7130   -4.1080 ha        1 651      0.078333
     26 HAE         1.8250    4.0720   -0.7430 ha        1 651      0.078333
     27 HAF        -1.4230    2.6840   -2.8790 ha        1 651      0.078000
     28 HAG        -1.0820    2.6070    0.4900 ha        1 651      0.078000
     29 HAH         1.5400    1.0160   -2.2510 ha        1 651      0.078333
     30 HAI        -1.1670    0.5370    1.6810 ha        1 651      0.079500
     31 HAJ         1.4750   -1.0870   -1.0710 ha        1 651      0.078333
     32 HAK        -1.4660   -3.4930   -0.4410 hc        1 651      0.053700
     33 HAKA       -1.4530   -1.8510   -0.2020 hc        1 651      0.053700
     34 HAL         1.7140   -3.5660    1.4530 hc        1 651      0.053700
     35 HALA        0.7830   -4.6320    0.7220 hc        1 651      0.053700
     36 HAM        -2.4670   -2.1090    1.5380 h1        1 651      0.054200
     37 HAMA       -2.4810   -3.7150    1.3200 h1        1 651      0.054200
     38 HAN         0.6360   -3.8490    3.1210 h1        1 651      0.054200
     39 HANA       -0.2810   -4.8710    2.4240 h1        1 651      0.054200
     40 HAO        -0.9660   -0.9270    2.7360 h1        1 651      0.063700
     41 HAOA        0.3250   -1.6310    3.4260 h1        1 651      0.063700
     42 HAS         0.7250   -2.7760   -0.5290 hc        1 651      0.072700
@<TRIPOS>BOND
     1    1   21 1   
     2    1   22 1   
     3    2    4 3   
     4    2   23 1   
     5    3    5 3   
     6    3   24 1   
     7    4   25 1   
     8    5   26 1   
     9    6   16 3   
    10    6   27 1   
    11    7   17 3   
    12    7   28 1   
    13    8   10 3   
    14    8   29 1   
    15    9   18 3   
    16    9   30 1   
    17   10   31 1   
    18   11   13 1   
    19   11   19 1   
    20   11   32 1   
    21   11   33 1   
    22   12   14 1   
    23   12   19 1   
    24   12   34 1   
    25   12   35 1   
    26   13   20 1   
    27   13   36 1   
    28   13   37 1   
    29   14   20 1   
    30   14   38 1   
    31   14   39 1   
    32   15   20 1   
    33   15   21 1   
    34   15   40 1   
    35   15   41 1   
    36   18   21 1   
    37   19   21 1   
    38   19   42 1   
@<TRIPOS>SUBSTRUCTURE
     1 651         1 TEMP              0 ****  ****    0 ROOT
