@<TRIPOS>MOLECULE
652
   64    67     1     0     0
SMALL
bcc


@<TRIPOS>ATOM
      1 C25        -0.8470    0.6630   -0.5040 c3        1 652     -0.358300
      2 S1          0.6780   -0.0550   -0.6630 sy        1 652      1.397300
      3 O2          1.0700   -0.5640    0.5830 o         1 652     -0.656300
      4 O3          0.6510   -0.9400   -1.7500 o         1 652     -0.656300
      5 C24         1.5920    1.2990   -1.0450 ca        1 652     -0.383500
      6 C26         1.8390    1.6400   -2.3790 ca        1 652     -0.009000
      7 C23         2.1500    2.0910   -0.0330 ca        1 652     -0.018000
      8 C22         2.9230    3.2050   -0.3470 ca        1 652     -0.154000
      9 C21         3.1550    3.5410   -1.6790 ca        1 652     -0.057000
     10 C20         2.6160    2.7570   -2.7100 cp        1 652     -0.060000
     11 C19         2.8650    3.0980   -4.1090 cp        1 652     -0.041000
     12 C28         4.1270    3.5530   -4.5170 ca        1 652     -0.109000
     13 C27         4.3710    3.8830   -5.8440 ca        1 652     -0.129500
     14 C18         1.8490    2.9750   -5.0660 ca        1 652     -0.109000
     15 C17         2.0790    3.2990   -6.3980 ca        1 652     -0.129500
     16 C16         3.3440    3.7660   -6.8080 ca        1 652      0.010800
     17 N2          3.6200    4.0650   -8.1600 na        1 652     -0.145000
     18 C15         4.7320    3.5370   -8.8310 cc        1 652     -0.206600
     19 C11         4.7320    4.1060  -10.1140 cd        1 652      0.296600
     20 C12         5.7190    3.8420  -11.2070 c3        1 652      0.140500
     21 C13         5.0290    3.2150  -12.4150 c3        1 652     -0.116600
     22 C14         6.4310    5.1290  -11.6140 c3        1 652     -0.116600
     23 O1          6.6700    2.9170  -10.6610 oh        1 652     -0.607800
     24 N1          3.6530    4.9860  -10.2420 nd        1 652     -0.661000
     25 C10         2.9870    4.9630   -9.0610 cc        1 652      0.416800
     26 C7          1.7750    5.8210   -8.7400 c3        1 652     -0.011000
     27 C8          2.0160    6.4640   -7.3740 c3        1 652     -0.090600
     28 C9          1.6620    6.9350   -9.7860 c3        1 652     -0.090600
     29 C6          0.5080    4.9970   -8.7990 ca        1 652     -0.064300
     30 C4          0.5320    3.7520   -9.4520 ca        1 652     -0.121000
     31 C3         -0.6040    2.9560   -9.5600 ca        1 652     -0.131000
     32 C2         -1.8150    3.3890   -9.0220 ca        1 652     -0.123000
     33 C1         -1.8760    4.6280   -8.3930 ca        1 652     -0.131000
     34 C5         -0.7300    5.4300   -8.2920 ca        1 652      0.023400
     35 Cl1        -0.9660    6.9470   -7.5470 cl        1 652     -0.098400
     36 H1         -0.8740    1.4730    0.2650 h1        1 652      0.113700
     37 H2         -1.2210    1.1130   -1.4550 h1        1 652      0.113700
     38 H3         -1.6150   -0.0890   -0.1910 h1        1 652      0.113700
     39 H4          1.4300    1.0000   -3.1830 ha        1 652      0.161000
     40 H5          1.9840    1.8120    1.0230 ha        1 652      0.156000
     41 H6          3.3540    3.8190    0.4580 ha        1 652      0.145000
     42 H7          3.7610    4.4270   -1.9260 ha        1 652      0.142000
     43 H8          4.9400    3.6420   -3.7800 ha        1 652      0.141500
     44 H9          5.3730    4.2310   -6.1420 ha        1 652      0.154500
     45 H10         0.8520    2.6190   -4.7640 ha        1 652      0.141500
     46 H11         1.2620    3.1950   -7.1330 ha        1 652      0.154500
     47 H12         5.4100    2.8130   -8.3790 h4        1 652      0.196000
     48 H13         5.7760    3.0200  -13.2210 hc        1 652      0.046700
     49 H14         4.5540    2.2470  -12.1250 hc        1 652      0.046700
     50 H15         4.2440    3.9040  -12.8070 hc        1 652      0.046700
     51 H16         7.1740    4.9130  -12.4200 hc        1 652      0.046700
     52 H17         5.6910    5.8720  -11.9930 hc        1 652      0.046700
     53 H18         6.9680    5.5620  -10.7380 hc        1 652      0.046700
     54 H19         7.3040    2.7370  -11.3650 ho        1 652      0.403000
     55 H20         3.1060    6.6680   -7.2300 hc        1 652      0.049700
     56 H21         1.6640    5.7950   -6.5530 hc        1 652      0.049700
     57 H22         1.4830    7.4420   -7.2970 hc        1 652      0.049700
     58 H23         2.5940    7.5480   -9.7920 hc        1 652      0.049700
     59 H24         1.5010    6.5090  -10.8040 hc        1 652      0.049700
     60 H25         0.7970    7.5960   -9.5360 hc        1 652      0.049700
     61 H26         1.4650    3.3830   -9.9080 ha        1 652      0.155000
     62 H27        -0.5440    1.9860  -10.0760 ha        1 652      0.140000
     63 H28        -2.7160    2.7640   -9.1000 ha        1 652      0.139000
     64 H29        -2.8320    4.9860   -7.9800 ha        1 652      0.147000
@<TRIPOS>BOND
     1    1    2 1   
     2    1   36 1   
     3    1   37 1   
     4    1   38 1   
     5    2    3 2   
     6    2    4 2   
     7    2    5 1   
     8    5    6 ar  
     9    5    7 ar  
    10    6   10 ar  
    11    6   39 1   
    12    7    8 ar  
    13    7   40 1   
    14    8    9 ar  
    15    8   41 1   
    16    9   10 ar  
    17    9   42 1   
    18   10   11 1   
    19   11   12 ar  
    20   11   14 ar  
    21   12   13 ar  
    22   12   43 1   
    23   13   16 ar  
    24   13   44 1   
    25   14   15 ar  
    26   14   45 1   
    27   15   16 ar  
    28   15   46 1   
    29   16   17 1   
    30   17   18 1   
    31   17   25 1   
    32   18   19 2   
    33   18   47 1   
    34   19   20 1   
    35   19   24 1   
    36   20   21 1   
    37   20   22 1   
    38   20   23 1   
    39   21   48 1   
    40   21   49 1   
    41   21   50 1   
    42   22   51 1   
    43   22   52 1   
    44   22   53 1   
    45   23   54 1   
    46   24   25 2   
    47   25   26 1   
    48   26   27 1   
    49   26   28 1   
    50   26   29 1   
    51   27   55 1   
    52   27   56 1   
    53   27   57 1   
    54   28   58 1   
    55   28   59 1   
    56   28   60 1   
    57   29   30 ar  
    58   29   34 ar  
    59   30   31 ar  
    60   30   61 1   
    61   31   32 ar  
    62   31   62 1   
    63   32   33 ar  
    64   32   63 1   
    65   33   34 ar  
    66   33   64 1   
    67   34   35 1   
@<TRIPOS>SUBSTRUCTURE
     1 652         1 TEMP              0 ****  ****    0 ROOT
