@<TRIPOS>MOLECULE
653
   50    39     1     0     0
SMALL
bcc


@<TRIPOS>ATOM
      1 C1         -0.7160   -3.2700   -4.0310 c1        1 653     -0.213000
      2 C2          0.2860   -2.7610   -4.8460 c1        1 653     -0.120167
      3 C3          1.2350   -1.8970   -4.3210 c1        1 653     -0.120167
      4 C4          1.1820   -1.5350   -2.9600 c1        1 653     -0.011000
      5 C5          0.1960   -2.0370   -2.1580 c1        1 653     -0.011000
      6 C6         -0.7670   -2.9150   -2.6920 c1        1 653     -0.058000
      7 C7         -2.1060   -3.7610   -4.4130 c2        1 653      0.354000
      8 N1         -3.0940   -2.8240   -4.8950 n3        1 653     -0.334000
      9 N2         -2.4060   -5.0360   -4.3050 n2        1 653     -0.334000
     10 N3          1.9670   -0.7240   -2.2010 n1        1 653     -0.215500
     11 N4          0.3760   -1.5330   -0.9070 n1        1 653     -0.215500
     12 C8          1.4690   -0.7230   -0.9320 c2        1 653      0.184000
     13 C1'         1.0750    0.1270    0.0990 c1        1 653     -0.293000
     14 C2'         0.2980    1.2460   -0.1850 c1        1 653      0.041000
     15 C3'        -0.2220    2.0100    0.8490 c1        1 653     -0.309000
     16 CV'        -1.2040    3.1620    0.5370 c2        1 653     -0.084000
     17 CW'        -0.4910    4.5090    0.7280 c3        1 653     -0.149000
     18 NX'        -1.2770    5.5640    0.1170 n4        1 653     -0.069000
     19 C4'         0.0330    1.6580    2.1650 c2        1 653     -0.046000
     20 C5'         0.8090    0.5410    2.4480 c1        1 653     -0.157000
     21 C6'         1.3290   -0.2230    1.4130 c1        1 653      0.320000
     22 O6'         2.1870   -1.3010    1.6980 o         1 653     -0.441000
     23 C1B         1.1340    0.2400    3.7590 c1        1 653     -0.011000
     24 C2B         0.2860   -0.5480    4.5180 c1        1 653     -0.120167
     25 C3B         0.5800   -0.8010    5.8480 c1        1 653     -0.120167
     26 C4B         1.7210   -0.2680    6.4180 c1        1 653     -0.120167
     27 C5B         2.5720    0.5220    5.6580 c1        1 653     -0.120167
     28 C6B         2.2790    0.7760    4.3300 c1        1 653     -0.140000
     29 HC2         0.3230   -3.0110   -5.7870 ha        1 653      0.138333
     30 HC3         1.9390   -1.5390   -4.8930 ha        1 653      0.138333
     31 HC6        -1.4690   -3.2720   -2.1200 ha        1 653      0.144000
     32 HH11       -3.9830   -3.0500   -4.8940 hn        1 653      0.268000
     33 HH12       -2.8280   -2.0100   -5.2260 hn        1 653      0.268000
     34 HH21       -1.7770   -5.6320   -3.9980 DU        1 653      0.297000
     35 HH22       -3.2420   -5.3300   -4.5340 hn        1 653      0.255000
     36 HN3         2.6950   -0.2650   -2.4900 DU        1 653      0.297000
     37 HC2'        0.1120    1.4890   -1.1140 ha        1 653      0.124000
     38 H31A       -1.5140    3.0850   -0.3860 ha        1 653      0.090000
     39 H31B       -1.9750    3.1100    1.1470 ha        1 653      0.090000
     40 H32A       -0.3880    4.6910    1.6840 hx        1 653      0.151500
     41 H32B        0.3890    4.4730    0.3070 hx        1 653      0.151500
     42 H33A       -2.1100    5.5880    0.5020 hn        1 653      0.245667
     43 H33B       -1.3600    5.4010   -0.7890 hn        1 653      0.245667
     44 H33C       -0.8540    6.3760    0.2460 hn        1 653      0.245667
     45 HC4'       -0.3340    2.1970    2.8970 ha        1 653      0.105000
     46 H2B        -0.5210   -0.9250    4.1160 ha        1 653      0.138333
     47 H3B        -0.0180   -1.3560    6.3820 ha        1 653      0.138333
     48 H4B         1.9280   -0.4480    7.3560 ha        1 653      0.138333
     49 H5B         3.3770    0.8980    6.0600 ha        1 653      0.138333
     50 H6B         2.8770    1.3300    3.7960 ha        1 653      0.110000
@<TRIPOS>BOND
     1    1    6 1   
     2    1    7 1   
     3    2    3 1   
     4    2   29 1   
     5    3   30 1   
     6    4    5 1   
     7    6   31 1   
     8    7    8 1   
     9    7    9 1   
    10    8   32 1   
    11    8   33 1   
    12    9   35 1   
    13   10   12 1   
    14   11   12 1   
    15   12   13 1   
    16   13   21 1   
    17   14   15 1   
    18   14   37 1   
    19   15   19 1   
    20   16   17 1   
    21   16   38 1   
    22   16   39 1   
    23   17   18 1   
    24   17   40 1   
    25   17   41 1   
    26   18   42 1   
    27   18   43 1   
    28   18   44 1   
    29   19   20 1   
    30   19   45 1   
    31   21   22 1   
    32   23   28 1   
    33   24   25 1   
    34   24   46 1   
    35   25   47 1   
    36   26   27 1   
    37   26   48 1   
    38   27   49 1   
    39   28   50 1   
@<TRIPOS>SUBSTRUCTURE
     1 653         1 TEMP              0 ****  ****    0 ROOT
