@<TRIPOS>MOLECULE
653
   50    53     1     0     0
SMALL
bcc


@<TRIPOS>ATOM
      1 C1          5.4650    0.3710    0.0280 ca        1 653     -0.297900
      2 C2          5.1230    1.7350    0.1570 ca        1 653     -0.098000
      3 C3          3.8000    2.1450    0.2050 ca        1 653     -0.127000
      4 C4          2.8050    1.1650    0.1100 ca        1 653      0.025000
      5 C5          3.1490   -0.2600   -0.0220 ca        1 653     -0.047000
      6 C6          4.4870   -0.6340   -0.0570 ca        1 653     -0.057000
      7 C7          6.8880   -0.0090   -0.0200 ce        1 653      0.531400
      8 N1          7.2980   -1.1160    0.6500 nh        1 653     -0.488600
      9 N2          7.7530    0.7570   -0.7320 nh        1 653     -0.472700
     10 N3          1.4290    1.2200    0.1030 na        1 653     -0.232600
     11 N4          1.9760   -1.0170   -0.0990 nc        1 653     -0.360600
     12 C8          0.9450   -0.1160   -0.0250 cc        1 653      0.297500
     13 C1'        -0.4660   -0.4230   -0.0860 cd        1 653     -0.312200
     14 C2'        -0.8490   -1.7510   -0.3020 cd        1 653      0.041000
     15 C3'        -2.1830   -2.1120   -0.4120 cc        1 653     -0.314200
     16 CV'        -2.5890   -3.5170   -0.6190 c3        1 653     -0.001200
     17 CW'        -3.1320   -4.0370    0.7180 c3        1 653      0.086800
     18 NX'        -3.7320   -5.4040    0.6120 n4        1 653     -0.841600
     19 C4'        -3.1800   -1.1060   -0.3450 cc        1 653     -0.048000
     20 C5'        -2.8670    0.2060   -0.1190 cd        1 653     -0.164400
     21 C6'        -1.4710    0.6210    0.0640 c         1 653      0.597500
     22 O6'        -1.1780    1.8130    0.3370 o         1 653     -0.679100
     23 C1B        -3.9320    1.2070   -0.0710 ca        1 653     -0.027800
     24 C2B        -3.9230    2.2320    0.8860 ca        1 653     -0.119000
     25 C3B        -4.9640    3.1570    0.9380 ca        1 653     -0.136500
     26 C4B        -6.0230    3.0760    0.0340 ca        1 653     -0.132000
     27 C5B        -6.0350    2.0680   -0.9290 ca        1 653     -0.136500
     28 C6B        -4.9970    1.1400   -0.9830 ca        1 653     -0.119000
     29 HC2         5.9100    2.4980    0.2560 ha        1 653      0.131000
     30 HC3         3.5420    3.2080    0.3160 ha        1 653      0.161000
     31 HC6         4.7530   -1.6940   -0.1860 ha        1 653      0.144000
     32 HH11        8.2330   -1.4520    0.6250 hn        1 653      0.317950
     33 HH12        6.6230   -1.6270    1.1770 hn        1 653      0.317950
     34 HH21        7.3920    1.5430   -1.2290 hn        1 653      0.317950
     35 HH22        8.7310    0.5800   -0.7710 hn        1 653      0.317950
     36 HN3         0.8400    2.0210    0.1950 hn        1 653      0.360700
     37 HC2'       -0.0770   -2.5340   -0.3940 ha        1 653      0.124000
     38 H31A       -3.3880   -3.5820   -1.4060 hc        1 653      0.049700
     39 H31B       -1.7200   -4.1450   -0.9490 hc        1 653      0.049700
     40 H32A       -2.3010   -4.0820    1.4780 hx        1 653      0.112700
     41 H32B       -3.9340   -3.3370    1.0940 hx        1 653      0.112700
     42 H33A       -4.5030   -5.3910   -0.0620 hn        1 653      0.449800
     43 H33B       -3.0260   -6.0690    0.2840 hn        1 653      0.449800
     44 H33C       -4.0860   -5.7110    1.5200 hn        1 653      0.449800
     45 HC4'       -4.2330   -1.4030   -0.4830 ha        1 653      0.104000
     46 H2B        -3.0730    2.3140    1.5820 ha        1 653      0.137000
     47 H3B        -4.9440    3.9570    1.6910 ha        1 653      0.128000
     48 H4B        -6.8420    3.8090    0.0760 ha        1 653      0.129000
     49 H5B        -6.8600    2.0090   -1.6520 ha        1 653      0.128000
     50 H6B        -5.0030    0.3590   -1.7580 ha        1 653      0.137000
@<TRIPOS>BOND
     1    1    2 ar  
     2    1    6 ar  
     3    1    7 1   
     4    2    3 ar  
     5    2   29 1   
     6    3    4 ar  
     7    3   30 1   
     8    4    5 ar  
     9    4   10 2   
    10    5    6 ar  
    11    5   11 2   
    12    6   31 1   
    13    7    8 2   
    14    7    9 1   
    15    8   32 1   
    16    8   33 1   
    17    9   34 1   
    18    9   35 1   
    19   10   12 1   
    20   10   36 1   
    21   11   12 1   
    22   12   13 2   
    23   13   14 1   
    24   13   21 1   
    25   14   15 2   
    26   14   37 1   
    27   15   16 1   
    28   15   19 1   
    29   16   17 1   
    30   16   38 1   
    31   16   39 1   
    32   17   18 1   
    33   17   40 1   
    34   17   41 1   
    35   18   42 1   
    36   18   43 1   
    37   18   44 1   
    38   19   20 2   
    39   19   45 1   
    40   20   21 1   
    41   20   23 1   
    42   21   22 2   
    43   23   24 ar  
    44   23   28 ar  
    45   24   25 ar  
    46   24   46 1   
    47   25   26 ar  
    48   25   47 1   
    49   26   27 ar  
    50   26   48 1   
    51   27   28 ar  
    52   27   49 1   
    53   28   50 1   
@<TRIPOS>SUBSTRUCTURE
     1 653         1 TEMP              0 ****  ****    0 ROOT
