@<TRIPOS>MOLECULE
654
   32    26     1     0     0
SMALL
bcc


@<TRIPOS>ATOM
      1 S1T        -2.2130    0.8320    3.7810 ss        1 654      0.522000
      2 C2T        -1.0970    1.7710    3.2200 c2        1 654     -0.281000
      3 C3T        -0.9950    2.9140    4.0990 c1        1 654     -0.133000
      4 C4T        -2.0590    2.7410    5.2680 c1        1 654     -0.156000
      5 C5T        -2.7750    1.4860    5.0540 c1        1 654     -0.435000
      6 C1I        -0.2420    1.4880    2.1150 c2        1 654     -0.056000
      7 N2I         1.0570    1.1680    2.1850 n2        1 654     -0.123000
      8 C3I        -0.6040    1.5100    0.7850 c1        1 654     -0.149000
      9 N4I         0.4840    1.2020    0.0500 n2        1 654     -0.158000
     10 C5I         1.5190    0.9880    0.9060 c1        1 654     -0.100000
     11 C1          0.5820    1.2970   -1.3770 c2        1 654      0.023000
     12 C2          0.6550   -0.1300   -1.9890 c2        1 654     -0.119000
     13 C3         -0.5260   -0.8030   -2.3420 c2        1 654     -0.113000
     14 C4         -0.4640   -2.0810   -2.8590 c1        1 654     -0.131000
     15 C5          1.8670   -0.7430   -2.1580 c1        1 654     -0.104000
     16 C6          1.9270   -2.0350   -2.6810 c1        1 654     -0.129000
     17 C7          0.7580   -2.6990   -3.0290 c1        1 654     -0.057000
     18 C8          0.8170   -4.1210   -3.5050 c3        1 654     -0.183000
     19 H3TC       -0.3830    3.6580    3.9930 DU        1 654      0.173200
     20 H4TC       -2.2090    3.3700    6.0070 DU        1 654      0.173200
     21 H5TC       -3.4990    1.1190    5.6300 DU        1 654      0.173200
     22 H3IC       -1.5010    1.7160    0.4320 DU        1 654      0.173200
     23 H5IC        2.4620    0.7390    0.6460 DU        1 654      0.173200
     24 HC11       -0.2210    1.7690   -1.7340 ha        1 654      0.107000
     25 HC12        1.4020    1.8070   -1.6200 ha        1 654      0.107000
     26 HC3        -1.3890   -0.3680   -2.2210 ha        1 654      0.131000
     27 HC4        -1.3010   -2.5570   -3.1090 ha        1 654      0.135000
     28 HC5         2.6870   -0.2770   -1.9140 ha        1 654      0.138000
     29 HC6         2.7750   -2.4650   -2.8000 ha        1 654      0.137000
     30 HC81        1.6480   -4.2610   -4.0210 hc        1 654      0.087000
     31 HC82        0.0360   -4.3080   -4.0810 hc        1 654      0.087000
     32 HC83        0.8050   -4.7260   -2.7320 hc        1 654      0.087000
@<TRIPOS>BOND
     1    1    2 1   
     2    1    5 1   
     3    2    3 1   
     4    2    6 1   
     5    3    4 1   
     6    4    5 1   
     7    6    7 1   
     8    6    8 1   
     9    7   10 1   
    10    8    9 1   
    11    9   10 1   
    12   11   12 1   
    13   11   24 1   
    14   11   25 1   
    15   12   13 1   
    16   12   15 1   
    17   13   14 1   
    18   13   26 1   
    19   14   27 1   
    20   15   28 1   
    21   16   17 1   
    22   16   29 1   
    23   17   18 1   
    24   18   30 1   
    25   18   31 1   
    26   18   32 1   
@<TRIPOS>SUBSTRUCTURE
     1 654         1 TEMP              0 ****  ****    0 ROOT
