@<TRIPOS>MOLECULE
654
   32    34     1     0     0
SMALL
bcc


@<TRIPOS>ATOM
      1 S1T        -0.0110    0.3830   -0.2510 ss        1 654     -0.021800
      2 C2T         1.6330    0.1220    0.0570 cc        1 654     -0.118600
      3 C3T         1.8730    0.0500    1.4190 cd        1 654     -0.131000
      4 C4T         0.6730    0.2130    2.1780 cd        1 654     -0.156000
      5 C5T        -0.4230    0.4030    1.3680 cc        1 654     -0.164100
      6 C1I         2.6100   -0.0010   -0.9810 cc        1 654      0.384800
      7 N2I         3.9870   -0.1880   -0.7490 nc        1 654     -0.652000
      8 C3I         2.3710    0.0460   -2.3750 cd        1 654     -0.252600
      9 N4I         3.6140   -0.0980   -2.9940 na        1 654     -0.202900
     10 C5I         4.5590   -0.2530   -1.9660 cd        1 654      0.401400
     11 C1          3.8570   -0.1690   -4.4050 c3        1 654      0.089600
     12 C2          3.8580   -1.5520   -4.9920 ca        1 654     -0.126300
     13 C3          2.8030   -2.4360   -4.7500 ca        1 654     -0.108500
     14 C4          2.7980   -3.7000   -5.3350 ca        1 654     -0.130000
     15 C5          4.9090   -1.9460   -5.8250 ca        1 654     -0.108500
     16 C6          4.9010   -3.2080   -6.4150 ca        1 654     -0.130000
     17 C7          3.8470   -4.0970   -6.1730 ca        1 654     -0.064300
     18 C8          3.8480   -5.4460   -6.7830 c3        1 654     -0.057800
     19 H3TC        2.8560   -0.1120    1.8680 ha        1 654      0.169000
     20 H4TC        0.6530    0.1880    3.2700 ha        1 654      0.152000
     21 H5TC       -1.4470    0.5500    1.7080 h4        1 654      0.168000
     22 H3IC        1.4490    0.1810   -2.9360 h4        1 654      0.179000
     23 H5IC        5.6260   -0.3970   -2.1630 h5        1 654      0.062100
     24 HC11        4.8540    0.3240   -4.6060 h1        1 654      0.067700
     25 HC12        3.0580    0.4350   -4.9280 h1        1 654      0.067700
     26 HC3         1.9750   -2.1360   -4.0880 ha        1 654      0.135000
     27 HC4         1.9660   -4.3910   -5.1370 ha        1 654      0.136000
     28 HC5         5.7470   -1.2590   -6.0210 ha        1 654      0.135000
     29 HC6         5.7300   -3.5100   -7.0720 ha        1 654      0.136000
     30 HC81        4.4230   -5.4540   -7.7420 hc        1 654      0.047367
     31 HC82        2.8050   -5.7910   -6.9920 hc        1 654      0.047367
     32 HC83        4.3240   -6.1790   -6.0830 hc        1 654      0.047367
@<TRIPOS>BOND
     1    1    2 1   
     2    1    5 1   
     3    2    3 2   
     4    2    6 1   
     5    3    4 1   
     6    3   19 1   
     7    4    5 2   
     8    4   20 1   
     9    5   21 1   
    10    6    7 1   
    11    6    8 2   
    12    7   10 2   
    13    8    9 1   
    14    8   22 1   
    15    9   10 1   
    16    9   11 1   
    17   10   23 1   
    18   11   12 1   
    19   11   24 1   
    20   11   25 1   
    21   12   13 ar  
    22   12   15 ar  
    23   13   14 ar  
    24   13   26 1   
    25   14   17 ar  
    26   14   27 1   
    27   15   16 ar  
    28   15   28 1   
    29   16   17 ar  
    30   16   29 1   
    31   17   18 1   
    32   18   30 1   
    33   18   31 1   
    34   18   32 1   
@<TRIPOS>SUBSTRUCTURE
     1 654         1 TEMP              0 ****  ****    0 ROOT
