@<TRIPOS>MOLECULE
654
   32    34     1     0     0
SMALL
bcc


@<TRIPOS>ATOM
      1 S1T         0.0330    0.3160   -0.1600 ss        1 654     -0.021800
      2 C2T         1.6940    0.1080    0.0930 cc        1 654     -0.118600
      3 C3T         1.9830    0.0560    1.4450 cd        1 654     -0.131000
      4 C4T         0.8060    0.1900    2.2450 cd        1 654     -0.156000
      5 C5T        -0.3230    0.3380    1.4720 cc        1 654     -0.164100
      6 C1I         2.6380    0.0060   -0.9790 cc        1 654      0.384800
      7 N2I         4.0270   -0.1360   -0.7930 nc        1 654     -0.652000
      8 C3I         2.3490    0.0310   -2.3630 cd        1 654     -0.252600
      9 N4I         3.5730   -0.0800   -3.0240 na        1 654     -0.202900
     10 C5I         4.5580   -0.1950   -2.0280 cd        1 654      0.401400
     11 C1          3.7700   -0.1570   -4.4420 c3        1 654      0.089600
     12 C2          3.7950   -1.5450   -5.0170 ca        1 654     -0.126300
     13 C3          2.7800   -2.4620   -4.7270 ca        1 654     -0.108500
     14 C4          2.7960   -3.7310   -5.3010 ca        1 654     -0.130000
     15 C5          4.8280   -1.9130   -5.8850 ca        1 654     -0.108500
     16 C6          4.8410   -3.1800   -6.4620 ca        1 654     -0.130000
     17 C7          3.8260   -4.1010   -6.1750 ca        1 654     -0.064300
     18 C8          3.8330   -5.4440   -6.7970 c3        1 654     -0.057800
     19 H3TC        2.9850   -0.0720    1.8610 ha        1 654      0.169000
     20 H4TC        0.8250    0.1730    3.3370 ha        1 654      0.152000
     21 H5TC       -1.3380    0.4580    1.8470 h4        1 654      0.168000
     22 H3IC        1.4040    0.1310   -2.8930 h4        1 654      0.179000
     23 H5IC        5.6220   -0.3070   -2.2620 h5        1 654      0.063100
     24 HC11        4.7420    0.3650   -4.6820 h1        1 654      0.067700
     25 HC12        2.9330    0.4160   -4.9420 h1        1 654      0.067700
     26 HC3         1.9680   -2.1830   -4.0370 ha        1 654      0.135000
     27 HC4         1.9970   -4.4490   -5.0640 ha        1 654      0.136000
     28 HC5         5.6350   -1.2010   -6.1160 ha        1 654      0.135000
     29 HC6         5.6560   -3.4620   -7.1440 ha        1 654      0.136000
     30 HC81        4.8740   -5.7660   -7.0460 hc        1 654      0.047700
     31 HC82        3.2350   -5.4290   -7.7430 hc        1 654      0.047700
     32 HC83        3.3830   -6.2040   -6.1110 hc        1 654      0.047700
@<TRIPOS>BOND
     1    1    2 1   
     2    1    5 1   
     3    2    3 2   
     4    2    6 1   
     5    3    4 1   
     6    3   19 1   
     7    4    5 2   
     8    4   20 1   
     9    5   21 1   
    10    6    7 1   
    11    6    8 2   
    12    7   10 2   
    13    8    9 1   
    14    8   22 1   
    15    9   10 1   
    16    9   11 1   
    17   10   23 1   
    18   11   12 1   
    19   11   24 1   
    20   11   25 1   
    21   12   13 ar  
    22   12   15 ar  
    23   13   14 ar  
    24   13   26 1   
    25   14   17 ar  
    26   14   27 1   
    27   15   16 ar  
    28   15   28 1   
    29   16   17 ar  
    30   16   29 1   
    31   17   18 1   
    32   18   30 1   
    33   18   31 1   
    34   18   32 1   
@<TRIPOS>SUBSTRUCTURE
     1 654         1 TEMP              0 ****  ****    0 ROOT
