@<TRIPOS>MOLECULE
654
   32    34     1     0     0
SMALL
bcc


@<TRIPOS>ATOM
      1 S1T         1.0290    1.0580   -3.5750 ss        1 654     -0.021800
      2 C2T        -0.0820   -0.1290   -3.1000 cc        1 654     -0.118600
      3 C3T        -0.2600   -1.0650   -4.1030 cd        1 654     -0.131000
      4 C4T         0.5380   -0.7720   -5.2520 cd        1 654     -0.156000
      5 C5T         1.2870    0.3700   -5.0750 cc        1 654     -0.164100
      6 C1I        -0.7270   -0.1240   -1.8220 cc        1 654      0.384800
      7 N2I        -1.6770   -1.0820   -1.4170 nc        1 654     -0.652000
      8 C3I        -0.5300    0.8130   -0.7810 cd        1 654     -0.252600
      9 N4I        -1.3790    0.4310    0.2600 na        1 654     -0.202900
     10 C5I        -2.0400   -0.7330   -0.1690 cd        1 654      0.401400
     11 C1         -1.4800    1.0540    1.5470 c3        1 654      0.089600
     12 C2         -0.5850    0.4870    2.6120 ca        1 654     -0.126300
     13 C3          0.7830    0.3130    2.3840 ca        1 654     -0.108500
     14 C4          1.6060   -0.1750    3.3960 ca        1 654     -0.130000
     15 C5         -1.1220    0.1640    3.8620 ca        1 654     -0.108500
     16 C6         -0.2970   -0.3200    4.8750 ca        1 654     -0.130000
     17 C7          1.0740   -0.4940    4.6510 ca        1 654     -0.064300
     18 C8          1.9530   -0.9980    5.7310 c3        1 654     -0.057800
     19 H3TC       -0.9280   -1.9270   -4.0350 ha        1 654      0.169000
     20 H4TC        0.5380   -1.3930   -6.1500 ha        1 654      0.152000
     21 H5TC        1.9720    0.7990   -5.8040 h4        1 654      0.168000
     22 H3IC        0.1130    1.6880   -0.7210 h4        1 654      0.179000
     23 H5IC       -2.7660   -1.2620    0.4570 h5        1 654      0.063100
     24 HC11       -2.5560    0.9760    1.8810 h1        1 654      0.067700
     25 HC12       -1.2300    2.1500    1.4240 h1        1 654      0.067700
     26 HC3         1.2120    0.5570    1.3990 ha        1 654      0.135000
     27 HC4         2.6810   -0.3150    3.2070 ha        1 654      0.136000
     28 HC5        -2.1980    0.2910    4.0510 ha        1 654      0.135000
     29 HC6        -0.7260   -0.5710    5.8560 ha        1 654      0.136000
     30 HC81        2.3870   -0.1380    6.3010 hc        1 654      0.047367
     31 HC82        1.3830   -1.6400    6.4470 hc        1 654      0.047367
     32 HC83        2.7960   -1.6000    5.3110 hc        1 654      0.047367
@<TRIPOS>BOND
     1    1    2 1   
     2    1    5 1   
     3    2    3 2   
     4    2    6 1   
     5    3    4 1   
     6    3   19 1   
     7    4    5 2   
     8    4   20 1   
     9    5   21 1   
    10    6    7 1   
    11    6    8 2   
    12    7   10 2   
    13    8    9 1   
    14    8   22 1   
    15    9   10 1   
    16    9   11 1   
    17   10   23 1   
    18   11   12 1   
    19   11   24 1   
    20   11   25 1   
    21   12   13 ar  
    22   12   15 ar  
    23   13   14 ar  
    24   13   26 1   
    25   14   17 ar  
    26   14   27 1   
    27   15   16 ar  
    28   15   28 1   
    29   16   17 ar  
    30   16   29 1   
    31   17   18 1   
    32   18   30 1   
    33   18   31 1   
    34   18   32 1   
@<TRIPOS>SUBSTRUCTURE
     1 654         1 TEMP              0 ****  ****    0 ROOT
