@<TRIPOS>MOLECULE
655
   45    38     1     0     0
SMALL
bcc


@<TRIPOS>ATOM
      1 C1          0.3280    1.7370   -5.2370 c1        1 655     -0.213000
      2 C2          1.2110    0.6880   -5.3450 c1        1 655     -0.129500
      3 C3          1.6530    0.0410   -4.2150 c1        1 655     -0.129500
      4 C4          1.2000    0.4540   -2.9400 c1        1 655      0.007500
      5 C5          0.3330    1.4830   -2.8340 c1        1 655      0.007500
      6 C6         -0.1170    2.1420   -3.9890 c1        1 655     -0.102000
      7 C7         -0.1540    2.3520   -6.5150 c2        1 655      0.351000
      8 N1         -1.2380    1.7630   -7.2240 n3        1 655     -0.352000
      9 N2          0.4270    3.4410   -6.9830 n2        1 655     -0.346000
     10 N3          1.4690    0.0060   -1.6920 n1        1 655     -0.232000
     11 N4          0.0650    1.6720   -1.5120 n1        1 655     -0.232000
     12 C8          0.7640    0.7630   -0.8120 c2        1 655      0.203000
     13 C1'         0.6810    0.7610    0.5750 c1        1 655     -0.311000
     14 C2'         1.3790    1.7030    1.3120 c1        1 655     -0.129500
     15 C3'         1.1900    1.7900    2.6980 c1        1 655     -0.129500
     16 C4'         0.2950    0.9230    3.3370 c1        1 655     -0.122000
     17 C5'        -0.4070   -0.0240    2.5950 c1        1 655     -0.066000
     18 O5'        -1.3440   -0.8430    3.2240 o         1 655     -0.198000
     19 C6'        -0.2210   -0.1110    1.2230 c2        1 655      0.314000
     20 O6'        -1.0450   -1.0320    0.4310 o         1 655     -0.446000
     21 C1B        -1.2510   -1.4450    5.4350 c3        1 655     -0.174500
     22 C2B        -0.6940   -1.6580    4.1940 c3        1 655      0.028000
     23 C3B        -0.9330   -3.2190    3.8490 c3        1 655     -0.174500
     24 C4B        -0.7980   -3.9120    5.0510 c3        1 655     -0.155000
     25 C5B        -1.1850   -2.8660    6.1750 c3        1 655     -0.155000
     26 HC2         1.5280    0.4010   -6.2300 ha        1 655      0.128000
     27 HC3         2.2850   -0.7060   -4.2930 ha        1 655      0.128000
     28 HC6        -0.7420    2.8850   -3.9130 ha        1 655      0.138000
     29 HH11       -1.9340    2.3500   -7.6190 hn        1 655      0.260500
     30 HH12       -1.2550    0.8210   -7.3760 hn        1 655      0.260500
     31 HH21        1.0980    3.8060   -6.5430 DU        1 655      0.293500
     32 HH22        0.1550    3.8220   -7.7400 hn        1 655      0.245000
     33 HN3         2.0300   -0.6880   -1.4770 DU        1 655      0.293500
     34 HC2'        1.9940    2.3010    0.8710 ha        1 655      0.128000
     35 HC3'        1.6850    2.4540    3.2190 ha        1 655      0.128000
     36 HC4'        0.1500    0.9860    4.4000 ha        1 655      0.119000
     37 H1A        -2.2290   -1.1370    5.3410 hc        1 655      0.093250
     38 H1B        -0.6920   -0.7300    5.9650 hc        1 655      0.093250
     39 H2A         0.3260   -1.4500    4.2180 h1        1 655      0.088000
     40 H3A        -0.2660   -3.5250    3.2070 hc        1 655      0.093250
     41 H3B        -1.7990   -3.3420    3.5000 hc        1 655      0.093250
     42 H4A         0.1020   -4.2080    5.1660 hc        1 655      0.075000
     43 H4B        -1.4330   -4.7010    5.0740 hc        1 655      0.075000
     44 H5A        -2.0910   -3.0960    6.5700 hc        1 655      0.075000
     45 H5B        -0.5220   -2.8520    6.8590 hc        1 655      0.075000
@<TRIPOS>BOND
     1    1    6 1   
     2    1    7 1   
     3    2    3 1   
     4    2   26 1   
     5    3   27 1   
     6    4    5 1   
     7    6   28 1   
     8    7    8 1   
     9    7    9 1   
    10    8   29 1   
    11    8   30 1   
    12    9   32 1   
    13   10   12 1   
    14   11   12 1   
    15   12   13 1   
    16   13   19 1   
    17   14   15 1   
    18   14   34 1   
    19   15   35 1   
    20   16   17 1   
    21   16   36 1   
    22   17   19 1   
    23   18   22 1   
    24   19   20 1   
    25   21   22 1   
    26   21   25 1   
    27   21   37 1   
    28   21   38 1   
    29   22   23 1   
    30   22   39 1   
    31   23   24 1   
    32   23   40 1   
    33   23   41 1   
    34   24   25 1   
    35   24   42 1   
    36   24   43 1   
    37   25   44 1   
    38   25   45 1   
@<TRIPOS>SUBSTRUCTURE
     1 655         1 TEMP              0 ****  ****    0 ROOT
