@<TRIPOS>MOLECULE
655
   45    48     1     0     0
SMALL
bcc


@<TRIPOS>ATOM
      1 C1          5.1720    0.4490   -0.0350 ca        1 655     -0.284900
      2 C2          5.3850   -0.9380   -0.1660 ca        1 655     -0.111000
      3 C3          4.3230   -1.8350   -0.1620 ca        1 655     -0.154000
      4 C4          3.0300   -1.3250   -0.0390 ca        1 655      0.024000
      5 C5          2.7880    0.1280    0.0990 ca        1 655     -0.009000
      6 C6          3.8770    0.9920    0.0970 ca        1 655     -0.110000
      7 C7          6.3190    1.3630   -0.0340 ce        1 655      0.529400
      8 N1          6.2950    2.4580    0.7710 nh        1 655     -0.500100
      9 N2          7.3890    1.0970   -0.8320 nh        1 655     -0.484200
     10 N3          1.7830   -1.9070   -0.0100 na        1 655     -0.281600
     11 N4          1.4290    0.3770    0.2170 nc        1 655     -0.322600
     12 C8          0.8050   -0.8510    0.1380 cc        1 655      0.321500
     13 C1'        -0.5820   -1.1370    0.1820 cd        1 655     -0.340200
     14 C2'        -1.0380   -2.4440    0.5210 cd        1 655     -0.066000
     15 C3'        -2.3610   -2.7580    0.5970 cc        1 655     -0.214000
     16 C4'        -3.3500   -1.7640    0.3330 cc        1 655     -0.168000
     17 C5'        -2.9660   -0.4990    0.0120 cd        1 655     -0.014100
     18 O5'        -3.8370    0.5330   -0.2880 os        1 655     -0.306900
     19 C6'        -1.5430   -0.0860   -0.1120 c         1 655      0.600500
     20 O6'        -1.2540    1.0700   -0.4740 o         1 655     -0.590100
     21 C1B        -5.6430    1.8860    0.4520 c3        1 655     -0.095400
     22 C2B        -5.1460    0.4440    0.2880 c3        1 655      0.138100
     23 C3B        -6.1170   -0.2670   -0.6620 c3        1 655     -0.095400
     24 C4B        -7.3430    0.6220   -0.7950 c3        1 655     -0.076400
     25 C5B        -6.9550    2.0110   -0.3070 c3        1 655     -0.076400
     26 HC2         6.4050   -1.3430   -0.2330 ha        1 655      0.117000
     27 HC3         4.5060   -2.9140   -0.2510 ha        1 655      0.142000
     28 HC6         3.6990    2.0750    0.1530 ha        1 655      0.144000
     29 HH11        5.4880    2.6070    1.3400 hn        1 655      0.312200
     30 HH12        6.9990    3.1580    0.7550 hn        1 655      0.312200
     31 HH21        8.2090    1.6540   -0.8420 hn        1 655      0.312200
     32 HH22        7.3470    0.2970   -1.4240 hn        1 655      0.312200
     33 HN3         1.5790   -2.8660   -0.1090 hn        1 655      0.308700
     34 HC2'       -0.3040   -3.2280    0.7660 ha        1 655      0.085000
     35 HC3'       -2.6950   -3.7680    0.8690 ha        1 655      0.113000
     36 HC4'       -4.4090   -2.0470    0.4030 ha        1 655      0.118000
     37 H1A        -5.7850    2.1130    1.5370 hc        1 655      0.054700
     38 H1B        -4.8770    2.5980    0.0520 hc        1 655      0.054700
     39 H2A        -5.0970   -0.0790    1.2800 h1        1 655      0.047700
     40 H3A        -5.6240   -0.4150   -1.6560 hc        1 655      0.054700
     41 H3B        -6.3960   -1.2740   -0.2650 hc        1 655      0.054700
     42 H4A        -8.1840    0.2170   -0.1770 hc        1 655      0.036200
     43 H4B        -7.6960    0.6560   -1.8550 hc        1 655      0.036200
     44 H5A        -7.7550    2.4380    0.3470 hc        1 655      0.036200
     45 H5B        -6.8310    2.7040   -1.1770 hc        1 655      0.036200
@<TRIPOS>BOND
     1    1    2 ar  
     2    1    6 ar  
     3    1    7 1   
     4    2    3 ar  
     5    2   26 1   
     6    3    4 ar  
     7    3   27 1   
     8    4    5 ar  
     9    4   10 2   
    10    5    6 ar  
    11    5   11 2   
    12    6   28 1   
    13    7    8 2   
    14    7    9 1   
    15    8   29 1   
    16    8   30 1   
    17    9   31 1   
    18    9   32 1   
    19   10   12 1   
    20   10   33 1   
    21   11   12 1   
    22   12   13 2   
    23   13   14 1   
    24   13   19 1   
    25   14   15 2   
    26   14   34 1   
    27   15   16 1   
    28   15   35 1   
    29   16   17 2   
    30   16   36 1   
    31   17   18 1   
    32   17   19 1   
    33   18   22 1   
    34   19   20 2   
    35   21   22 1   
    36   21   25 1   
    37   21   37 1   
    38   21   38 1   
    39   22   23 1   
    40   22   39 1   
    41   23   24 1   
    42   23   40 1   
    43   23   41 1   
    44   24   25 1   
    45   24   42 1   
    46   24   43 1   
    47   25   44 1   
    48   25   45 1   
@<TRIPOS>SUBSTRUCTURE
     1 655         1 TEMP              0 ****  ****    0 ROOT
