@<TRIPOS>MOLECULE
656
   44    46     1     0     0
SMALL
bcc


@<TRIPOS>ATOM
      1 C1          4.9040   -0.4750    0.0010 ca        1 656     -0.283900
      2 C2          5.1290    0.8860    0.2880 ca        1 656     -0.112000
      3 C3          4.0770    1.7890    0.3730 ca        1 656     -0.155000
      4 C4          2.7810    1.3110    0.1800 ca        1 656      0.023000
      5 C5          2.5250   -0.1140   -0.1220 ca        1 656     -0.007000
      6 C6          3.6050   -0.9850   -0.2040 ca        1 656     -0.113000
      7 C7          6.0410   -1.3960   -0.0920 ce        1 656      0.528400
      8 N1          7.1060   -1.2330    0.7410 nh        1 656     -0.500600
      9 N2          6.0150   -2.3940   -1.0160 nh        1 656     -0.484700
     10 N3          1.5400    1.9080    0.2020 na        1 656     -0.281600
     11 N4          1.1660   -0.3330   -0.2820 nc        1 656     -0.324600
     12 C8          0.5530    0.8860   -0.0760 cc        1 656      0.321500
     13 C1'        -0.8300    1.1900   -0.1110 cd        1 656     -0.338200
     14 C2'        -1.2710    2.5370   -0.2740 cd        1 656     -0.071000
     15 C3'        -2.5890    2.8700   -0.3450 cc        1 656     -0.207000
     16 C4'        -3.5920    1.8570   -0.2620 cc        1 656     -0.182000
     17 C5'        -3.2230    0.5570   -0.1030 cd        1 656     -0.006100
     18 C6'        -1.8060    0.1200    0.0130 c         1 656      0.602500
     19 O6'        -1.5380   -1.0750    0.2380 o         1 656     -0.587100
     20 O5'        -4.0940   -0.5140   -0.0280 os        1 656     -0.304900
     21 C10        -5.4820   -0.1880   -0.1280 c3        1 656      0.126400
     22 C20        -6.2410   -1.5100   -0.0260 c3        1 656     -0.070700
     23 C30        -6.1800   -2.0520    1.3850 c3        1 656     -0.090100
     24 C40        -7.6730   -1.3070   -0.4700 c3        1 656     -0.090100
     25 HC2         6.1530    1.2700    0.4110 ha        1 656      0.116000
     26 HC3         4.2690    2.8500    0.5850 ha        1 656      0.142000
     27 HC6         3.4170   -2.0540   -0.3820 ha        1 656      0.144000
     28 HH11        7.0660   -0.5030    1.4180 hn        1 656      0.312200
     29 HH12        7.9210   -1.7960    0.6950 hn        1 656      0.312200
     30 HH21        6.7120   -3.0980   -1.0720 hn        1 656      0.312200
     31 HH22        5.2120   -2.4690   -1.6040 hn        1 656      0.312200
     32 HN3         1.3450    2.8530    0.4000 hn        1 656      0.307700
     33 HC2'       -0.5280    3.3430   -0.3800 ha        1 656      0.085000
     34 HC3'       -2.9100    3.9100   -0.4780 ha        1 656      0.112000
     35 HC4'       -4.6440    2.1670   -0.3350 ha        1 656      0.118000
     36 H10A       -5.6820    0.3070   -1.1150 h1        1 656      0.030200
     37 H10B       -5.7720    0.5050    0.7040 h1        1 656      0.030200
     38 H20        -5.7410   -2.2490   -0.7140 hc        1 656      0.067700
     39 H30A       -6.7040   -1.3680    2.0950 hc        1 656      0.034200
     40 H30B       -6.6650   -3.0560    1.4360 hc        1 656      0.034200
     41 H30C       -5.1130   -2.1480    1.7040 hc        1 656      0.034200
     42 H40A       -8.1780   -0.5410    0.1670 hc        1 656      0.034200
     43 H40B       -7.7100   -0.9650   -1.5320 hc        1 656      0.034200
     44 H40C       -8.2390   -2.2650   -0.3850 hc        1 656      0.034200
@<TRIPOS>BOND
     1    1    2 ar  
     2    1    6 ar  
     3    1    7 1   
     4    2    3 ar  
     5    2   25 1   
     6    3    4 ar  
     7    3   26 1   
     8    4    5 ar  
     9    4   10 2   
    10    5    6 ar  
    11    5   11 2   
    12    6   27 1   
    13    7    8 2   
    14    7    9 1   
    15    8   28 1   
    16    8   29 1   
    17    9   30 1   
    18    9   31 1   
    19   10   12 1   
    20   10   32 1   
    21   11   12 1   
    22   12   13 2   
    23   13   14 1   
    24   13   18 1   
    25   14   15 2   
    26   14   33 1   
    27   15   16 1   
    28   15   34 1   
    29   16   17 2   
    30   16   35 1   
    31   17   18 1   
    32   17   20 1   
    33   18   19 2   
    34   20   21 1   
    35   21   22 1   
    36   21   36 1   
    37   21   37 1   
    38   22   23 1   
    39   22   24 1   
    40   22   38 1   
    41   23   39 1   
    42   23   40 1   
    43   23   41 1   
    44   24   42 1   
    45   24   43 1   
    46   24   44 1   
@<TRIPOS>SUBSTRUCTURE
     1 656         1 TEMP              0 ****  ****    0 ROOT
