@<TRIPOS>MOLECULE
656
   44    36     1     0     0
SMALL
bcc


@<TRIPOS>ATOM
      1 C1          2.4450    0.0530   -4.8870 c1        1 656     -0.214000
      2 C2          1.3400    0.7720   -5.2750 c1        1 656     -0.130000
      3 C3          0.4340    1.2370   -4.3120 c1        1 656     -0.130000
      4 C4          0.6560    0.9680   -2.9480 c1        1 656      0.005500
      5 C5          1.7530    0.2550   -2.5640 c1        1 656      0.005500
      6 C6          2.6650   -0.2140   -3.5310 c1        1 656     -0.096000
      7 C7          3.7500   -0.0240   -5.7250 c2        1 656      0.352000
      8 N1          4.6010    1.0700   -5.7870 n3        1 656     -0.345000
      9 N2          4.0470   -1.1210   -6.3750 n2        1 656     -0.351000
     10 N3         -0.0460    1.2920   -1.8280 n1        1 656     -0.229000
     11 N4          1.7250    0.1400   -1.2070 n1        1 656     -0.229000
     12 C8          0.6150    0.7800   -0.7530 c2        1 656      0.203000
     13 C1'         0.4750    0.7590    0.6340 c1        1 656     -0.307000
     14 C2'         1.2020    1.6420    1.4170 c1        1 656     -0.130000
     15 C3'         1.0310    1.6500    2.7920 c1        1 656     -0.130000
     16 C4'         0.1340    0.7760    3.3830 c1        1 656     -0.069000
     17 C5'        -0.5960   -0.1100    2.5960 c1        1 656     -0.086000
     18 C6'        -0.4250   -0.1180    1.2270 c1        1 656      0.298000
     19 O6'        -1.1990   -0.9810    0.4280 o         1 656     -0.473000
     20 O5'        -1.4730   -1.0730    3.2180 os        1 656     -0.226000
     21 C10        -2.6170   -0.5010    3.8270 c3        1 656     -0.022000
     22 C20        -3.2520   -1.5280    4.8000 c3        1 656     -0.110000
     23 C30        -3.8790   -0.7970    5.9700 c3        1 656     -0.205000
     24 C40        -4.3350   -2.3390    4.0580 c3        1 656     -0.205000
     25 HC2         1.1870    0.9570   -6.2120 ha        1 656      0.128250
     26 HC3        -0.3620    1.7560   -4.5910 ha        1 656      0.128250
     27 HC6         3.4630   -0.7340   -3.2500 ha        1 656      0.139000
     28 HH11        5.3830    1.0050   -6.2520 hn        1 656      0.263000
     29 HH12        4.3060    1.8850   -5.5130 hn        1 656      0.263000
     30 HH21        3.4890   -1.8450   -6.3380 DU        1 656      0.291500
     31 HH22        4.8220   -1.1630   -6.8710 hn        1 656      0.246000
     32 HN3        -0.8300    1.7730   -1.8010 DU        1 656      0.291500
     33 HC2'        1.8380    2.2620    0.9970 ha        1 656      0.128250
     34 HC3'        1.5450    2.2740    3.3460 ha        1 656      0.128250
     35 HC4'        0.0130    0.7820    4.3590 ha        1 656      0.125000
     36 H10A       -3.2610   -0.2630    3.1440 h1        1 656      0.082000
     37 H10B       -2.3540    0.3070    4.3260 h1        1 656      0.082000
     38 H20        -2.5580   -2.1360    5.1300 hc        1 656      0.095000
     39 H30A       -3.1910   -0.2540    6.4270 hc        1 656      0.071833
     40 H30B       -4.2510   -1.4470    6.5960 hc        1 656      0.071833
     41 H30C       -4.5940   -0.2110    5.6440 hc        1 656      0.071833
     42 H40A       -3.9090   -2.9130    3.3800 hc        1 656      0.071833
     43 H40B       -4.9610   -1.7240    3.6180 hc        1 656      0.071833
     44 H40C       -4.8250   -2.9010    4.7040 hc        1 656      0.071833
@<TRIPOS>BOND
     1    1    6 1   
     2    1    7 1   
     3    2    3 1   
     4    2   25 1   
     5    3   26 1   
     6    4    5 1   
     7    6   27 1   
     8    7    8 1   
     9    7    9 1   
    10    8   28 1   
    11    8   29 1   
    12    9   31 1   
    13   10   12 1   
    14   11   12 1   
    15   12   13 1   
    16   13   18 1   
    17   14   15 1   
    18   14   33 1   
    19   15   34 1   
    20   16   17 1   
    21   16   35 1   
    22   17   20 1   
    23   18   19 1   
    24   20   21 1   
    25   21   22 1   
    26   21   36 1   
    27   21   37 1   
    28   22   23 1   
    29   22   24 1   
    30   22   38 1   
    31   23   39 1   
    32   23   40 1   
    33   23   41 1   
    34   24   42 1   
    35   24   43 1   
    36   24   44 1   
@<TRIPOS>SUBSTRUCTURE
     1 656         1 TEMP              0 ****  ****    0 ROOT
