@<TRIPOS>MOLECULE
659
   63    56     1     0     0
SMALL
bcc


@<TRIPOS>ATOM
      1 C1          1.7400   -1.3050   -0.1900 c3        1 659      0.125300
      2 C2          2.9440   -0.2080   -0.3510 c3        1 659      0.152600
      3 C3          3.5760   -0.1740    0.7850 c3        1 659      0.089100
      4 C4          3.3870   -1.5540    1.3960 c3        1 659      0.226800
      5 O5          2.2940   -2.2570    0.5600 os        1 659     -0.402600
      6 F6          3.8080   -0.6010   -1.3620 f         1 659     -0.222300
      7 O7          2.9740    0.8760    1.6790 oh        1 659     -0.585800
      8 C8          1.1720   -1.8150   -1.5310 c2        1 659     -0.172200
      9 C9         -4.7420    2.0480   -3.5470 c1        1 659      0.018600
     10 C10        -5.6900    2.8210   -2.9110 c1        1 659     -0.083500
     11 C11        -5.9120    2.6660   -1.5480 c1        1 659     -0.047500
     12 C12        -5.1810    1.7370   -0.8310 c1        1 659     -0.024000
     13 C13        -4.2320    0.9630   -1.4680 cg        1 659     -0.092200
     14 C14        -4.0110    1.1180   -2.8280 c1        1 659      0.124600
     15 C15        -6.9350    3.3720   -0.9260 c1        1 659     -0.047500
     16 C16        -6.6550    4.5560   -0.2750 c1        1 659     -0.069500
     17 C17        -7.6840    5.3050    0.2790 c1        1 659     -0.069500
     18 C18        -9.0040    4.8620    0.1790 c1        1 659      0.098100
     19 C19        -9.2870    3.6770   -0.4720 c1        1 659     -0.109500
     20 C20        -8.2540    2.9260   -1.0280 c1        1 659     -0.024000
     21 O21        -3.1140    0.3060   -3.4720 oh        1 659     -0.490600
     22 O22        -4.4860    2.2360   -4.9300 oh        1 659     -0.501600
     23 F23        -9.9940    5.5460    0.7950 f         1 659     -0.105100
     24 C24        -3.4110   -0.0630   -0.6660 c         1 659      0.628300
     25 N25        -2.4200   -0.8700   -1.3310 n         1 659     -0.534900
     26 O26        -3.5360   -0.1290    0.5370 o         1 659     -0.619100
     27 C27        -1.0870   -0.9430   -0.8030 c3        1 659      0.103200
     28 C28        -0.1640   -1.6440   -1.8200 c2        1 659     -0.174200
     29 N29         4.5250   -2.2400    1.3380 n3        1 659     -0.131400
     30 N30         5.8520   -3.9820    1.2250 ne        1 659     -0.398400
     31 C31         4.5980   -3.5250    0.9440 c1        1 659      0.193400
     32 C32         6.5540   -2.9630    1.7970 cg        1 659     -0.178000
     33 C33         5.7430   -1.8880    1.8690 c1        1 659      0.326500
     34 N34         6.1980   -0.7290    2.4220 n1        1 659     -0.557800
     35 C35         7.4840   -0.6550    2.9060 c1        1 659      0.407300
     36 N36         8.3090   -1.7480    2.8330 n1        1 659     -0.586800
     37 C37         7.8670   -2.8850    2.2920 c1        1 659      0.287800
     38 N38         8.4130   -4.1490    2.7430 n3        1 659     -0.716800
     39 C39         9.3250   -4.1860    3.8980 c3        1 659      0.204100
     40 H1          0.9450   -0.9200    0.2300 h1        1 659      0.129700
     41 H2          2.5690    0.6770   -0.5520 h1        1 659      0.097700
     42 H3          4.5410    0.0090    0.6370 h1        1 659      0.087700
     43 H4          3.0930   -1.4700    2.3290 h2        1 659      0.103700
     44 HO7         3.5440    1.5200    1.7920 ho        1 659      0.431000
     45 H8          1.7590   -2.2590   -2.1740 ha        1 659      0.140000
     46 H10        -6.1980    3.4660   -3.4100 ha        1 659      0.086500
     47 H12        -5.3360    1.6290    0.1220 ha        1 659      0.094500
     48 H16        -5.7200    4.8710   -0.2030 ha        1 659      0.093000
     49 H17        -7.4860    6.1330    0.7350 ha        1 659      0.093000
     50 H19       -10.2260    3.3610   -0.5430 ha        1 659      0.092500
     51 H20        -8.4510    2.0960   -1.4840 ha        1 659      0.094500
     52 HO21       -3.5310   -0.1570   -4.0960 ho        1 659      0.451000
     53 HO22       -3.8190    2.8240   -5.0330 ho        1 659      0.434000
     54 HN25       -2.6660   -1.4190   -1.9990 hn        1 659      0.319500
     55 H27        -1.0960   -1.4590    0.0470 h1        1 659      0.073200
     56 H27A       -0.7620   -0.0540   -0.6340 h1        1 659      0.073200
     57 H28        -0.5280   -1.9670   -2.6730 ha        1 659      0.126000
     58 H31         3.8630   -4.0580    0.6040 DU        1 659      0.215000
     59 H35         7.8060    0.1700    3.3000 ha        1 659      0.130500
     60 HN38        8.1450   -4.9220    2.3530 hn        1 659      0.451800
     61 H39         8.8140   -4.0410    4.7250 h1        1 659      0.046033
     62 H39A       10.0070   -3.4750    3.8030 h1        1 659      0.046033
     63 H39B        9.7660   -5.0560    3.9380 h1        1 659      0.046033
@<TRIPOS>BOND
     1    1    2 1   
     2    1    5 1   
     3    1    8 1   
     4    1   40 1   
     5    2    3 1   
     6    2    6 1   
     7    2   41 1   
     8    3    4 1   
     9    3    7 1   
    10    3   42 1   
    11    4    5 1   
    12    4   29 1   
    13    4   43 1   
    14    7   44 1   
    15    8   28 2   
    16    8   45 1   
    17    9   10 3   
    18    9   22 1   
    19   10   46 1   
    20   11   12 3   
    21   12   47 1   
    22   13   14 3   
    23   13   24 1   
    24   14   21 1   
    25   15   20 3   
    26   16   17 3   
    27   16   48 1   
    28   17   49 1   
    29   18   19 3   
    30   18   23 1   
    31   19   50 1   
    32   20   51 1   
    33   21   52 1   
    34   22   53 1   
    35   24   25 1   
    36   24   26 2   
    37   25   27 1   
    38   25   54 1   
    39   27   28 1   
    40   27   55 1   
    41   27   56 1   
    42   28   57 1   
    43   29   31 2   
    44   29   33 1   
    45   30   31 2   
    46   30   32 1   
    47   32   37 3   
    48   33   34 3   
    49   35   36 3   
    50   35   59 1   
    51   37   38 1   
    52   38   39 1   
    53   38   60 1   
    54   39   61 1   
    55   39   62 1   
    56   39   63 1   
@<TRIPOS>SUBSTRUCTURE
     1 659         1 TEMP              0 ****  ****    0 ROOT
