@<TRIPOS>MOLECULE
659
   64    62     1     0     0
SMALL
bcc


@<TRIPOS>ATOM
      1 C1         -2.0550    1.0710    1.4020 c3        1 659      0.101000
      2 C2          2.0610   -0.1940   -1.3250 c2        1 659     -0.228000
      3 C3          1.8710   -0.3050    0.0170 c2        1 659      0.021000
      4 C4         -0.5140   -0.1760    2.6350 c1        1 659      0.057000
      5 O5         -1.8200    0.2210    2.5360 os        1 659     -0.259000
      6 F6          2.3510   -1.2830   -2.0830 f         1 659     -0.144000
      7 O7          1.5790    0.8290    0.7080 oh        1 659     -0.257000
      8 C8         -1.9950    0.3470    0.1570 c1        1 659     -0.031000
      9 C9         -1.2470   -8.5080   -2.6100 ca        1 659     -0.010000
     10 C10        -1.0270   -8.4000   -1.2410 ca        1 659     -0.108000
     11 C11        -0.8680   -7.1260   -0.6590 ca        1 659      0.040000
     12 C12        -0.9330   -5.9850   -1.4650 ca        1 659     -0.055000
     13 C13        -1.1530   -6.0820   -2.8470 ca        1 659     -0.210000
     14 C14        -1.3130   -7.3540   -3.4300 ca        1 659      0.135000
     15 C15        -0.6440   -7.0080    0.7220 c1        1 659     -0.153000
     16 C16         1.2180  -12.2330    3.6080 c2        1 659     -0.527000
     17 C17         0.8860  -10.9820    3.4940 c1        1 659      0.130000
     18 C18         0.1810   -7.7490    4.0740 c2        1 659      0.044000
     19 C19        -0.2370   -6.7400    3.2720 c2        1 659     -0.160000
     20 C20        -0.4520   -6.9030    1.9020 c1        1 659     -0.054000
     21 O21        -1.5280   -7.4220   -4.7780 oh        1 659     -0.247000
     22 F23         0.3850   -7.5580    5.3910 f         1 659     -0.111000
     23 C24        -1.2140   -4.8890   -3.6880 c2        1 659      0.294000
     24 N25        -0.4740   -1.1550   -2.6070 nz        1 659     -0.061000
     25 O26        -1.0890   -3.7330   -3.2470 o         1 659     -0.439000
     26 C27        -1.8770   -0.9220   -2.1430 c3        1 659      0.015000
     27 C28        -1.9220   -0.2310   -0.8890 c1        1 659     -0.264000
     28 N29        -0.2850   -0.9360    3.7170 na        1 659     -0.218000
     29 N30        -0.5950   -2.0300    5.7310 n2        1 659     -0.091000
     30 C31        -1.1700   -1.3300    4.7850 c2        1 659     -0.044000
     31 C32         0.7810   -2.1790    5.3720 c2        1 659     -0.306000
     32 C33         1.0280   -1.4940    4.0570 c2        1 659      0.181000
     33 N34         2.0470   -1.3560    3.2860 n2        1 659     -0.295000
     34 C35         4.1530   -3.0570    5.4030 c1        1 659      0.233000
     35 N36         3.0220   -2.9620    5.7540 n2        1 659     -0.352000
     36 C37         1.7030   -2.8540    6.1720 c2        1 659      0.350000
     37 N38         1.3390   -3.4210    7.3720 n7        1 659     -0.306000
     38 C39         2.2280   -4.1480    8.2240 c3        1 659     -0.085000
     39 H1          0.0550   -0.2780   -2.6660 hn        1 659      0.264333
     40 H2         -3.0950    1.4680    1.5860 h1        1 659      0.144500
     41 H3          2.1240    0.7650   -1.8590 h4        1 659      0.163000
     42 H4          1.9180   -1.2580    0.5690 h4        1 659      0.164000
     43 HO7         1.2950    0.5640    1.6080 ho        1 659      0.278000
     44 H8         -1.3020    1.9090    1.3920 h1        1 659      0.144500
     45 H12        -0.8100   -4.9860   -1.0180 ha        1 659      0.147000
     46 H16         0.5620  -13.0030    4.0520 ha        1 659      0.202500
     47 H17         2.1870  -12.6460    3.2800 ha        1 659      0.202500
     48 H19         0.3880   -8.7870    3.7340 h4        1 659      0.197000
     49 H20        -0.4300   -5.7310    3.6780 ha        1 659      0.154000
     50 HO21       -1.6160   -8.3570   -5.0340 ho        1 659      0.261000
     51 HO22       -1.3590  -10.4220   -2.6180 ho        1 659      0.243000
     52 HN25       -1.3830   -5.0670   -4.7760 h4        1 659      0.133000
     53 H27        -0.4960   -1.6250   -3.5220 hn        1 659      0.264333
     54 H27A       -2.3700   -1.9420   -2.0620 hx        1 659      0.163500
     55 H28        -2.4100   -0.3210   -2.9410 hx        1 659      0.163500
     56 H31        -2.2290   -1.0310    4.7530 h5        1 659      0.218000
     57 H35         2.9010   -1.7620    3.5940 hn        1 659      0.179000
     58 HN38        3.0830   -3.5010    8.5600 h1        1 659      0.097333
     59 H39         0.3850   -3.3340    7.6500 hn        1 659      0.275000
     60 H39A        1.6560   -4.4890    9.1280 h1        1 659      0.097333
     61 H39B        2.6420   -5.0510    7.6980 h1        1 659      0.097333
     62 O22        -1.4150   -9.7070   -3.2700 oh        1 659     -0.264000
     63 H252        0.0190   -1.7780   -1.9530 hn        1 659      0.264333
     64 H10        -0.9760   -9.3010   -0.6110 ha        1 659      0.160000
@<TRIPOS>BOND
     1    1    5 1   
     2    1    8 1   
     3    1   40 1   
     4    1   44 1   
     5    2    3 1   
     6    2    6 1   
     7    2   41 1   
     8    3    7 1   
     9    3   42 1   
    10    4    5 1   
    11    4   28 1   
    12    7   43 1   
    13    8   27 1   
    14    9   10 1   
    15    9   14 1   
    16    9   62 1   
    17   10   11 1   
    18   10   64 1   
    19   11   12 1   
    20   11   15 1   
    21   12   13 1   
    22   12   45 1   
    23   13   14 1   
    24   13   23 1   
    25   14   21 1   
    26   15   20 1   
    27   16   17 1   
    28   16   46 1   
    29   16   47 1   
    30   18   19 1   
    31   18   22 1   
    32   18   48 1   
    33   19   20 1   
    34   19   49 1   
    35   21   50 1   
    36   23   25 1   
    37   23   52 1   
    38   24   26 1   
    39   24   39 1   
    40   24   53 1   
    41   24   63 1   
    42   26   27 1   
    43   26   54 1   
    44   26   55 1   
    45   28   30 1   
    46   28   32 1   
    47   29   30 1   
    48   29   31 1   
    49   30   56 1   
    50   31   32 1   
    51   31   36 1   
    52   32   33 1   
    53   33   57 1   
    54   34   35 1   
    55   35   36 1   
    56   36   37 1   
    57   37   38 1   
    58   37   59 1   
    59   38   58 1   
    60   38   60 1   
    61   38   61 1   
    62   51   62 1   
@<TRIPOS>SUBSTRUCTURE
     1 659         1 TEMP              0 ****  ****    0 ROOT
