@<TRIPOS>MOLECULE
659
   63    67     1     0     0
SMALL
bcc


@<TRIPOS>ATOM
      1 C1         -2.1510   -4.4810    0.1940 c3        1 659      0.143300
      2 C2         -3.4270   -4.5660   -0.6900 c3        1 659      0.151600
      3 C3         -4.1900   -3.2410   -0.4150 c3        1 659      0.090100
      4 C4         -3.4640   -2.6080    0.8140 c3        1 659      0.229800
      5 O5         -2.4080   -3.4900    1.2030 os        1 659     -0.403600
      6 F6         -3.1630   -4.7300   -2.0330 f         1 659     -0.220300
      7 O7         -5.5120   -3.5760   -0.0600 oh        1 659     -0.586800
      8 C8         -0.8920   -4.1960   -0.5500 c2        1 659     -0.196200
      9 C9          5.5980    0.8390    0.8640 ca        1 659      0.097100
     10 C10         4.7740    1.9540    0.7120 ca        1 659     -0.105000
     11 C11         3.4040    1.7760    0.4630 cp        1 659     -0.043000
     12 C12         2.8760    0.4860    0.3600 ca        1 659     -0.099000
     13 C13         3.6960   -0.6430    0.4920 ca        1 659     -0.186600
     14 C14         5.0620   -0.4710    0.7630 ca        1 659      0.119100
     15 C15         2.5390    2.9450    0.3110 cp        1 659     -0.048000
     16 C16         2.6820    4.0490    1.1630 ca        1 659     -0.087500
     17 C17         1.8660    5.1660    1.0240 ca        1 659     -0.171000
     18 C18         0.8900    5.1880    0.0110 ca        1 659      0.119900
     19 C19         0.7400    4.0870   -0.8520 ca        1 659     -0.171000
     20 C20         1.5620    2.9770   -0.6940 ca        1 659     -0.087500
     21 O21         5.9810   -1.4760    0.9170 oh        1 659     -0.524100
     22 F23         0.0870    6.2700   -0.1330 f         1 659     -0.143900
     23 C24         3.1370   -2.0190    0.3740 c         1 659      0.680700
     24 N25         2.1120   -2.2320   -0.5230 n         1 659     -0.554900
     25 O26         3.6180   -2.9740    1.0280 o         1 659     -0.638100
     26 C27         1.4950   -3.5190   -0.6940 c3        1 659      0.116200
     27 C28         0.2000   -3.7000    0.0370 c2        1 659     -0.170200
     28 N29        -2.9520   -1.2800    0.5600 na        1 659     -0.289000
     29 N30        -1.5170    0.5210    0.4630 nc        1 659     -0.557100
     30 C31        -1.6390   -0.7850    0.7400 cd        1 659      0.422700
     31 C32        -2.8030    0.9390    0.0860 ca        1 659     -0.222200
     32 C33        -3.7260   -0.1880    0.1400 ca        1 659      0.448800
     33 N34        -5.0560   -0.1030   -0.1660 nb        1 659     -0.760000
     34 C35        -5.4250    1.1520   -0.5160 ca        1 659      0.689900
     35 N36        -4.6870    2.2910   -0.6020 nb        1 659     -0.784000
     36 C37        -3.3450    2.2090   -0.3110 ca        1 659      0.754200
     37 N38        -2.5110    3.2980   -0.4350 nh        1 659     -0.852900
     38 C39        -3.0070    4.6230   -0.6530 c3        1 659      0.196100
     39 H1         -2.0280   -5.4390    0.7770 h1        1 659      0.094700
     40 H2         -4.0610   -5.4340   -0.3450 h1        1 659      0.095700
     41 H3         -4.1720   -2.5780   -1.3210 h1        1 659      0.090700
     42 H4         -4.1600   -2.5580    1.7070 h2        1 659      0.107700
     43 HO7        -6.0260   -2.7570   -0.0870 ho        1 659      0.434000
     44 H8         -0.9080   -4.4650   -1.6200 ha        1 659      0.147000
     45 H10         5.2090    2.9620    0.7870 ha        1 659      0.160000
     46 H12         1.7920    0.3740    0.2000 ha        1 659      0.147000
     47 H16         3.4450    4.0290    1.9580 ha        1 659      0.144000
     48 H17         1.9760    6.0310    1.6940 ha        1 659      0.152500
     49 H19        -0.0160    4.1180   -1.6510 ha        1 659      0.152500
     50 H20         1.4440    2.1150   -1.3710 ha        1 659      0.144000
     51 HO21        5.5220   -2.3170    1.0870 ho        1 659      0.471000
     52 HO22        7.3670    0.2130    1.2370 ho        1 659      0.443000
     53 HN25        1.6850   -1.4560   -0.9690 hn        1 659      0.319500
     54 H27         1.3380   -3.6770   -1.8020 h1        1 659      0.074700
     55 H27A        2.2100   -4.3140   -0.3220 h1        1 659      0.074700
     56 H28         0.2080   -3.4420    1.1100 ha        1 659      0.142000
     57 H31        -0.8360   -1.4560    1.0780 h5        1 659      0.084800
     58 H35        -6.5000    1.2790   -0.7700 h5        1 659      0.052100
     59 HN38       -1.5950    3.2030   -0.0540 hn        1 659      0.452800
     60 H39        -2.1300    5.3190   -0.7440 h1        1 659      0.050367
     61 H39A       -3.6100    4.6580   -1.5990 h1        1 659      0.050367
     62 H39B       -3.6610    4.9660    0.1950 h1        1 659      0.050367
     63 O22         6.9310    1.0700    1.1040 oh        1 659     -0.493100
@<TRIPOS>BOND
     1    1    2 1   
     2    1    5 1   
     3    1    8 1   
     4    1   39 1   
     5    2    3 1   
     6    2    6 1   
     7    2   40 1   
     8    3    4 1   
     9    3    7 1   
    10    3   41 1   
    11    4    5 1   
    12    4   28 1   
    13    4   42 1   
    14    7   43 1   
    15    8   27 2   
    16    8   44 1   
    17    9   10 ar  
    18    9   14 ar  
    19    9   63 1   
    20   10   11 ar  
    21   10   45 1   
    22   11   12 ar  
    23   11   15 1   
    24   12   13 ar  
    25   12   46 1   
    26   13   14 ar  
    27   13   23 1   
    28   14   21 1   
    29   15   16 ar  
    30   15   20 ar  
    31   16   17 ar  
    32   16   47 1   
    33   17   18 ar  
    34   17   48 1   
    35   18   19 ar  
    36   18   22 1   
    37   19   20 ar  
    38   19   49 1   
    39   20   50 1   
    40   21   51 1   
    41   23   24 1   
    42   23   25 2   
    43   24   26 1   
    44   24   53 1   
    45   26   27 1   
    46   26   54 1   
    47   26   55 1   
    48   27   56 1   
    49   28   30 1   
    50   28   32 1   
    51   29   30 2   
    52   29   31 1   
    53   30   57 1   
    54   31   32 ar  
    55   31   36 ar  
    56   32   33 ar  
    57   33   34 ar  
    58   34   35 ar  
    59   34   58 1   
    60   35   36 ar  
    61   36   37 1   
    62   37   38 1   
    63   37   59 1   
    64   38   60 1   
    65   38   61 1   
    66   38   62 1   
    67   52   63 1   
@<TRIPOS>SUBSTRUCTURE
     1 659         1 TEMP              0 ****  ****    0 ROOT
