@<TRIPOS>MOLECULE
659
   65    64     1     0     0
SMALL
bcc


@<TRIPOS>ATOM
      1 C1         -2.2000    0.3850    0.4790 c2        1 659      0.043000
      2 C2          2.4720   -3.4130    0.9010 c2        1 659     -0.145000
      3 C3          2.1870   -3.5660    2.2150 c2        1 659     -0.017000
      4 C4         -0.9670   -0.2270    2.3910 c1        1 659      0.169000
      5 O5         -1.7180    0.7010    1.7460 os        1 659     -0.227000
      6 F6          1.5110   -3.5780   -0.0430 f         1 659     -0.164000
      7 O7          3.0910   -3.3730    3.2180 oh        1 659     -0.251000
      8 C8         -2.1540   -0.7950   -0.1500 c2        1 659     -0.246000
      9 C9         -1.7210   -7.8800   -3.3110 ca        1 659      0.075000
     10 C10        -0.8760   -8.3620   -2.3140 ca        1 659     -0.060000
     11 C11        -0.1850   -7.4530   -1.4830 ca        1 659      0.095000
     12 C12        -0.3580   -6.0800   -1.6540 ca        1 659     -0.124000
     13 C13        -1.2230   -5.5730   -2.6480 ca        1 659     -0.214000
     14 C14        -1.8940   -6.4790   -3.4980 ca        1 659      0.099000
     15 C15         0.6760   -7.9420   -0.4910 c1        1 659     -0.209000
     16 C16         1.4510  -14.0390   -0.6690 c2        1 659     -0.513000
     17 C17         1.5840  -12.8290   -0.2170 c1        1 659      0.108000
     18 C18         2.5570  -10.1750    1.4900 c2        1 659      0.085000
     19 C19         2.2730   -8.8560    1.3400 c2        1 659     -0.202000
     20 C20         1.4140   -8.3810    0.3500 c1        1 659      0.009000
     21 O21        -2.7800   -6.1500   -4.4820 oh        1 659     -0.242000
     22 F23         3.3880  -10.6020    2.4540 f         1 659     -0.092000
     23 C24        -1.4430   -4.1520   -2.8330 c2        1 659      0.323000
     24 N25        -0.9450   -3.1920   -1.7700 n4        1 659     -0.108000
     25 O26        -2.0120   -3.5790   -3.7620 o         1 659     -0.239000
     26 C27        -1.8050   -3.2350   -0.5470 c3        1 659     -0.122000
     27 C28        -1.5730   -2.0460    0.3780 c3        1 659     -0.147000
     28 N29        -0.5660    0.2340    3.6170 na        1 659     -0.254000
     29 N30        -0.2510    1.6010    5.4620 n2        1 659     -0.211000
     30 C31        -0.8320    1.4650    4.2800 c2        1 659      0.108000
     31 C32         0.4950    0.4080    5.6960 c2        1 659     -0.022000
     32 C33         0.3220   -0.5280    4.4960 c2        1 659      0.127000
     33 N34         0.7740   -1.6860    4.2100 n2        1 659     -0.166000
     34 C35         2.5560   -1.9840    7.2410 c1        1 659      0.323000
     35 N36         1.9430   -0.9760    7.0590 n2        1 659     -0.376000
     36 C37         1.2330    0.1720    6.8250 c2        1 659      0.052000
     37 N38         1.2820    1.2130    7.8940 n4        1 659      0.010000
     38 C39         0.4060    0.8740    9.0440 c3        1 659     -0.194000
     39 H1         -0.4730   -1.9140    0.5930 hc        1 659      0.140500
     40 H2         -2.6620    1.3070    0.0740 h4        1 659      0.199000
     41 H3          3.4640   -3.1740    0.4880 h4        1 659      0.169000
     42 H4          1.2000   -3.8320    2.6280 h4        1 659      0.183000
     43 HO7         3.9820   -3.2820    2.8420 ho        1 659      0.232000
     44 H8         -2.6310   -0.8450   -1.1460 ha        1 659      0.151000
     45 H12         0.2240   -5.4100   -1.0010 ha        1 659      0.138000
     46 H16         2.0860  -14.4740   -1.4610 ha        1 659      0.208000
     47 H17         0.6960  -14.7550   -0.3010 ha        1 659      0.208000
     48 H19         2.1430  -10.9920    0.8530 h4        1 659      0.208000
     49 H20         2.7230   -8.0980    2.0050 ha        1 659      0.154000
     50 HO21       -2.5950   -5.2610   -4.8300 ho        1 659      0.264000
     51 HO22       -2.8740   -8.3470   -4.7770 ho        1 659      0.256000
     52 HN25       -0.9680   -2.2380   -2.1580 hn        1 659      0.260500
     53 H27        -2.8820   -3.2610   -0.8840 hx        1 659      0.152000
     54 H27A       -1.5710   -4.1970   -0.0050 hx        1 659      0.152000
     55 H28        -2.0530   -2.2980    1.3680 hc        1 659      0.140500
     56 H31        -1.4840    2.2290    3.8120 h5        1 659      0.248000
     57 H35         1.3980   -2.1380    4.8430 hn        1 659      0.209000
     58 HN38        0.7460   -0.0880    9.5140 hx        1 659      0.154667
     59 H39         2.2530    1.3210    8.2200 hn        1 659      0.272500
     60 H39A       -0.6530    0.7640    8.6880 hx        1 659      0.154667
     61 H39B        0.4680    1.7060    9.7990 hx        1 659      0.154667
     62 O22        -2.3720   -8.8050   -4.0800 oh        1 659     -0.217000
     63 H252        0.0270   -3.4160   -1.5180 hn        1 659      0.260500
     64 H382        0.9800    2.1150    7.4910 hn        1 659      0.272500
     65 H10        -0.7470   -9.4510   -2.1880 ha        1 659      0.194000
@<TRIPOS>BOND
     1    1    5 1   
     2    1    8 1   
     3    1   40 1   
     4    2    3 1   
     5    2    6 1   
     6    2   41 1   
     7    3    7 1   
     8    3   42 1   
     9    4    5 1   
    10    4   28 1   
    11    7   43 1   
    12    8   27 1   
    13    8   44 1   
    14    9   10 1   
    15    9   14 1   
    16    9   62 1   
    17   10   11 1   
    18   10   65 1   
    19   11   12 1   
    20   11   15 1   
    21   12   13 1   
    22   12   45 1   
    23   13   14 1   
    24   13   23 1   
    25   14   21 1   
    26   15   20 1   
    27   16   17 1   
    28   16   46 1   
    29   16   47 1   
    30   18   19 1   
    31   18   22 1   
    32   18   48 1   
    33   19   20 1   
    34   19   49 1   
    35   21   50 1   
    36   23   24 1   
    37   23   25 1   
    38   24   26 1   
    39   24   52 1   
    40   24   63 1   
    41   26   27 1   
    42   26   53 1   
    43   26   54 1   
    44   27   39 1   
    45   27   55 1   
    46   28   30 1   
    47   28   32 1   
    48   29   30 1   
    49   29   31 1   
    50   30   56 1   
    51   31   32 1   
    52   31   36 1   
    53   32   33 1   
    54   33   57 1   
    55   34   35 1   
    56   35   36 1   
    57   36   37 1   
    58   37   38 1   
    59   37   59 1   
    60   37   64 1   
    61   38   58 1   
    62   38   60 1   
    63   38   61 1   
    64   51   62 1   
@<TRIPOS>SUBSTRUCTURE
     1 659         1 TEMP              0 ****  ****    0 ROOT
