@<TRIPOS>MOLECULE
65B
   43    38     1     0     0
SMALL
bcc


@<TRIPOS>ATOM
      1 C1          0.6950    2.8550    0.7670 c1        1 65B      0.068000
      2 O17        -0.1820    2.9530   -0.3330 o         1 65B     -0.138000
      3 C2          2.0660    2.9530    0.5690 c2        1 65B     -0.050000
      4 C2'         2.6170    3.1300   -0.8300 c3        1 65B     -0.186000
      5 C3          2.9240    2.9790    1.6590 c1        1 65B     -0.097000
      6 C4          2.4120    2.9080    2.9460 c1        1 65B     -0.016000
      7 C5          1.0430    2.8110    3.1440 c1        1 65B     -0.089000
      8 C6          0.1840    2.7840    2.0550 c1        1 65B     -0.054000
      9 C6'        -1.3150    2.7800    2.2750 c3        1 65B     -0.180000
     10 C13        -0.3900    1.6690   -0.8850 c2        1 65B      0.244000
     11 N12        -0.0180    0.5770   -0.2010 n2        1 65B     -0.309000
     12 C11        -0.2920   -0.6650   -0.6960 c1        1 65B      0.230000
     13 N5          0.1380   -1.8240    0.0130 n2        1 65B     -0.239000
     14 N16        -0.9430   -0.7970   -1.8850 n2        1 65B     -0.302000
     15 C15        -1.3160    0.2940   -2.5720 c1        1 65B      0.249000
     16 N18        -2.0410    0.1560   -3.7830 n2        1 65B     -0.357000
     17 C14        -1.0430    1.5380   -2.0780 c2        1 65B     -0.417000
     18 C21        -0.4320   -3.0950   -0.2880 c2        1 65B      0.084000
     19 C22        -1.5240   -3.5530    0.4330 c2        1 65B     -0.174000
     20 C23        -2.0550   -4.8070    0.1680 c1        1 65B     -0.073000
     21 C24        -1.4930   -5.6030   -0.8200 c1        1 65B     -0.016000
     22 C25        -0.4020   -5.1450   -1.5420 c1        1 65B     -0.089000
     23 C26         0.1290   -3.8910   -1.2760 c1        1 65B     -0.120000
     24 C27        -2.0940   -6.9570   -1.1330 c1        1 65B     -0.096000
     25 N27        -2.5470   -7.9770   -1.3690 n1        1 65B     -0.036500
     26 C4'         3.3450    2.9850    4.1360 c1        1 65B     -0.096000
     27 N4'         4.0480    3.0430    5.0330 n1        1 65B     -0.036500
     28 BR         -1.7800    3.1810   -2.7200 br        1 65B      0.092000
     29 H2'1        3.4660    3.6190   -0.7870 hc        1 65B      0.095667
     30 H2'2        2.7660    2.2510   -1.2360 hc        1 65B      0.095667
     31 H2'3        1.9760    3.6360   -1.3720 hc        1 65B      0.095667
     32 H3          3.8880    3.0480    1.5200 ha        1 65B      0.150000
     33 H5          0.6830    2.7610    4.0510 ha        1 65B      0.148500
     34 H6'1       -1.5310    3.3110    3.0710 hc        1 65B      0.093333
     35 H6'2       -1.7610    3.1680    1.4930 hc        1 65B      0.093333
     36 H6'3       -1.6240    1.8580    2.4030 hc        1 65B      0.093333
     37 HN5         0.8070   -1.7590    0.6300 hn        1 65B      0.248000
     38 H181       -2.2830    0.8980   -4.2580 hn        1 65B      0.245000
     39 H182       -2.2710   -0.6760   -4.0860 hn        1 65B      0.245000
     40 H22        -1.9190   -2.9940    1.1290 ha        1 65B      0.142000
     41 H23        -2.8240   -5.1300    0.6770 ha        1 65B      0.148000
     42 H25        -0.0070   -5.7050   -2.2370 ha        1 65B      0.148500
     43 H26         0.8970   -3.5680   -1.7850 ha        1 65B      0.162000
@<TRIPOS>BOND
     1    1    3 1   
     2    1    8 1   
     3    2   10 1   
     4    3    4 1   
     5    3    5 1   
     6    4   29 1   
     7    4   30 1   
     8    4   31 1   
     9    5   32 1   
    10    6    7 1   
    11    6   26 1   
    12    7   33 1   
    13    8    9 1   
    14    9   34 1   
    15    9   35 1   
    16    9   36 1   
    17   10   11 1   
    18   10   17 1   
    19   11   12 1   
    20   12   14 1   
    21   13   18 1   
    22   13   37 1   
    23   14   15 1   
    24   15   17 1   
    25   16   38 1   
    26   16   39 1   
    27   17   28 1   
    28   18   19 1   
    29   18   23 1   
    30   19   20 1   
    31   19   40 1   
    32   20   41 1   
    33   21   22 1   
    34   21   24 1   
    35   22   42 1   
    36   23   43 1   
    37   24   25 1   
    38   26   27 1   
@<TRIPOS>SUBSTRUCTURE
     1 65B         1 TEMP              0 ****  ****    0 ROOT
