@<TRIPOS>MOLECULE
65B
   45    47     1     0     0
SMALL
bcc


@<TRIPOS>ATOM
      1 C1          0.0510   -0.1090    0.1340 ca        1 65B      0.045100
      2 O17        -0.5070    0.0560   -1.1540 os        1 65B     -0.297400
      3 C2          1.4480   -0.1820    0.2500 ca        1 65B     -0.046300
      4 C2'         2.3350   -0.1980   -0.9340 c3        1 65B     -0.058800
      5 C3          1.9950   -0.1980    1.5380 ca        1 65B     -0.095500
      6 C4          1.1610   -0.1460    2.6620 ca        1 65B      0.045000
      7 C5         -0.2300   -0.0650    2.5170 ca        1 65B     -0.095500
      8 C6         -0.8080   -0.0470    1.2430 ca        1 65B     -0.046300
      9 C6'        -2.2750    0.0780    1.0950 c3        1 65B     -0.058800
     10 C13        -0.8780   -1.0460   -1.8570 ca        1 65B      0.768600
     11 N12        -0.7300   -2.2910   -1.3560 nb        1 65B     -0.753000
     12 C11        -1.1390   -3.3490   -2.1570 ca        1 65B      0.971900
     13 N5         -0.9430   -4.6180   -1.6100 nh        1 65B     -0.857900
     14 N16        -1.6960   -3.2190   -3.4200 nb        1 65B     -0.820000
     15 C15        -1.8190   -1.9400   -3.8730 ca        1 65B      0.573200
     16 N18        -2.4060   -1.7850   -5.2270 n4        1 65B     -0.830300
     17 C14        -1.4400   -0.7850   -3.1720 ca        1 65B     -0.305500
     18 C21        -1.3410   -5.8530   -2.2200 c3        1 65B      0.216900
     19 C22        -0.1910   -6.7780   -2.4970 c2        1 65B      0.020800
     20 C23        -0.3110   -8.1340   -2.3780 ce        1 65B     -0.192000
     21 C24        -1.4940   -8.7160   -1.8500 ce        1 65B      0.271900
     22 C25        -2.5720   -7.8910   -1.4330 ce        1 65B     -0.192000
     23 C26        -2.4930   -6.5320   -1.5360 c2        1 65B      0.020800
     24 C27        -1.5850  -10.1210   -1.7080 c1        1 65B     -0.146900
     25 N27        -1.6610  -11.2790   -1.5910 n1        1 65B      0.215000
     26 C4'         1.7320   -0.1790    3.9650 cg        1 65B      0.194800
     27 N4'         2.1990   -0.2080    5.0300 n1        1 65B     -0.285800
     28 BR         -1.6420    0.9220   -3.8660 br        1 65B      0.065900
     29 H2'1        1.8310   -0.6810   -1.8060 hc        1 65B      0.057700
     30 H2'2        3.2840   -0.7490   -0.7160 hc        1 65B      0.057700
     31 H2'3        2.5990    0.8530   -1.2210 hc        1 65B      0.057700
     32 H3          3.0900   -0.2430    1.6640 ha        1 65B      0.171000
     33 H5         -0.8760   -0.0060    3.4090 ha        1 65B      0.171000
     34 H6'1       -2.5580    1.1620    1.0440 hc        1 65B      0.057700
     35 H6'2       -2.6270   -0.4180    0.1570 hc        1 65B      0.057700
     36 H6'3       -2.8070   -0.3810    1.9650 hc        1 65B      0.057700
     37 HN5        -0.5600   -4.6680   -0.6850 hn        1 65B      0.498800
     38 H181       -1.7230   -1.3060   -5.8320 hn        1 65B      0.485800
     39 H182       -2.6450   -2.6960   -5.6400 hn        1 65B      0.485800
     40 H22         0.7540   -6.3220   -2.8540 ha        1 65B      0.202500
     41 H23         0.5320   -8.7990   -2.6610 ha        1 65B      0.218500
     42 H25        -3.4700   -8.3690   -0.9880 ha        1 65B      0.218500
     43 H26        -3.3120   -5.8870   -1.1590 ha        1 65B      0.202500
     44 H52        -1.7620   -5.6630   -3.2850 h1        1 65B      0.186700
     45 H183       -3.2580   -1.2090   -5.1560 hn        1 65B      0.485800
@<TRIPOS>BOND
     1    1    2 1   
     2    1    3 ar  
     3    1    8 ar  
     4    2   10 1   
     5    3    4 1   
     6    3    5 ar  
     7    4   29 1   
     8    4   30 1   
     9    4   31 1   
    10    5    6 ar  
    11    5   32 1   
    12    6    7 ar  
    13    6   26 1   
    14    7    8 ar  
    15    7   33 1   
    16    8    9 1   
    17    9   34 1   
    18    9   35 1   
    19    9   36 1   
    20   10   11 ar  
    21   10   17 ar  
    22   11   12 ar  
    23   12   13 1   
    24   12   14 ar  
    25   13   18 1   
    26   13   37 1   
    27   14   15 ar  
    28   15   16 1   
    29   15   17 ar  
    30   16   38 1   
    31   16   39 1   
    32   16   45 1   
    33   17   28 1   
    34   18   19 1   
    35   18   23 1   
    36   18   44 1   
    37   19   20 2   
    38   19   40 1   
    39   20   21 1   
    40   20   41 1   
    41   21   22 1   
    42   21   24 2   
    43   22   23 2   
    44   22   42 1   
    45   23   43 1   
    46   24   25 2   
    47   26   27 3   
@<TRIPOS>SUBSTRUCTURE
     1 65B         1 TEMP              0 ****  ****    0 ROOT
