@<TRIPOS>MOLECULE
65B
   43    45     1     0     0
SMALL
bcc


@<TRIPOS>ATOM
      1 C1          0.0090   -0.0180    0.0620 ca        1 65B      0.113100
      2 O17        -0.6470    0.0330   -1.1750 os        1 65B     -0.353400
      3 C2          1.4150   -0.0410    0.0750 ca        1 65B     -0.059300
      4 C2'         2.1880   -0.1390   -1.1830 c3        1 65B     -0.057800
      5 C3          2.0690    0.0520    1.3070 ca        1 65B     -0.097500
      6 C4          1.3310    0.1610    2.4920 ca        1 65B     -0.007000
      7 C5         -0.0700    0.1800    2.4600 ca        1 65B     -0.097500
      8 C6         -0.7490    0.0870    1.2410 ca        1 65B     -0.059300
      9 C6'        -2.2280    0.1020    1.1980 c3        1 65B     -0.057800
     10 C13        -1.0750   -1.1610   -1.7340 ca        1 65B      0.742600
     11 N12        -0.8590   -2.3200   -1.0720 nb        1 65B     -0.835000
     12 C11        -1.3280   -3.4700   -1.6990 ca        1 65B      0.948900
     13 N5         -1.1660   -4.6590   -0.9640 nu        1 65B     -0.718300
     14 N16        -1.9450   -3.5130   -2.9260 nb        1 65B     -0.828000
     15 C15        -2.1470   -2.3110   -3.5660 ca        1 65B      0.770200
     16 N18        -2.7970   -2.3360   -4.7740 nv        1 65B     -0.959500
     17 C14        -1.7160   -1.0620   -2.9940 ca        1 65B     -0.407500
     18 C21        -1.3290   -5.9430   -1.5240 ca        1 65B      0.165600
     19 C22        -0.3050   -6.9050   -1.3550 ca        1 65B     -0.147000
     20 C23        -0.4700   -8.2010   -1.8250 ca        1 65B     -0.076500
     21 C24        -1.6540   -8.5690   -2.4790 ca        1 65B     -0.033000
     22 C25        -2.6760   -7.6250   -2.6460 ca        1 65B     -0.076500
     23 C26        -2.5230   -6.3270   -2.1700 ca        1 65B     -0.147000
     24 C27        -1.8180   -9.8930   -2.9670 cg        1 65B      0.234800
     25 N27        -1.9520  -10.9770   -3.3680 n1        1 65B     -0.363800
     26 C4'         2.0080    0.2510    3.7390 cg        1 65B      0.232800
     27 N4'         2.5630    0.3240    4.7590 n1        1 65B     -0.360800
     28 Br         -1.9980    0.5490   -3.8760 br        1 65B     -0.048100
     29 H2'1        2.2390    0.8640   -1.6770 hc        1 65B      0.055200
     30 H2'2        3.2300   -0.4940   -0.9900 hc        1 65B      0.055200
     31 H2'3        1.6920   -0.8490   -1.8920 hc        1 65B      0.055200
     32 H3          3.1690    0.0380    1.3420 ha        1 65B      0.149000
     33 H5         -0.6410    0.2680    3.3970 ha        1 65B      0.149000
     34 H6'1       -2.6100   -0.9180    0.9350 hc        1 65B      0.055200
     35 H6'2       -2.6600    0.4000    2.1840 hc        1 65B      0.055200
     36 H6'3       -2.5850    0.8190    0.4170 hc        1 65B      0.055200
     37 HN5        -0.5110   -4.6060   -0.2090 hn        1 65B      0.452800
     38 H181       -3.0320   -3.2000   -5.1990 hn        1 65B      0.449800
     39 H182       -2.8680   -1.5010   -5.3010 hn        1 65B      0.449800
     40 H22         0.6350   -6.6370   -0.8460 ha        1 65B      0.152000
     41 H23         0.3350   -8.9400   -1.6880 ha        1 65B      0.148000
     42 H25        -3.6110   -7.9110   -3.1520 ha        1 65B      0.148000
     43 H26        -3.3470   -5.6080   -2.3030 ha        1 65B      0.152000
@<TRIPOS>BOND
     1    1    2 1   
     2    1    3 ar  
     3    1    8 ar  
     4    2   10 1   
     5    3    4 1   
     6    3    5 ar  
     7    4   29 1   
     8    4   30 1   
     9    4   31 1   
    10    5    6 ar  
    11    5   32 1   
    12    6    7 ar  
    13    6   26 1   
    14    7    8 ar  
    15    7   33 1   
    16    8    9 1   
    17    9   34 1   
    18    9   35 1   
    19    9   36 1   
    20   10   11 ar  
    21   10   17 ar  
    22   11   12 ar  
    23   12   13 1   
    24   12   14 ar  
    25   13   18 1   
    26   13   37 1   
    27   14   15 ar  
    28   15   16 1   
    29   15   17 ar  
    30   16   38 1   
    31   16   39 1   
    32   17   28 1   
    33   18   19 ar  
    34   18   23 ar  
    35   19   20 ar  
    36   19   40 1   
    37   20   21 ar  
    38   20   41 1   
    39   21   22 ar  
    40   21   24 1   
    41   22   23 ar  
    42   22   42 1   
    43   23   43 1   
    44   24   25 3   
    45   26   27 3   
@<TRIPOS>SUBSTRUCTURE
     1 65B         1 TEMP              0 ****  ****    0 ROOT
