@<TRIPOS>MOLECULE
65B
   43    45     1     0     0
SMALL
bcc


@<TRIPOS>ATOM
      1 C1          0.0720   -0.0310    0.0180 ca        1 65B      0.113100
      2 O17        -0.6090    0.0120   -1.2060 os        1 65B     -0.353400
      3 C2          1.4770   -0.0540    0.0020 ca        1 65B     -0.059300
      4 C2'         2.2250   -0.1600   -1.2700 c3        1 65B     -0.057800
      5 C3          2.1560    0.0470    1.2200 ca        1 65B     -0.097500
      6 C4          1.4420    0.1630    2.4190 ca        1 65B     -0.007000
      7 C5          0.0420    0.1820    2.4150 ca        1 65B     -0.097500
      8 C6         -0.6620    0.0820    1.2110 ca        1 65B     -0.059300
      9 C6'        -2.1420    0.0960    1.1980 c3        1 65B     -0.057800
     10 C13        -1.0480   -1.1850   -1.7480 ca        1 65B      0.742600
     11 N12        -0.8210   -2.3390   -1.0830 nb        1 65B     -0.835000
     12 C11        -1.3020   -3.4930   -1.6930 ca        1 65B      0.948900
     13 N5         -1.1270   -4.6780   -0.9540 nh        1 65B     -0.718300
     14 N16        -1.9440   -3.5440   -2.9070 nb        1 65B     -0.828000
     15 C15        -2.1580   -2.3460   -3.5500 ca        1 65B      0.770200
     16 N18        -2.8330   -2.3790   -4.7450 nh        1 65B     -0.959500
     17 C14        -1.7150   -1.0940   -2.9960 ca        1 65B     -0.407500
     18 C21        -1.3020   -5.9660   -1.5010 ca        1 65B      0.165600
     19 C22        -0.2750   -6.9270   -1.3470 ca        1 65B     -0.147000
     20 C23        -0.4500   -8.2260   -1.8050 ca        1 65B     -0.076500
     21 C24        -1.6470   -8.5980   -2.4330 ca        1 65B     -0.033000
     22 C25        -2.6710   -7.6540   -2.5850 ca        1 65B     -0.076500
     23 C26        -2.5090   -6.3530   -2.1210 ca        1 65B     -0.147000
     24 C27        -1.8210   -9.9240   -2.9090 cg        1 65B      0.234800
     25 N27        -1.9640  -11.0110   -3.3000 n1        1 65B     -0.363800
     26 C4'         2.1450    0.2610    3.6520 cg        1 65B      0.232800
     27 N4'         2.7200    0.3410    4.6600 n1        1 65B     -0.360800
     28 BR         -2.0140    0.5110   -3.8820 br        1 65B     -0.048100
     29 H2'1        2.2650    0.8400   -1.7720 hc        1 65B      0.055200
     30 H2'2        3.2710   -0.5120   -1.0960 hc        1 65B      0.055200
     31 H2'3        1.7150   -0.8740   -1.9640 hc        1 65B      0.055200
     32 H3          3.2570    0.0340    1.2330 ha        1 65B      0.149000
     33 H5         -0.5100    0.2760    3.3630 ha        1 65B      0.149000
     34 H6'1       -2.5290   -0.9260    0.9530 hc        1 65B      0.055200
     35 H6'2       -2.5530    0.4040    2.1900 hc        1 65B      0.055200
     36 H6'3       -2.5150    0.8060    0.4180 hc        1 65B      0.055200
     37 HN5        -0.4560   -4.6210   -0.2120 hn        1 65B      0.452800
     38 H181       -3.0760   -3.2450   -5.1600 hn        1 65B      0.449800
     39 H182       -2.9140   -1.5480   -5.2770 hn        1 65B      0.449800
     40 H22         0.6750   -6.6570   -0.8590 ha        1 65B      0.152000
     41 H23         0.3570   -8.9640   -1.6790 ha        1 65B      0.148000
     42 H25        -3.6170   -7.9430   -3.0700 ha        1 65B      0.148000
     43 H26        -3.3340   -5.6340   -2.2420 ha        1 65B      0.152000
@<TRIPOS>BOND
     1    1    2 1   
     2    1    3 ar  
     3    1    8 ar  
     4    2   10 1   
     5    3    4 1   
     6    3    5 ar  
     7    4   29 1   
     8    4   30 1   
     9    4   31 1   
    10    5    6 ar  
    11    5   32 1   
    12    6    7 ar  
    13    6   26 1   
    14    7    8 ar  
    15    7   33 1   
    16    8    9 1   
    17    9   34 1   
    18    9   35 1   
    19    9   36 1   
    20   10   11 ar  
    21   10   17 ar  
    22   11   12 ar  
    23   12   13 1   
    24   12   14 ar  
    25   13   18 1   
    26   13   37 1   
    27   14   15 ar  
    28   15   16 1   
    29   15   17 ar  
    30   16   38 1   
    31   16   39 1   
    32   17   28 1   
    33   18   19 ar  
    34   18   23 ar  
    35   19   20 ar  
    36   19   40 1   
    37   20   21 ar  
    38   20   41 1   
    39   21   22 ar  
    40   21   24 1   
    41   22   23 ar  
    42   22   42 1   
    43   23   43 1   
    44   24   25 3   
    45   26   27 3   
@<TRIPOS>SUBSTRUCTURE
     1 65B         1 TEMP              0 ****  ****    0 ROOT
