@<TRIPOS>MOLECULE
65B
   43    45     1     0     0
SMALL
bcc


@<TRIPOS>ATOM
      1 C1         -2.9780    0.4990   -0.0330 ca        1 65B      0.113100
      2 O17        -2.4010   -0.7780   -0.0750 os        1 65B     -0.353400
      3 C2         -3.3020    1.1290   -1.2460 ca        1 65B     -0.059300
      4 C2'        -2.9280    0.5250   -2.5450 c3        1 65B     -0.057800
      5 C3         -4.0060    2.3360   -1.2000 ca        1 65B     -0.097500
      6 C4         -4.3710    2.8940    0.0320 ca        1 65B     -0.007000
      7 C5         -4.0380    2.2520    1.2310 ca        1 65B     -0.097500
      8 C6         -3.3330    1.0450    1.2130 ca        1 65B     -0.059300
      9 C6'        -2.9730    0.3610    2.4750 c3        1 65B     -0.057800
     10 C13        -1.0190   -0.8680   -0.0140 ca        1 65B      0.742600
     11 N12        -0.2830    0.2600    0.0970 nb        1 65B     -0.835000
     12 C11         1.0950    0.0790    0.1620 ca        1 65B      0.948900
     13 N5          1.8440    1.2550    0.3540 nh        1 65B     -0.718300
     14 N16         1.7430   -1.1300    0.0870 nb        1 65B     -0.828000
     15 C15         0.9570   -2.2550   -0.0230 ca        1 65B      0.770200
     16 N18         1.5910   -3.4710   -0.0590 nh        1 65B     -0.959500
     17 C14        -0.4790   -2.1770   -0.0800 ca        1 65B     -0.407500
     18 C21         3.2420    1.3190    0.1830 ca        1 65B      0.165600
     19 C22         3.7910    2.3250   -0.6480 ca        1 65B     -0.147000
     20 C23         5.1670    2.4620   -0.7730 ca        1 65B     -0.076500
     21 C24         6.0290    1.6010   -0.0800 ca        1 65B     -0.033000
     22 C25         5.4940    0.6060    0.7490 ca        1 65B     -0.076500
     23 C26         4.1170    0.4660    0.8880 ca        1 65B     -0.147000
     24 C27         7.4360    1.7380   -0.2160 cg        1 65B      0.234800
     25 N27         8.5880    1.8500   -0.3280 n1        1 65B     -0.363800
     26 C4'        -5.0840    4.1240    0.0650 cg        1 65B      0.232800
     27 N4'        -5.6670    5.1300    0.0920 n1        1 65B     -0.360800
     28 BR         -1.5210   -3.7080   -0.2300 br        1 65B     -0.048100
     29 H2'1       -3.6530   -0.2870   -2.8080 hc        1 65B      0.055200
     30 H2'2       -2.9350    1.2870   -3.3620 hc        1 65B      0.055200
     31 H2'3       -1.9070    0.0710   -2.4840 hc        1 65B      0.055200
     32 H3         -4.2730    2.8480   -2.1380 ha        1 65B      0.149500
     33 H5         -4.3310    2.6980    2.1940 ha        1 65B      0.149500
     34 H6'1       -1.8690    0.4390    2.6470 hc        1 65B      0.055200
     35 H6'2       -3.5010    0.8160    3.3480 hc        1 65B      0.055200
     36 H6'3       -3.2400   -0.7240    2.4180 hc        1 65B      0.055200
     37 HN5         1.3540    2.1070    0.1620 hn        1 65B      0.452800
     38 H181        2.5800   -3.5210   -0.0900 hn        1 65B      0.449800
     39 H182        1.0590   -4.2870   -0.2370 hn        1 65B      0.449800
     40 H22         3.1320    3.0110   -1.2030 ha        1 65B      0.152000
     41 H23         5.5810    3.2490   -1.4230 ha        1 65B      0.148000
     42 H25         6.1670   -0.0680    1.3020 ha        1 65B      0.148000
     43 H26         3.7240   -0.3160    1.5560 ha        1 65B      0.152000
@<TRIPOS>BOND
     1    1    2 1   
     2    1    3 ar  
     3    1    8 ar  
     4    2   10 1   
     5    3    4 1   
     6    3    5 ar  
     7    4   29 1   
     8    4   30 1   
     9    4   31 1   
    10    5    6 ar  
    11    5   32 1   
    12    6    7 ar  
    13    6   26 1   
    14    7    8 ar  
    15    7   33 1   
    16    8    9 1   
    17    9   34 1   
    18    9   35 1   
    19    9   36 1   
    20   10   11 ar  
    21   10   17 ar  
    22   11   12 ar  
    23   12   13 1   
    24   12   14 ar  
    25   13   18 1   
    26   13   37 1   
    27   14   15 ar  
    28   15   16 1   
    29   15   17 ar  
    30   16   38 1   
    31   16   39 1   
    32   17   28 1   
    33   18   19 ar  
    34   18   23 ar  
    35   19   20 ar  
    36   19   40 1   
    37   20   21 ar  
    38   20   41 1   
    39   21   22 ar  
    40   21   24 1   
    41   22   23 ar  
    42   22   42 1   
    43   23   43 1   
    44   24   25 3   
    45   26   27 3   
@<TRIPOS>SUBSTRUCTURE
     1 65B         1 TEMP              0 ****  ****    0 ROOT
