@<TRIPOS>MOLECULE
662
   73    77     1     0     0
SMALL
bcc


@<TRIPOS>ATOM
      1 N1         -1.1130    0.4780   -1.7950 na        1 662     -0.274000
      2 C2         -2.1750    0.4680   -2.7840 c3        1 662      0.204800
      3 C3         -2.7700   -0.9180   -3.1890 c3        1 662      0.125100
      4 C4         -0.6970   -0.5180   -0.8880 ca        1 662      0.465800
      5 C5         -0.0030    0.1930    0.1870 ca        1 662     -0.268200
      6 N6         -0.0330    1.5770   -0.0570 nc        1 662     -0.582100
      7 C7         -2.4440    0.2590    4.7760 ca        1 662     -0.193600
      8 C8         -4.1820   -0.9430   -2.5630 c3        1 662     -0.086700
      9 C9         -0.6950    1.7120   -1.2110 cd        1 662      0.434700
     10 O10        -3.2780    1.2480   -2.2970 os        1 662     -0.416600
     11 O11        -2.9330   -0.9240   -4.5940 oh        1 662     -0.578800
     12 C12        -2.7440   -2.0900    5.3430 ca        1 662      0.056100
     13 C13        -2.4140   -1.0930    4.3930 ca        1 662      0.153100
     14 C14        -4.4100   -2.1870   -1.7480 c3        1 662     -0.095100
     15 C15        -4.3140    0.3850   -1.7960 c3        1 662      0.154300
     16 C16        -2.8120    0.5880    6.0980 ca        1 662     -0.063000
     17 C17        -2.0720    1.3880    3.9230 c         1 662      0.584700
     18 C18         0.6080   -0.5890    1.2230 ca        1 662      0.705200
     19 N19        -0.7990   -1.8770   -0.9230 nb        1 662     -0.723000
     20 O20        -2.6800   -3.3810    4.8720 oh        1 662     -0.506100
     21 C21        -3.1470   -0.3980    7.0270 cp        1 662     -0.002000
     22 N22         0.4800   -1.9520    1.1760 nb        1 662     -0.766000
     23 C23        -3.1080   -1.7500    6.6440 ca        1 662     -0.109000
     24 C24        -0.1930   -2.4880    0.1220 ca        1 662      0.683900
     25 C25        -3.5310   -0.0320    8.3870 cp        1 662     -0.095000
     26 C26        -4.2390    0.2790   -0.3050 c2        1 662     -0.098200
     27 O27        -1.7330    2.5060    4.3000 o         1 662     -0.445100
     28 N28        -2.1110    1.2320    2.4250 ny        1 662     -0.665800
     29 C29        -3.5800    1.1730    0.4410 c2        1 662     -0.251200
     30 C30        -4.5950   -0.6900    9.0230 ca        1 662     -0.083500
     31 C31        -2.8400    0.9790    9.0700 ca        1 662     -0.083500
     32 N32         1.2090    0.0670    2.2970 nu        1 662     -0.839900
     33 O33        -2.0910   -1.4280    3.1040 oh        1 662     -0.535100
     34 C34        -4.2690    0.6680   10.9960 ca        1 662      0.158900
     35 C35        -3.1980    1.3320   10.3660 ca        1 662     -0.163000
     36 C36        -4.9700   -0.3470   10.3160 ca        1 662     -0.163000
     37 F37        -4.6250    1.0060   12.2540 f         1 662     -0.119900
     38 C38        -3.5210    1.1190    1.9260 c3        1 662      0.169000
     39 C39         2.0400   -0.6900    3.2160 c3        1 662      0.181800
     40 C40         2.8090    0.2050    4.1880 c3        1 662     -0.092400
     41 C41         3.6250   -0.6440    5.1290 c3        1 662     -0.096100
     42 H2         -1.7960    1.0330   -3.6900 h2        1 662      0.123700
     43 H3         -2.1490   -1.7900   -2.8630 h1        1 662      0.103700
     44 H8         -4.9310   -0.9240   -3.4080 hc        1 662      0.104700
     45 H9         -0.9040    2.6640   -1.7210 h5        1 662      0.094800
     46 HO11       -2.1110   -1.2520   -4.9800 ho        1 662      0.420000
     47 H14        -3.6620   -2.2820   -0.9250 hc        1 662      0.049700
     48 H14A       -5.4370   -2.1810   -1.3060 hc        1 662      0.049700
     49 H14B       -4.3200   -3.0880   -2.4050 hc        1 662      0.049700
     50 H15        -5.2750    0.9120   -2.0670 h1        1 662      0.108700
     51 H16        -2.8310    1.6510    6.3980 ha        1 662      0.174000
     52 HO20       -2.7720   -3.9870    5.6240 ho        1 662      0.453000
     53 H23        -3.3580   -2.5370    7.3750 ha        1 662      0.168000
     54 H24        -0.2420   -3.6010    0.1170 h5        1 662      0.068100
     55 H26        -4.7980   -0.5610    0.1400 ha        1 662      0.147000
     56 HN28       -1.6610    2.0540    1.9960 hn        1 662      0.477800
     57 H29        -3.0640    2.0280   -0.0360 ha        1 662      0.159000
     58 H30        -5.1490   -1.4790    8.4910 ha        1 662      0.140000
     59 H31        -1.9970    1.4950    8.5840 ha        1 662      0.140000
     60 HN32        1.5830    0.9650    2.0540 hn        1 662      0.432800
     61 HO33       -1.8350   -2.3690    3.0780 ho        1 662      0.483000
     62 H35        -2.6540    2.1220   10.9060 ha        1 662      0.164000
     63 H36        -5.8070   -0.8580   10.8150 ha        1 662      0.164000
     64 H38        -4.1050    1.9840    2.3600 hx        1 662      0.104700
     65 H38A       -3.9400    0.1510    2.3270 hx        1 662      0.104700
     66 H39         2.7790   -1.3350    2.6570 h1        1 662      0.060200
     67 H39A        1.3650   -1.3800    3.7980 h1        1 662      0.060200
     68 H40         3.4870    0.8960    3.6210 hc        1 662      0.048700
     69 H40A        2.0960    0.8420    4.7750 hc        1 662      0.048700
     70 H41         4.3600   -1.2670    4.5640 hc        1 662      0.045033
     71 H41A        4.1880    0.0090    5.8390 hc        1 662      0.045033
     72 H41B        2.9670   -1.3250    5.7210 hc        1 662      0.045033
     73 H282       -1.5770    0.3930    2.1450 hn        1 662      0.477800
@<TRIPOS>BOND
     1    1    2 1   
     2    1    4 1   
     3    1    9 1   
     4    2    3 1   
     5    2   10 1   
     6    2   42 1   
     7    3    8 1   
     8    3   11 1   
     9    3   43 1   
    10    4    5 ar  
    11    4   19 ar  
    12    5    6 1   
    13    5   18 ar  
    14    6    9 2   
    15    7   13 ar  
    16    7   16 ar  
    17    7   17 1   
    18    8   14 1   
    19    8   15 1   
    20    8   44 1   
    21    9   45 1   
    22   10   15 1   
    23   11   46 1   
    24   12   13 ar  
    25   12   20 1   
    26   12   23 ar  
    27   13   33 1   
    28   14   47 1   
    29   14   48 1   
    30   14   49 1   
    31   15   26 1   
    32   15   50 1   
    33   16   21 ar  
    34   16   51 1   
    35   17   27 2   
    36   17   28 1   
    37   18   22 ar  
    38   18   32 1   
    39   19   24 ar  
    40   20   52 1   
    41   21   23 ar  
    42   21   25 1   
    43   22   24 ar  
    44   23   53 1   
    45   24   54 1   
    46   25   30 ar  
    47   25   31 ar  
    48   26   29 2   
    49   26   55 1   
    50   28   38 1   
    51   28   56 1   
    52   28   73 1   
    53   29   38 1   
    54   29   57 1   
    55   30   36 ar  
    56   30   58 1   
    57   31   35 ar  
    58   31   59 1   
    59   32   39 1   
    60   32   60 1   
    61   33   61 1   
    62   34   35 ar  
    63   34   36 ar  
    64   34   37 1   
    65   35   62 1   
    66   36   63 1   
    67   38   64 1   
    68   38   65 1   
    69   39   40 1   
    70   39   66 1   
    71   39   67 1   
    72   40   41 1   
    73   40   68 1   
    74   40   69 1   
    75   41   70 1   
    76   41   71 1   
    77   41   72 1   
@<TRIPOS>SUBSTRUCTURE
     1 662         1 TEMP              0 ****  ****    0 ROOT
