@<TRIPOS>MOLECULE
662
   72    62     1     0     0
SMALL
bcc


@<TRIPOS>ATOM
      1 N1          2.2590   -3.1430    1.8030 n2        1 662     -0.205000
      2 C2          1.6770   -3.5420    0.5640 c2        1 662      0.129000
      3 C3          0.6890   -4.7850    0.7980 c3        1 662      0.012000
      4 C4          2.9960   -1.9900    1.7900 c1        1 662      0.011000
      5 C5          3.7650   -1.9760    2.8960 c1        1 662     -0.235000
      6 N6          3.5100   -3.1150    3.5980 n1        1 662     -0.179500
      7 C7         -2.9560    2.3900   -2.3790 c1        1 662     -0.122000
      8 C8         -0.4160   -4.3020    1.2290 c3        1 662     -0.127000
      9 C9          2.5790   -3.8290    2.9150 c1        1 662      0.011000
     10 O10         0.9820   -2.5980    0.0970 os        1 662     -0.262000
     11 O11         0.4640   -5.4980   -0.4810 oh        1 662     -0.318000
     12 C12        -5.2450    3.0760   -2.1310 c1        1 662     -0.010000
     13 C13        -4.0700    2.6040   -1.5740 c1        1 662      0.095000
     14 C14        -0.4150   -4.2650    2.8550 c3        1 662     -0.204000
     15 C15        -0.4950   -2.8340    0.6480 c3        1 662      0.053000
     16 C16        -3.0220    2.6480   -3.7360 c1        1 662     -0.081500
     17 C17        -1.8440    1.5240   -1.8520 c2        1 662      0.348000
     18 C18         4.6910   -0.9600    3.0810 c1        1 662      0.240000
     19 N19         3.1310   -1.0000    0.8470 n1        1 662     -0.179500
     20 O20        -6.3600    3.3340   -1.3100 oh        1 662     -0.272000
     21 C21        -4.2040    3.1220   -4.2950 c1        1 662     -0.046500
     22 N22         4.8210    0.0170    2.1470 n1        1 662     -0.267000
     23 C23        -5.3120    3.3350   -3.4940 c1        1 662     -0.142000
     24 C24         4.0430   -0.0010    1.0290 c1        1 662      0.025000
     25 C25        -4.3460    3.5450   -5.6190 c1        1 662     -0.046500
     26 C26        -0.9190   -1.8860    1.5760 c2        1 662     -0.190000
     27 O27        -0.8650    1.3210   -2.5290 o         1 662     -0.362000
     28 N28        -1.9270    0.9750   -0.5280 n         1 662     -0.350000
     29 C29        -1.4910   -0.7170    1.1530 c1        1 662     -0.169000
     30 C30        -4.7510    2.6180   -6.5750 c1        1 662     -0.127000
     31 C31        -4.2920    4.9020   -5.9410 c1        1 662     -0.081500
     32 N32         5.4810   -0.9070    4.2550 n3        1 662     -0.303000
     33 O33        -4.6900    2.3880   -0.3360 oh        1 662     -0.262000
     34 C34        -5.0480    4.4020   -8.1760 c1        1 662      0.096000
     35 C35        -4.6420    5.3300   -7.2170 c1        1 662     -0.166000
     36 C36        -5.1020    3.0430   -7.8530 c1        1 662     -0.127000
     37 F37        -5.2810    4.7990   -9.4350 f         1 662     -0.103000
     38 C38        -1.6610   -0.4520   -0.3100 c2        1 662     -0.017000
     39 C39         6.3610    0.1890    4.4680 c3        1 662     -0.020000
     40 C40         6.9400    0.1250    5.9370 c3        1 662     -0.175000
     41 C41         7.7510    1.4360    6.2390 c3        1 662     -0.210000
     42 H2          2.3840   -3.7910   -0.0750 h4        1 662      0.142000
     43 H3          1.0740   -5.4040    1.4700 h1        1 662      0.113000
     44 H8         -1.1560   -4.8250    0.9080 hc        1 662      0.127000
     45 H9          2.1730   -4.6620    3.2070 DU        1 662      0.218000
     46 HO11        0.7940   -6.3230   -0.4210 ho        1 662      0.226000
     47 H14         0.3320   -4.7780    3.1890 hc        1 662      0.083333
     48 H14A       -1.2760   -4.6640    3.2010 hc        1 662      0.083333
     49 H14B       -0.3380   -3.3370    3.1620 hc        1 662      0.083333
     50 H15        -1.1510   -2.7510   -0.0340 h1        1 662      0.123000
     51 H16        -2.2290    2.4960   -4.3100 ha        1 662      0.152500
     52 HO20       -6.4500    4.2120   -1.1990 ho        1 662      0.234000
     53 H23        -6.1500    3.6720   -3.8920 ha        1 662      0.144000
     54 H24         4.1390    0.7200    0.3410 ha        1 662      0.186000
     55 H26        -0.8090   -2.0550    2.5220 ha        1 662      0.135000
     56 HN28       -2.1480    1.5250    0.1930 hn        1 662      0.232000
     57 H29        -1.7780   -0.0760    1.7860 ha        1 662      0.136000
     58 H30        -4.7880    1.6480   -6.3450 ha        1 662      0.148000
     59 H31        -4.0070    5.5560   -5.2650 ha        1 662      0.152500
     60 HN32        5.4860   -1.6160    4.8330 hn        1 662      0.251000
     61 HO33       -4.0780    2.4080    0.3080 ho        1 662      0.249000
     62 H35        -4.6020    6.3180   -7.4510 ha        1 662      0.151000
     63 H36        -5.3850    2.3950   -8.5200 ha        1 662      0.148000
     64 H38        -0.8460   -0.7050   -0.7830 h4        1 662      0.114000
     65 H38A       -2.4270   -0.9890   -0.6580 h4        1 662      0.114000
     66 H39         5.8710    1.0290    4.3480 h1        1 662      0.094000
     67 H39A        7.1030    0.1450    3.8190 h1        1 662      0.094000
     68 H40         6.1850    0.0410    6.5900 hc        1 662      0.086500
     69 H40A        7.5180   -0.6340    6.0180 hc        1 662      0.086500
     70 H41         7.1680    2.2110    6.1260 hc        1 662      0.078333
     71 H41A        8.5220    1.5040    5.6090 hc        1 662      0.078333
     72 H41B        8.0860    1.4100    7.1700 hc        1 662      0.078333
@<TRIPOS>BOND
     1    1    4 1   
     2    1    9 1   
     3    2    3 1   
     4    2   10 1   
     5    2   42 1   
     6    3    8 1   
     7    3   11 1   
     8    3   43 1   
     9    4   19 1   
    10    5   18 1   
    11    6    9 1   
    12    7   13 1   
    13    7   17 1   
    14    8   14 1   
    15    8   15 1   
    16    8   44 1   
    17   10   15 1   
    18   11   46 1   
    19   12   20 1   
    20   12   23 1   
    21   13   33 1   
    22   14   47 1   
    23   14   48 1   
    24   14   49 1   
    25   15   26 1   
    26   15   50 1   
    27   16   21 1   
    28   16   51 1   
    29   17   27 1   
    30   17   28 1   
    31   18   32 1   
    32   20   52 1   
    33   22   24 1   
    34   23   53 1   
    35   24   54 1   
    36   25   31 1   
    37   26   29 1   
    38   26   55 1   
    39   28   38 1   
    40   28   56 1   
    41   29   57 1   
    42   30   36 1   
    43   30   58 1   
    44   31   59 1   
    45   32   39 1   
    46   32   60 1   
    47   33   61 1   
    48   34   35 1   
    49   34   37 1   
    50   35   62 1   
    51   36   63 1   
    52   38   64 1   
    53   38   65 1   
    54   39   40 1   
    55   39   66 1   
    56   39   67 1   
    57   40   41 1   
    58   40   68 1   
    59   40   69 1   
    60   41   70 1   
    61   41   71 1   
    62   41   72 1   
@<TRIPOS>SUBSTRUCTURE
     1 662         1 TEMP              0 ****  ****    0 ROOT
