@<TRIPOS>MOLECULE
662
   73    77     1     0     0
SMALL
bcc


@<TRIPOS>ATOM
      1 N1         -1.0840    1.0650   -1.5050 na        1 662     -0.274000
      2 C2         -1.7890    0.9080   -2.7650 c3        1 662      0.204800
      3 C3         -1.4570   -0.3520   -3.6250 c3        1 662      0.124100
      4 C4         -0.3090    0.1440   -0.7700 ca        1 662      0.464800
      5 C5         -0.3450    0.6150    0.6150 ca        1 662     -0.267200
      6 N6         -1.1350    1.7750    0.7070 nc        1 662     -0.587100
      7 C7         -3.4550   -0.2290    4.6970 ca        1 662     -0.193600
      8 C8         -2.7000   -1.2620   -3.4950 c3        1 662     -0.087700
      9 C9         -1.5580    2.0050   -0.5410 cd        1 662      0.436700
     10 O10        -3.2000    0.8520   -2.5050 os        1 662     -0.417600
     11 O11        -1.3770    0.0590   -4.9760 oh        1 662     -0.578800
     12 C12        -4.6410    1.5740    5.8210 ca        1 662      0.059100
     13 C13        -4.3220    0.8760    4.6320 ca        1 662      0.150100
     14 C14        -2.3280   -2.6520   -3.0530 c3        1 662     -0.095100
     15 C15        -3.6660   -0.5070   -2.5630 c3        1 662      0.153300
     16 C16        -2.9300   -0.6220    5.9430 ca        1 662     -0.061000
     17 C17        -3.0810   -1.0520    3.5450 c         1 662      0.590700
     18 C18         0.4210   -0.1080    1.5870 ca        1 662      0.694200
     19 N19         0.4190   -0.9420   -1.1570 nb        1 662     -0.719000
     20 O20        -5.4920    2.6430    5.6550 oh        1 662     -0.508100
     21 C21        -3.2500    0.0710    7.1120 cp        1 662     -0.004000
     22 N22         1.1530   -1.1890    1.1760 nb        1 662     -0.748000
     23 C23        -4.1120    1.1790    7.0470 ca        1 662     -0.111000
     24 C24         1.1040   -1.5210   -0.1430 ca        1 662      0.688900
     25 C25        -2.7040   -0.3560    8.3980 cp        1 662     -0.092000
     26 C26        -3.8130   -1.0780   -1.1880 c2        1 662     -0.099200
     27 O27        -2.7950   -2.2450    3.5550 o         1 662     -0.439100
     28 N28        -2.9800   -0.3800    2.1980 n4        1 662     -0.663800
     29 C29        -3.8850   -0.3090   -0.0970 c2        1 662     -0.252200
     30 C30        -3.5230   -0.3840    9.5370 ca        1 662     -0.085500
     31 C31        -1.3610   -0.7460    8.5080 ca        1 662     -0.085500
     32 N32         0.2920    0.2430    2.9350 nh        1 662     -0.842900
     33 O33        -4.8500    1.2400    3.4190 oh        1 662     -0.536100
     34 C34        -1.6680   -1.1790   10.8670 ca        1 662      0.158900
     35 C35        -0.8380   -1.1530    9.7290 ca        1 662     -0.162500
     36 C36        -3.0180   -0.7920   10.7650 ca        1 662     -0.162500
     37 F37        -1.1670   -1.5760   12.0570 f         1 662     -0.119900
     38 C38        -4.0720   -0.8440    1.2780 c3        1 662      0.164000
     39 C39         1.1730   -0.3730    3.9120 c3        1 662      0.173800
     40 C40         0.9490    0.1760    5.3210 c3        1 662     -0.090400
     41 C41         1.8170   -0.5650    6.3050 c3        1 662     -0.100100
     42 H2         -1.6380    1.8620   -3.3560 h2        1 662      0.123700
     43 H3         -0.5180   -0.8770   -3.3170 h1        1 662      0.104700
     44 H8         -3.1860   -1.3250   -4.5120 hc        1 662      0.104700
     45 H9         -2.1980    2.8420   -0.8560 h5        1 662      0.093800
     46 HO11       -0.4590    0.3060   -5.1500 ho        1 662      0.420000
     47 H14        -1.8050   -2.6420   -2.0660 hc        1 662      0.050033
     48 H14A       -1.6410   -3.1130   -3.8050 hc        1 662      0.050033
     49 H14B       -3.2390   -3.2930   -2.9750 hc        1 662      0.050033
     50 H15        -4.6930   -0.4320   -3.0270 h1        1 662      0.108700
     51 H16        -2.2660   -1.5030    5.9900 ha        1 662      0.173000
     52 HO20       -5.6690    3.0340    6.5260 ho        1 662      0.455000
     53 H23        -4.3650    1.7340    7.9660 ha        1 662      0.168000
     54 H24         1.7270   -2.4000   -0.4270 h5        1 662      0.074100
     55 H26        -3.9050   -2.1770   -1.1410 ha        1 662      0.148000
     56 HN28       -3.0390    0.6420    2.3080 hn        1 662      0.474300
     57 H29        -3.8330    0.7930   -0.1820 ha        1 662      0.159000
     58 H30        -4.5820   -0.0910    9.4590 ha        1 662      0.139500
     59 H31        -0.7040   -0.7200    7.6220 ha        1 662      0.139500
     60 HN32        0.1770    1.2310    3.0660 hn        1 662      0.425800
     61 HO33       -5.4550    1.9920    3.5510 ho        1 662      0.481000
     62 H35         0.2170   -1.4540    9.8170 ha        1 662      0.163000
     63 H36        -3.6610   -0.8200   11.6580 ha        1 662      0.163000
     64 H38        -4.0720   -1.9720    1.2930 hx        1 662      0.109700
     65 H38A       -5.0480   -0.4670    1.7080 hx        1 662      0.109700
     66 H39         2.2570   -0.2260    3.6330 h1        1 662      0.067200
     67 H39A        0.9720   -1.4820    3.9080 h1        1 662      0.067200
     68 H40         1.1920    1.2700    5.3520 hc        1 662      0.042200
     69 H40A       -0.1300    0.0640    5.6110 hc        1 662      0.042200
     70 H41         1.5680   -1.6550    6.3130 hc        1 662      0.046700
     71 H41A        2.8970   -0.4540    6.0430 hc        1 662      0.046700
     72 H41B        1.6610   -0.1590    7.3340 hc        1 662      0.046700
     73 H282       -2.0660   -0.6090    1.7800 hn        1 662      0.474300
@<TRIPOS>BOND
     1    1    2 1   
     2    1    4 1   
     3    1    9 1   
     4    2    3 1   
     5    2   10 1   
     6    2   42 1   
     7    3    8 1   
     8    3   11 1   
     9    3   43 1   
    10    4    5 ar  
    11    4   19 ar  
    12    5    6 1   
    13    5   18 ar  
    14    6    9 2   
    15    7   13 ar  
    16    7   16 ar  
    17    7   17 1   
    18    8   14 1   
    19    8   15 1   
    20    8   44 1   
    21    9   45 1   
    22   10   15 1   
    23   11   46 1   
    24   12   13 ar  
    25   12   20 1   
    26   12   23 ar  
    27   13   33 1   
    28   14   47 1   
    29   14   48 1   
    30   14   49 1   
    31   15   26 1   
    32   15   50 1   
    33   16   21 ar  
    34   16   51 1   
    35   17   27 2   
    36   17   28 1   
    37   18   22 ar  
    38   18   32 1   
    39   19   24 ar  
    40   20   52 1   
    41   21   23 ar  
    42   21   25 1   
    43   22   24 ar  
    44   23   53 1   
    45   24   54 1   
    46   25   30 ar  
    47   25   31 ar  
    48   26   29 2   
    49   26   55 1   
    50   28   38 1   
    51   28   56 1   
    52   28   73 1   
    53   29   38 1   
    54   29   57 1   
    55   30   36 ar  
    56   30   58 1   
    57   31   35 ar  
    58   31   59 1   
    59   32   39 1   
    60   32   60 1   
    61   33   61 1   
    62   34   35 ar  
    63   34   36 ar  
    64   34   37 1   
    65   35   62 1   
    66   36   63 1   
    67   38   64 1   
    68   38   65 1   
    69   39   40 1   
    70   39   66 1   
    71   39   67 1   
    72   40   41 1   
    73   40   68 1   
    74   40   69 1   
    75   41   70 1   
    76   41   71 1   
    77   41   72 1   
@<TRIPOS>SUBSTRUCTURE
     1 662         1 TEMP              0 ****  ****    0 ROOT
