@<TRIPOS>MOLECULE
662
   72    76     1     0     0
SMALL
bcc


@<TRIPOS>ATOM
      1 N1          2.7790   -2.2050   -0.4000 na        1 662     -0.281000
      2 C2          2.8380   -3.6350   -0.1890 c3        1 662      0.224800
      3 C3          2.5050   -4.0930    1.2680 c3        1 662      0.128100
      4 C4          3.3770   -1.2260    0.4070 ca        1 662      0.453800
      5 C5          3.2030    0.0280   -0.3160 ca        1 662     -0.230200
      6 N6          2.5290   -0.2050   -1.5230 nc        1 662     -0.554100
      7 C7         -3.6040   -0.1300    0.2690 ca        1 662     -0.185600
      8 C8          1.4780   -5.2250    1.1000 c3        1 662     -0.086700
      9 C9          2.3050   -1.5280   -1.5500 cd        1 662      0.414700
     10 O10         1.9240   -4.2870   -1.0780 os        1 662     -0.421600
     11 O11         3.6630   -4.6360    1.8640 oh        1 662     -0.592800
     12 C12        -5.0820    1.6270    1.0960 ca        1 662      0.098100
     13 C13        -4.8060    0.2510    0.8860 ca        1 662      0.118100
     14 C14         0.3790   -5.1330    2.1260 c3        1 662     -0.090100
     15 C15         1.0000   -5.1260   -0.3580 c3        1 662      0.176300
     16 C16        -2.6810    0.8590   -0.0960 ca        1 662     -0.100000
     17 C17        -3.3210   -1.5720    0.0290 c         1 662      0.681700
     18 C18         3.7460    1.2160    0.2900 ca        1 662      0.766200
     19 N19         4.0150   -1.3260    1.6140 nb        1 662     -0.767000
     20 O20        -6.2500    2.0610    1.6750 oh        1 662     -0.493100
     21 C21        -2.9510    2.2140    0.1140 cp        1 662     -0.042000
     22 N22         4.3830    1.1040    1.5050 nb        1 662     -0.793000
     23 C23        -4.1610    2.6010    0.7090 ca        1 662     -0.106000
     24 C24         4.4660   -0.1320    2.0630 ca        1 662      0.691900
     25 C25        -1.9810    3.2310   -0.2870 cp        1 662     -0.049000
     26 C26        -0.4080   -4.6670   -0.5110 c2        1 662     -0.171200
     27 O27        -3.7600   -2.4560    0.8040 o         1 662     -0.639100
     28 N28        -2.6280   -1.9170   -1.1110 n         1 662     -0.547900
     29 C29        -0.8050   -3.5930   -1.1940 c2        1 662     -0.182200
     30 C30        -1.7220    4.3300    0.5440 ca        1 662     -0.091500
     31 C31        -1.3030    3.1210   -1.5100 ca        1 662     -0.091500
     32 N32         3.6150    2.4240   -0.3450 nh        1 662     -0.858900
     33 O33        -5.7990   -0.5990    1.2980 oh        1 662     -0.525100
     34 C34        -0.1270    5.1820   -1.0580 ca        1 662      0.123900
     35 C35        -0.3820    4.0860   -1.9020 ca        1 662     -0.164000
     36 C36        -0.8020    5.3030    0.1700 ca        1 662     -0.164000
     37 F37         0.7740    6.1230   -1.4300 f         1 662     -0.142900
     38 C38        -2.2550   -3.2760   -1.4010 c3        1 662      0.116200
     39 C39         4.2000    3.6370    0.1640 c3        1 662      0.218800
     40 C40         4.0340    4.8260   -0.7810 c3        1 662     -0.099400
     41 C41         4.7100    6.0400   -0.1990 c3        1 662     -0.091100
     42 H2          3.8730   -3.9940   -0.4850 h2        1 662      0.093700
     43 H3          2.0880   -3.2560    1.8900 h1        1 662      0.079700
     44 H8          2.0160   -6.2070    1.2330 hc        1 662      0.085700
     45 H9          1.8150   -2.0850   -2.3590 h5        1 662      0.082800
     46 HO11        4.1980   -3.8930    2.1760 ho        1 662      0.430000
     47 H14        -0.2020   -4.1850    2.0150 hc        1 662      0.047367
     48 H14A       -0.3240   -5.9950    2.0200 hc        1 662      0.047367
     49 H14B        0.8200   -5.1600    3.1520 hc        1 662      0.047367
     50 H15         1.0950   -6.1310   -0.8680 h1        1 662      0.076700
     51 H16        -1.7080    0.5780   -0.5310 ha        1 662      0.141000
     52 HO20       -6.7670    1.2810    1.9350 ho        1 662      0.442000
     53 H23        -4.3970    3.6630    0.8750 ha        1 662      0.160000
     54 H24         4.9910   -0.1600    3.0430 h5        1 662      0.050100
     55 H26        -1.1390   -5.3400   -0.0280 ha        1 662      0.137000
     56 HN28       -2.1910   -1.2030   -1.6440 hn        1 662      0.313500
     57 H29        -0.0790   -2.9110   -1.6650 ha        1 662      0.131000
     58 H30        -2.2470    4.4210    1.5080 ha        1 662      0.142000
     59 H31        -1.5060    2.2650   -2.1720 ha        1 662      0.142000
     60 HN32        3.1740    2.4380   -1.2350 hn        1 662      0.456800
     61 HO33       -5.4530   -1.5070    1.3480 ho        1 662      0.471000
     62 H35         0.1450    4.0010   -2.8630 ha        1 662      0.150500
     63 H36        -0.5960    6.1630    0.8230 ha        1 662      0.150500
     64 H38        -2.8980   -3.9640   -0.7770 h1        1 662      0.071200
     65 H38A       -2.4940   -3.4670   -2.4910 h1        1 662      0.071200
     66 H39         3.7230    3.8830    1.1570 h1        1 662      0.055200
     67 H39A        5.3010    3.4710    0.3540 h1        1 662      0.055200
     68 H40         4.4810    4.5900   -1.7820 hc        1 662      0.050200
     69 H40A        2.9440    5.0430   -0.9430 hc        1 662      0.050200
     70 H41         4.2700    6.3000    0.7940 hc        1 662      0.039033
     71 H41A        5.8030    5.8580   -0.0610 hc        1 662      0.039033
     72 H41B        4.5800    6.9150   -0.8820 hc        1 662      0.039033
@<TRIPOS>BOND
     1    1    2 1   
     2    1    4 1   
     3    1    9 1   
     4    2    3 1   
     5    2   10 1   
     6    2   42 1   
     7    3    8 1   
     8    3   11 1   
     9    3   43 1   
    10    4    5 ar  
    11    4   19 ar  
    12    5    6 1   
    13    5   18 ar  
    14    6    9 2   
    15    7   13 ar  
    16    7   16 ar  
    17    7   17 1   
    18    8   14 1   
    19    8   15 1   
    20    8   44 1   
    21    9   45 1   
    22   10   15 1   
    23   11   46 1   
    24   12   13 ar  
    25   12   20 1   
    26   12   23 ar  
    27   13   33 1   
    28   14   47 1   
    29   14   48 1   
    30   14   49 1   
    31   15   26 1   
    32   15   50 1   
    33   16   21 ar  
    34   16   51 1   
    35   17   27 2   
    36   17   28 1   
    37   18   22 ar  
    38   18   32 1   
    39   19   24 ar  
    40   20   52 1   
    41   21   23 ar  
    42   21   25 1   
    43   22   24 ar  
    44   23   53 1   
    45   24   54 1   
    46   25   30 ar  
    47   25   31 ar  
    48   26   29 2   
    49   26   55 1   
    50   28   38 1   
    51   28   56 1   
    52   29   38 1   
    53   29   57 1   
    54   30   36 ar  
    55   30   58 1   
    56   31   35 ar  
    57   31   59 1   
    58   32   39 1   
    59   32   60 1   
    60   33   61 1   
    61   34   35 ar  
    62   34   36 ar  
    63   34   37 1   
    64   35   62 1   
    65   36   63 1   
    66   38   64 1   
    67   38   65 1   
    68   39   40 1   
    69   39   66 1   
    70   39   67 1   
    71   40   41 1   
    72   40   68 1   
    73   40   69 1   
    74   41   70 1   
    75   41   71 1   
    76   41   72 1   
@<TRIPOS>SUBSTRUCTURE
     1 662         1 TEMP              0 ****  ****    0 ROOT
