@<TRIPOS>MOLECULE
662
   74    78     1     0     0
SMALL
bcc


@<TRIPOS>ATOM
      1 N1          1.5060   -0.0080   -0.3970 na        1 662     -0.261000
      2 C2          0.1440    0.2620   -0.8000 c3        1 662      0.246800
      3 C3         -0.5400   -0.9220   -1.5640 c3        1 662      0.115100
      4 C4          2.6050    0.8400   -0.6250 ca        1 662      0.468800
      5 C5          3.7500    0.1570    0.0190 ca        1 662     -0.141200
      6 N6          3.3170   -1.0320    0.6210 nc        1 662     -0.573100
      7 C7         -6.7030    0.3180    5.8620 ca        1 662     -0.206600
      8 C8         -1.8150   -1.2450   -0.7620 c3        1 662     -0.125700
      9 C9          1.9990   -1.0910    0.3660 cd        1 662      0.495700
     10 O10        -0.6500    0.5380    0.3670 os        1 662     -0.420600
     11 O11        -0.8380   -0.3980   -2.8410 oh        1 662     -0.579800
     12 C12        -8.2750    2.1670    6.0690 ca        1 662      0.065100
     13 C13        -7.1710    1.5690    5.4170 ca        1 662      0.143100
     14 C14        -1.7260   -2.6000   -0.1050 c3        1 662     -0.098100
     15 C15        -1.9450   -0.0830    0.2380 c3        1 662      0.163300
     16 C16        -7.3460   -0.3060    6.9520 ca        1 662     -0.058000
     17 C17        -5.5670   -0.4060    5.2980 c         1 662      0.586700
     18 C18         4.9940    0.8090   -0.0980 ca        1 662      0.546200
     19 N19         2.7200    2.0200   -1.2820 nb        1 662     -0.621000
     20 O20        -8.6550    3.3860    5.5590 oh        1 662     -0.508100
     21 C21        -8.4390    0.2870    7.5870 cp        1 662      0.010000
     22 N22         5.1160    1.9910   -0.7530 nb        1 662     -0.679000
     23 C23        -8.9050    1.5340    7.1400 ca        1 662     -0.099000
     24 C24         3.9820    2.5200   -1.2980 ca        1 662      0.679900
     25 C25        -9.0930   -0.3820    8.7080 cp        1 662     -0.107000
     26 C26        -2.3980   -0.4770    1.6050 c2        1 662     -0.075200
     27 O27        -4.9580   -1.3460    5.7970 o         1 662     -0.440100
     28 N28        -5.0820    0.0290    3.9270 n4        1 662     -0.667800
     29 C29        -3.6910   -0.4920    1.9470 c2        1 662     -0.248200
     30 C30       -10.4920   -0.3810    8.8130 ca        1 662     -0.080500
     31 C31        -8.3290   -1.0290    9.6910 ca        1 662     -0.080500
     32 N32         6.1950    0.1980    0.5070 n4        1 662     -0.746700
     33 O33        -6.5470    2.1880    4.3620 oh        1 662     -0.557100
     34 C34       -10.3490   -1.6610   10.8590 ca        1 662      0.167900
     35 C35        -8.9430   -1.6640   10.7620 ca        1 662     -0.162000
     36 C36       -11.1240   -1.0160    9.8750 ca        1 662     -0.162000
     37 F37       -10.9540   -2.2790   11.8960 f         1 662     -0.113900
     38 C38        -4.1530   -0.9490    3.2870 c3        1 662      0.155000
     39 C39         7.1720   -0.2710   -0.5320 c3        1 662      0.107800
     40 C40         8.3760   -0.9660    0.0920 c3        1 662     -0.107400
     41 C41         9.3150   -1.4070   -1.0050 c3        1 662     -0.101100
     42 H2          0.1410    1.1990   -1.4410 h2        1 662      0.146700
     43 H3          0.1240   -1.8230   -1.6510 h1        1 662      0.068700
     44 H8         -2.7020   -1.2280   -1.4540 hc        1 662      0.097700
     45 H9          1.3330   -1.9030    0.6990 h5        1 662      0.097800
     46 HO11       -1.1290   -1.1330   -3.3970 ho        1 662      0.433000
     47 H14        -2.6630   -2.8180    0.4640 hc        1 662      0.049367
     48 H14A       -1.5930   -3.3970   -0.8770 hc        1 662      0.049367
     49 H14B       -0.8640   -2.6450    0.6050 hc        1 662      0.049367
     50 H15        -2.6290    0.7080   -0.1890 h1        1 662      0.085700
     51 H16        -6.9750   -1.2860    7.3030 ha        1 662      0.177000
     52 HO20       -9.3680    3.7460    6.1120 ho        1 662      0.462000
     53 H23        -9.7620    2.0150    7.6420 ha        1 662      0.176000
     54 H24         4.1180    3.4940   -1.8270 h5        1 662      0.104100
     55 H26        -1.5920   -0.7350    2.3130 ha        1 662      0.152000
     56 HN28       -4.6200    0.9430    4.0300 hn        1 662      0.468300
     57 H29        -4.4810   -0.2280    1.2240 ha        1 662      0.152000
     58 H30       -11.1020    0.1170    8.0430 ha        1 662      0.139000
     59 H31        -7.2290   -1.0250    9.6240 ha        1 662      0.139000
     60 HN32        5.9010   -0.6020    1.0850 hn        1 662      0.471800
     61 HO33       -6.9400    3.0710    4.2350 ho        1 662      0.490000
     62 H35        -8.3450   -2.1670   11.5390 ha        1 662      0.167000
     63 H36       -12.2220   -1.0200    9.9580 ha        1 662      0.167000
     64 H38        -4.7080   -1.9290    3.1900 hx        1 662      0.115200
     65 H38A       -3.2870   -1.1120    3.9950 hx        1 662      0.115200
     66 H39         6.6270   -0.9770   -1.2210 hx        1 662      0.116200
     67 H39A        7.5070    0.6300   -1.1250 hx        1 662      0.116200
     68 H40         8.9150   -0.2680    0.7870 hc        1 662      0.067200
     69 H40A        8.0480   -1.8600    0.6860 hc        1 662      0.067200
     70 H41        10.2010   -1.9180   -0.5520 hc        1 662      0.064033
     71 H41A        8.8120   -2.1240   -1.6980 hc        1 662      0.064033
     72 H41B        9.6780   -0.5320   -1.5970 hc        1 662      0.064033
     73 H282       -5.9040    0.1830    3.3280 hn        1 662      0.468300
     74 H322        6.6580    0.8890    1.1140 hn        1 662      0.471800
@<TRIPOS>BOND
     1    1    2 1   
     2    1    4 1   
     3    1    9 1   
     4    2    3 1   
     5    2   10 1   
     6    2   42 1   
     7    3    8 1   
     8    3   11 1   
     9    3   43 1   
    10    4    5 ar  
    11    4   19 ar  
    12    5    6 1   
    13    5   18 ar  
    14    6    9 2   
    15    7   13 ar  
    16    7   16 ar  
    17    7   17 1   
    18    8   14 1   
    19    8   15 1   
    20    8   44 1   
    21    9   45 1   
    22   10   15 1   
    23   11   46 1   
    24   12   13 ar  
    25   12   20 1   
    26   12   23 ar  
    27   13   33 1   
    28   14   47 1   
    29   14   48 1   
    30   14   49 1   
    31   15   26 1   
    32   15   50 1   
    33   16   21 ar  
    34   16   51 1   
    35   17   27 2   
    36   17   28 1   
    37   18   22 ar  
    38   18   32 1   
    39   19   24 ar  
    40   20   52 1   
    41   21   23 ar  
    42   21   25 1   
    43   22   24 ar  
    44   23   53 1   
    45   24   54 1   
    46   25   30 ar  
    47   25   31 ar  
    48   26   29 2   
    49   26   55 1   
    50   28   38 1   
    51   28   56 1   
    52   28   73 1   
    53   29   38 1   
    54   29   57 1   
    55   30   36 ar  
    56   30   58 1   
    57   31   35 ar  
    58   31   59 1   
    59   32   39 1   
    60   32   60 1   
    61   32   74 1   
    62   33   61 1   
    63   34   35 ar  
    64   34   36 ar  
    65   34   37 1   
    66   35   62 1   
    67   36   63 1   
    68   38   64 1   
    69   38   65 1   
    70   39   40 1   
    71   39   66 1   
    72   39   67 1   
    73   40   41 1   
    74   40   68 1   
    75   40   69 1   
    76   41   70 1   
    77   41   71 1   
    78   41   72 1   
@<TRIPOS>SUBSTRUCTURE
     1 662         1 TEMP              0 ****  ****    0 ROOT
