@<TRIPOS>MOLECULE
663
   55    58     1     0     0
SMALL
bcc


@<TRIPOS>ATOM
      1 C34         1.8210    4.3040   -1.7650 c3        1 663      0.009600
      2 N33         2.9010    3.5340   -2.2920 na        1 663     -0.173900
      3 C32         4.1140    4.0210   -2.7730 cc        1 663     -0.210600
      4 C31         4.8550    2.8970   -3.1900 cd        1 663      0.275200
      5 N30         4.1260    1.7350   -2.9750 nd        1 663     -0.706000
      6 C29         2.9420    2.1320   -2.4320 cc        1 663      0.364800
      7 C28         1.8170    1.2460   -2.0060 c3        1 663     -0.042400
      8 C25         1.9100   -0.0900   -2.6350 cc        1 663     -0.061300
      9 C26         2.8910   -1.0640   -2.3350 cc        1 663      0.077400
     10 CL3         4.0210   -0.8620   -1.1110 cl        1 663      0.018600
     11 C24         1.0530   -0.5560   -3.6430 cd        1 663     -0.140100
     12 S23         1.4290   -2.0370   -4.1750 ss        1 663      0.344200
     13 C22         2.7650   -2.2130   -3.1590 cd        1 663     -0.336700
     14 C20         3.5940   -3.3640   -3.2340 c         1 663      0.658700
     15 O21         3.4010   -4.4220   -3.8460 o         1 663     -0.568100
     16 N19         4.9230   -3.3300   -2.4850 n4        1 663     -0.552200
     17 C12         6.0550   -3.6120   -3.3620 ca        1 663     -0.060400
     18 C13         6.9190   -2.5620   -3.7700 ca        1 663      0.214100
     19 O17         6.6030   -1.3220   -3.3010 os        1 663     -0.329900
     20 C18         7.3790   -0.2030   -3.7630 c3        1 663      0.108700
     21 C14         8.0280   -2.8370   -4.5940 ca        1 663     -0.153000
     22 C15         8.2770   -4.1380   -5.0160 ca        1 663      0.089400
     23 CL2         9.6030   -4.4760   -5.9890 cl        1 663      0.036600
     24 C16         7.4170   -5.1890   -4.6300 ca        1 663     -0.126000
     25 C11         6.3230   -4.9280   -3.8180 ca        1 663     -0.108600
     26 C9          5.4480   -6.0380   -3.3730 c         1 663      0.568700
     27 O10         5.1310   -6.2820   -2.2190 o         1 663     -0.391100
     28 N7          4.8700   -6.8870   -4.4780 n4        1 663     -0.636500
     29 C1          4.7980   -8.3240   -4.1270 ca        1 663      0.418200
     30 C6          5.8010   -9.2030   -4.5830 ca        1 663     -0.181300
     31 C5          5.6860  -10.5540   -4.2360 ca        1 663     -0.078000
     32 C4          4.6020  -10.9750   -3.4590 ca        1 663     -0.046900
     33 CL1         4.4150  -12.5750   -3.0120 cl        1 663      0.043600
     34 C3          3.6430  -10.0030   -3.0500 ca        1 663      0.437200
     35 N2          3.7290   -8.7100   -3.3690 nb        1 663     -0.624000
     36 H341        0.9360    4.2520   -2.4570 h1        1 663      0.068700
     37 H342        2.1380    5.3760   -1.6560 h1        1 663      0.068700
     38 H343        1.5220    3.9040   -0.7580 h1        1 663      0.068700
     39 H32         4.3550    5.0840   -2.7840 h4        1 663      0.199000
     40 H31         5.8520    2.8820   -3.6280 h4        1 663      0.039100
     41 H281        1.8430    1.1420   -0.8840 hc        1 663      0.086200
     42 H282        0.8360    1.7250   -2.2790 hc        1 663      0.086200
     43 H24         0.2170    0.0430   -4.0300 h4        1 663      0.222000
     44 HN19        5.0490   -2.3800   -2.0500 hn        1 663      0.488300
     45 H181        7.3630   -0.1530   -4.8780 h1        1 663      0.085033
     46 H182        8.4200   -0.2760   -3.3650 h1        1 663      0.085033
     47 H183        6.8250    0.6670   -3.3140 h1        1 663      0.085033
     48 H14         8.7030   -2.0140   -4.8950 ha        1 663      0.204000
     49 H16         7.6540   -6.2170   -4.9540 ha        1 663      0.171000
     50 HN7         3.9130   -6.5270   -4.6590 hn        1 663      0.485300
     51 H6          6.6500   -8.8670   -5.1970 ha        1 663      0.164000
     52 H5          6.4510  -11.2750   -4.5800 ha        1 663      0.197000
     53 H3          2.7620  -10.2890   -2.4360 h4        1 663      0.082100
     54 H192        4.8980   -4.0340   -1.7330 hn        1 663      0.488300
     55 H72         5.4300   -6.7850   -5.3320 hn        1 663      0.485300
@<TRIPOS>BOND
     1    1    2 1   
     2    1   36 1   
     3    1   37 1   
     4    1   38 1   
     5    2    3 1   
     6    2    6 1   
     7    3    4 2   
     8    3   39 1   
     9    4    5 1   
    10    4   40 1   
    11    5    6 2   
    12    6    7 1   
    13    7    8 1   
    14    7   41 1   
    15    7   42 1   
    16    8    9 1   
    17    8   11 2   
    18    9   10 1   
    19    9   13 2   
    20   11   12 1   
    21   11   43 1   
    22   12   13 1   
    23   13   14 1   
    24   14   15 2   
    25   14   16 1   
    26   16   17 1   
    27   16   44 1   
    28   16   54 1   
    29   17   18 ar  
    30   17   25 ar  
    31   18   19 1   
    32   18   21 ar  
    33   19   20 1   
    34   20   45 1   
    35   20   46 1   
    36   20   47 1   
    37   21   22 ar  
    38   21   48 1   
    39   22   23 1   
    40   22   24 ar  
    41   24   25 ar  
    42   24   49 1   
    43   25   26 1   
    44   26   27 2   
    45   26   28 1   
    46   28   29 1   
    47   28   50 1   
    48   28   55 1   
    49   29   30 ar  
    50   29   35 ar  
    51   30   31 ar  
    52   30   51 1   
    53   31   32 ar  
    54   31   52 1   
    55   32   33 1   
    56   32   34 ar  
    57   34   35 ar  
    58   34   53 1   
@<TRIPOS>SUBSTRUCTURE
     1 663         1 TEMP              0 ****  ****    0 ROOT
