@<TRIPOS>MOLECULE
663
   53    56     1     0     0
SMALL
bcc


@<TRIPOS>ATOM
      1 C34        -0.5910    1.7230   -6.8140 c3        1 663      0.017600
      2 N33         0.3750    1.5050   -7.8390 na        1 663     -0.191900
      3 C32         0.8210    2.4490   -8.7660 cc        1 663     -0.255600
      4 C31         1.7390    1.7820   -9.5970 cd        1 663      0.290200
      5 N30         1.8630    0.4540   -9.2060 nd        1 663     -0.670000
      6 C29         1.0290    0.2930   -8.1450 cc        1 663      0.392800
      7 C28         0.8230   -0.9720   -7.3770 c3        1 663     -0.037400
      8 C25         1.7700   -1.0820   -6.2460 cc        1 663     -0.108300
      9 C26         1.3970   -1.2320   -4.8700 cc        1 663      0.008400
     10 CL3        -0.1950   -1.3000   -4.3410 cl        1 663     -0.047400
     11 C24         3.1510   -1.0780   -6.3750 cd        1 663     -0.171100
     12 S23         3.9250   -1.2550   -4.9320 ss        1 663      0.192200
     13 C22         2.5140   -1.3350   -4.0450 cd        1 663     -0.218700
     14 C20         2.5140   -1.5270   -2.5820 c         1 663      0.728700
     15 O21         3.1650   -2.4340   -2.0340 o         1 663     -0.578100
     16 N19         1.7440   -0.6240   -1.8530 n         1 663     -0.468100
     17 C12         1.7070   -0.5660   -0.4560 ca        1 663      0.109600
     18 C13         2.8800   -0.6750    0.3480 ca        1 663      0.105100
     19 O17         4.1060   -0.7270   -0.2880 os        1 663     -0.327900
     20 C18         4.9370   -1.8230    0.1040 c3        1 663      0.118700
     21 C14         2.8110   -0.6130    1.7420 ca        1 663     -0.127000
     22 C15         1.5800   -0.4090    2.3680 ca        1 663      0.010400
     23 CL2         1.4990   -0.3230    4.0620 cl        1 663     -0.077400
     24 C16         0.4180   -0.2640    1.6100 ca        1 663     -0.099000
     25 C11         0.4790   -0.3450    0.2170 ca        1 663     -0.169600
     26 C9         -0.7800   -0.1580   -0.5690 c         1 663      0.692700
     27 O10        -0.8530    0.6630   -1.5020 o         1 663     -0.597100
     28 N7         -1.8500   -0.9510   -0.1690 n         1 663     -0.540400
     29 C1         -3.1260   -0.9850   -0.7680 ca        1 663      0.526200
     30 C6         -3.6050    0.0730   -1.5900 ca        1 663     -0.252300
     31 C5         -4.8880   -0.0150   -2.1250 ca        1 663     -0.069000
     32 C4         -5.6720   -1.1350   -1.8410 ca        1 663     -0.135900
     33 CL1        -7.2360   -1.2950   -2.4630 cl        1 663     -0.071400
     34 C3         -5.1280   -2.1410   -1.0120 ca        1 663      0.436200
     35 N2         -3.9010   -2.0870   -0.4870 nb        1 663     -0.703000
     36 H341       -0.3090    1.1420   -5.8950 h1        1 663      0.057033
     37 H342       -0.6360    2.8160   -6.5620 h1        1 663      0.057033
     38 H343       -1.6070    1.3860   -7.1580 h1        1 663      0.057033
     39 H32         0.4700    3.4780   -8.7630 h4        1 663      0.176000
     40 H31         2.3030    2.1820  -10.4380 h4        1 663      0.041100
     41 H281        0.9840   -1.8440   -8.0740 hc        1 663      0.078700
     42 H282       -0.2390   -1.0250   -7.0120 hc        1 663      0.078700
     43 H24         3.6660   -0.9610   -7.3330 h4        1 663      0.201000
     44 HN19        1.1200   -0.0150   -2.3430 hn        1 663      0.353500
     45 H181        5.8070   -1.7470   -0.5950 h1        1 663      0.049033
     46 H182        4.4010   -2.7920   -0.0380 h1        1 663      0.049033
     47 H183        5.2670   -1.6980    1.1640 h1        1 663      0.049033
     48 H14         3.7330   -0.7060    2.3360 ha        1 663      0.162000
     49 H16        -0.5450   -0.0760    2.1120 ha        1 663      0.158000
     50 HN7        -1.6540   -1.6650    0.5040 hn        1 663      0.341500
     51 H6         -2.9780    0.9520   -1.8070 ha        1 663      0.182000
     52 H5         -5.2730    0.7960   -2.7630 ha        1 663      0.155000
     53 H3         -5.7130   -3.0460   -0.7580 h4        1 663      0.039100
@<TRIPOS>BOND
     1    1    2 1   
     2    1   36 1   
     3    1   37 1   
     4    1   38 1   
     5    2    3 1   
     6    2    6 1   
     7    3    4 2   
     8    3   39 1   
     9    4    5 1   
    10    4   40 1   
    11    5    6 2   
    12    6    7 1   
    13    7    8 1   
    14    7   41 1   
    15    7   42 1   
    16    8    9 1   
    17    8   11 2   
    18    9   10 1   
    19    9   13 2   
    20   11   12 1   
    21   11   43 1   
    22   12   13 1   
    23   13   14 1   
    24   14   15 2   
    25   14   16 1   
    26   16   17 1   
    27   16   44 1   
    28   17   18 ar  
    29   17   25 ar  
    30   18   19 1   
    31   18   21 ar  
    32   19   20 1   
    33   20   45 1   
    34   20   46 1   
    35   20   47 1   
    36   21   22 ar  
    37   21   48 1   
    38   22   23 1   
    39   22   24 ar  
    40   24   25 ar  
    41   24   49 1   
    42   25   26 1   
    43   26   27 2   
    44   26   28 1   
    45   28   29 1   
    46   28   50 1   
    47   29   30 ar  
    48   29   35 ar  
    49   30   31 ar  
    50   30   51 1   
    51   31   32 ar  
    52   31   52 1   
    53   32   33 1   
    54   32   34 ar  
    55   34   35 ar  
    56   34   53 1   
@<TRIPOS>SUBSTRUCTURE
     1 663         1 TEMP              0 ****  ****    0 ROOT
