@<TRIPOS>MOLECULE
663
   53    56     1     0     0
SMALL
bcc


@<TRIPOS>ATOM
      1 C34         2.9150   -0.6150    0.2170 c3        1 663      0.017600
      2 N33         2.5100    0.7230   -0.0560 na        1 663     -0.191900
      3 C32         2.6430    1.8160    0.8010 cc        1 663     -0.255600
      4 C31         2.0780    2.9160    0.1300 cd        1 663      0.290200
      5 N30         1.5980    2.5230   -1.1140 nd        1 663     -0.670000
      6 C29         1.8580    1.1930   -1.2160 cc        1 663      0.392800
      7 C28         1.5270    0.3240   -2.3860 c3        1 663     -0.037400
      8 C25         2.6310    0.2940   -3.3700 cc        1 663     -0.108300
      9 C26         3.3090   -0.8880   -3.8140 cc        1 663      0.008400
     10 Cl3         2.9420   -2.4320   -3.2630 cl        1 663     -0.047400
     11 C24         3.1390    1.4130   -4.0130 cd        1 663     -0.171100
     12 S23         4.3390    1.0440   -5.0800 ss        1 663      0.192200
     13 C22         4.2830   -0.5940   -4.7640 cd        1 663     -0.218700
     14 C20         5.1550   -1.5600   -5.4600 c         1 663      0.728700
     15 O21         5.2590   -1.5830   -6.6990 o         1 663     -0.578100
     16 N19         5.8590   -2.4390   -4.6410 ns        1 663     -0.468100
     17 C12         6.8210   -3.3460   -5.0980 ca        1 663      0.109600
     18 C13         7.8010   -2.9990   -6.0750 ca        1 663      0.105100
     19 O17         7.8660   -1.6830   -6.4960 os        1 663     -0.327900
     20 C18         7.8280   -1.5070   -7.9150 c3        1 663      0.118700
     21 C14         8.7480   -3.9270   -6.5130 ca        1 663     -0.127000
     22 C15         8.7650   -5.2120   -5.9670 ca        1 663      0.010400
     23 Cl2         9.9240   -6.3350   -6.4930 cl        1 663     -0.077400
     24 C16         7.8430   -5.5740   -4.9860 ca        1 663     -0.099000
     25 C11         6.8810   -4.6560   -4.5590 ca        1 663     -0.169600
     26 C9          5.9230   -5.0660   -3.4860 c         1 663      0.692700
     27 O10         5.7560   -4.3780   -2.4610 o         1 663     -0.597100
     28 N7          5.2580   -6.2650   -3.7130 ns        1 663     -0.540400
     29 C1          4.2860   -6.8460   -2.8730 ca        1 663      0.526200
     30 C6          4.1620   -6.4920   -1.5010 ca        1 663     -0.252300
     31 C5          3.1980   -7.1280   -0.7230 ca        1 663     -0.069000
     32 C4          2.3800   -8.0990   -1.3060 ca        1 663     -0.135900
     33 Cl1         1.1930   -8.9030   -0.4100 cl        1 663     -0.071400
     34 C3          2.5670   -8.3990   -2.6730 ca        1 663      0.436200
     35 N2          3.4800   -7.8040   -3.4450 nb        1 663     -0.703000
     36 H341        3.7200   -0.6160    0.9980 h1        1 663      0.057033
     37 H342        2.0430   -1.2180    0.5910 h1        1 663      0.057033
     38 H343        3.3090   -1.0930   -0.7210 h1        1 663      0.057033
     39 H32         3.1120    1.7340    1.7790 h4        1 663      0.176000
     40 H31         1.9940    3.9460    0.4730 h4        1 663      0.041100
     41 H281        1.2860   -0.7150   -2.0300 hc        1 663      0.078700
     42 H282        0.6030    0.7320   -2.8850 hc        1 663      0.078700
     43 H24         2.7840    2.4300   -3.8230 h4        1 663      0.201000
     44 HN19        5.6270   -2.4850   -3.6690 hn        1 663      0.353500
     45 H181        6.9200   -1.9930   -8.3460 h1        1 663      0.049033
     46 H182        8.7600   -1.9120   -8.3790 h1        1 663      0.049033
     47 H183        7.7750   -0.3960   -8.0330 h1        1 663      0.049033
     48 H14         9.4880   -3.6310   -7.2720 ha        1 663      0.162000
     49 H16         7.8810   -6.5820   -4.5420 ha        1 663      0.158000
     50 HN7         5.3650   -6.6750   -4.6200 hn        1 663      0.341500
     51 H6          4.8120   -5.7260   -1.0510 ha        1 663      0.182000
     52 H5          3.0900   -6.8660    0.3410 ha        1 663      0.155000
     53 H3          1.9440   -9.1620   -3.1780 h4        1 663      0.039100
@<TRIPOS>BOND
     1    1    2 1   
     2    1   36 1   
     3    1   37 1   
     4    1   38 1   
     5    2    3 1   
     6    2    6 1   
     7    3    4 2   
     8    3   39 1   
     9    4    5 1   
    10    4   40 1   
    11    5    6 2   
    12    6    7 1   
    13    7    8 1   
    14    7   41 1   
    15    7   42 1   
    16    8    9 1   
    17    8   11 2   
    18    9   10 1   
    19    9   13 2   
    20   11   12 1   
    21   11   43 1   
    22   12   13 1   
    23   13   14 1   
    24   14   15 2   
    25   14   16 1   
    26   16   17 1   
    27   16   44 1   
    28   17   18 ar  
    29   17   25 ar  
    30   18   19 1   
    31   18   21 ar  
    32   19   20 1   
    33   20   45 1   
    34   20   46 1   
    35   20   47 1   
    36   21   22 ar  
    37   21   48 1   
    38   22   23 1   
    39   22   24 ar  
    40   24   25 ar  
    41   24   49 1   
    42   25   26 1   
    43   26   27 2   
    44   26   28 1   
    45   28   29 1   
    46   28   50 1   
    47   29   30 ar  
    48   29   35 ar  
    49   30   31 ar  
    50   30   51 1   
    51   31   32 ar  
    52   31   52 1   
    53   32   33 1   
    54   32   34 ar  
    55   34   35 ar  
    56   34   53 1   
@<TRIPOS>SUBSTRUCTURE
     1 663         1 TEMP              0 ****  ****    0 ROOT
