@<TRIPOS>MOLECULE
663
   53    56     1     0     0
SMALL
bcc


@<TRIPOS>ATOM
      1 C34         2.8820   -0.6560    0.2190 c3        1 663      0.017600
      2 N33         2.4830    0.6860   -0.0450 na        1 663     -0.191900
      3 C32         2.6120    1.7710    0.8240 cc        1 663     -0.255600
      4 C31         2.0560    2.8780    0.1580 cd        1 663      0.290200
      5 N30         1.5850    2.4990   -1.0940 nd        1 663     -0.670000
      6 C29         1.8430    1.1690   -1.2060 cc        1 663      0.392800
      7 C28         1.5200    0.3120   -2.3870 c3        1 663     -0.037400
      8 C25         2.6300    0.2900   -3.3630 cc        1 663     -0.108300
      9 C26         3.3120   -0.8880   -3.8120 cc        1 663      0.008400
     10 CL3         2.9410   -2.4360   -3.2780 cl        1 663     -0.047400
     11 C24         3.1430    1.4150   -3.9930 cd        1 663     -0.171100
     12 S23         4.3510    1.0540   -5.0530 ss        1 663      0.192200
     13 C22         4.2930   -0.5870   -4.7520 cd        1 663     -0.218700
     14 C20         5.1700   -1.5470   -5.4500 c         1 663      0.728700
     15 O21         5.2820   -1.5610   -6.6890 o         1 663     -0.578100
     16 N19         5.8690   -2.4310   -4.6330 n         1 663     -0.468100
     17 C12         6.8330   -3.3360   -5.0900 ca        1 663      0.109600
     18 C13         7.8190   -2.9820   -6.0590 ca        1 663      0.105100
     19 O17         7.8860   -1.6630   -6.4710 os        1 663     -0.327900
     20 C18         7.8580   -1.4780   -7.8890 c3        1 663      0.118700
     21 C14         8.7690   -3.9070   -6.4970 ca        1 663     -0.127000
     22 C15         8.7830   -5.1950   -5.9600 ca        1 663      0.010400
     23 CL2         9.9460   -6.3150   -6.4860 cl        1 663     -0.077400
     24 C16         7.8550   -5.5640   -4.9870 ca        1 663     -0.099000
     25 C11         6.8910   -4.6490   -4.5590 ca        1 663     -0.169600
     26 C9          5.9260   -5.0660   -3.4940 c         1 663      0.692700
     27 O10         5.7540   -4.3850   -2.4650 o         1 663     -0.597100
     28 N7          5.2630   -6.2630   -3.7330 n         1 663     -0.540400
     29 C1          4.2860   -6.8490   -2.9020 ca        1 663      0.526200
     30 C6          4.1550   -6.5040   -1.5280 ca        1 663     -0.252300
     31 C5          3.1870   -7.1460   -0.7590 ca        1 663     -0.069000
     32 C4          2.3710   -8.1110   -1.3540 ca        1 663     -0.135900
     33 CL1         1.1800   -8.9210   -0.4690 cl        1 663     -0.071400
     34 C3          2.5650   -8.4020   -2.7210 ca        1 663      0.436200
     35 N2          3.4820   -7.8030   -3.4850 nb        1 663     -0.703000
     36 H341        3.2850   -1.1260   -0.7200 h1        1 663      0.057033
     37 H342        3.6790   -0.6660    1.0090 h1        1 663      0.057033
     38 H343        2.0040   -1.2600    0.5770 h1        1 663      0.057033
     39 H32         3.0720    1.6790    1.8050 h4        1 663      0.176000
     40 H31         1.9720    3.9060    0.5090 h4        1 663      0.041100
     41 H281        0.6000    0.7260   -2.8890 hc        1 663      0.078700
     42 H282        1.2740   -0.7300   -2.0430 hc        1 663      0.078700
     43 H24         2.7870    2.4300   -3.7970 h4        1 663      0.201000
     44 HN19        5.6310   -2.4840   -3.6630 hn        1 663      0.353500
     45 H181        6.9520   -1.9610   -8.3290 h1        1 663      0.049033
     46 H182        7.8050   -0.3660   -8.0000 h1        1 663      0.049033
     47 H183        8.7920   -1.8790   -8.3500 h1        1 663      0.049033
     48 H14         9.5140   -3.6050   -7.2500 ha        1 663      0.162000
     49 H16         7.8910   -6.5740   -4.5480 ha        1 663      0.158000
     50 HN7         5.3750   -6.6670   -4.6410 hn        1 663      0.341500
     51 H6          4.8040   -5.7420   -1.0690 ha        1 663      0.182000
     52 H5          3.0740   -6.8900    0.3060 ha        1 663      0.155000
     53 H3          1.9440   -9.1610   -3.2350 h4        1 663      0.039100
@<TRIPOS>BOND
     1    1    2 1   
     2    1   36 1   
     3    1   37 1   
     4    1   38 1   
     5    2    3 1   
     6    2    6 1   
     7    3    4 2   
     8    3   39 1   
     9    4    5 1   
    10    4   40 1   
    11    5    6 2   
    12    6    7 1   
    13    7    8 1   
    14    7   41 1   
    15    7   42 1   
    16    8    9 1   
    17    8   11 2   
    18    9   10 1   
    19    9   13 2   
    20   11   12 1   
    21   11   43 1   
    22   12   13 1   
    23   13   14 1   
    24   14   15 2   
    25   14   16 1   
    26   16   17 1   
    27   16   44 1   
    28   17   18 ar  
    29   17   25 ar  
    30   18   19 1   
    31   18   21 ar  
    32   19   20 1   
    33   20   45 1   
    34   20   46 1   
    35   20   47 1   
    36   21   22 ar  
    37   21   48 1   
    38   22   23 1   
    39   22   24 ar  
    40   24   25 ar  
    41   24   49 1   
    42   25   26 1   
    43   26   27 2   
    44   26   28 1   
    45   28   29 1   
    46   28   50 1   
    47   29   30 ar  
    48   29   35 ar  
    49   30   31 ar  
    50   30   51 1   
    51   31   32 ar  
    52   31   52 1   
    53   32   33 1   
    54   32   34 ar  
    55   34   35 ar  
    56   34   53 1   
@<TRIPOS>SUBSTRUCTURE
     1 663         1 TEMP              0 ****  ****    0 ROOT
