@<TRIPOS>MOLECULE
663
   53    50     1     0     0
SMALL
bcc


@<TRIPOS>ATOM
      1 C34         2.9520    1.1680   -5.2850 c3        1 663     -0.082000
      2 N33         1.7860    1.1250   -5.8480 n3        1 663     -0.145000
      3 C32         1.4800    1.5740   -7.1880 c2        1 663     -0.167000
      4 C31         0.0910    2.0910   -7.2490 c1        1 663     -0.177000
      5 N30        -0.4660    1.9840   -6.0820 n1        1 663     -0.145000
      6 C29         0.4650    1.3880   -5.1550 c2        1 663     -0.054000
      7 C28        -0.0290    0.4200   -4.0980 c3        1 663     -0.029000
      8 C25        -0.5080    1.2260   -2.8150 c2        1 663     -0.103000
      9 C26        -1.5930    0.6180   -1.8590 c2        1 663     -0.078000
     10 CL3        -2.3130   -0.9590   -2.2170 cl        1 663      0.055000
     11 C24         0.4980    2.0730   -2.0060 c1        1 663     -0.440000
     12 S23         0.0710    2.0350   -0.3130 s         1 663      0.726000
     13 C22        -1.3290    1.0640   -0.3790 c2        1 663     -0.470000
     14 C20        -1.6760    0.1640    0.7490 c2        1 663      0.402000
     15 O21        -2.3110   -0.8810    0.5320 o         1 663     -0.345000
     16 N19        -1.4380    0.5760    2.0550 n         1 663     -0.319000
     17 C12        -1.9470   -0.2460    3.2160 c2        1 663      0.112000
     18 C13        -3.3420   -0.3940    3.4090 c2        1 663      0.066000
     19 O17        -4.2410   -0.0220    2.3730 os        1 663     -0.209000
     20 C18        -5.2740   -0.9110    2.1930 c3        1 663     -0.072000
     21 C14        -3.8350   -0.9620    4.5900 c1        1 663     -0.130000
     22 C15        -2.9450   -1.3900    5.5910 c1        1 663     -0.106000
     23 CL2        -3.5570   -1.9410    7.1080 cl        1 663      0.003500
     24 C16        -1.5310   -1.2420    5.4010 c1        1 663     -0.068500
     25 C11        -1.0440   -0.6700    4.2130 c1        1 663     -0.147000
     26 C9          0.4670   -0.6680    3.9090 c2        1 663      0.366000
     27 O10         1.2890   -1.0350    4.7950 o         1 663     -0.313000
     28 N7          0.9150   -0.4750    2.5650 n         1 663     -0.326000
     29 C1          2.2900   -0.6990    2.2400 c2        1 663      0.132000
     30 C6          2.8160   -1.9830    2.3020 c2        1 663     -0.208000
     31 C5          4.0920   -2.1960    1.9630 c1        1 663     -0.062000
     32 C4          4.8950   -1.1310    1.5490 c1        1 663     -0.106000
     33 CL1         6.5490   -1.4240    1.0600 cl        1 663      0.003500
     34 C3          4.3660    0.1510    1.4890 c1        1 663     -0.068500
     35 N2          3.0880    0.3650    1.8280 n1        1 663     -0.147000
     36 H341        3.0670    0.3280   -4.6350 h1        1 663      0.097667
     37 H342        3.6140    1.1470   -5.9410 h1        1 663      0.097667
     38 H343        3.0360    2.0350   -4.7430 h1        1 663      0.097667
     39 H32         2.2480    2.0080   -7.8020 h4        1 663      0.176000
     40 H31        -0.1420    2.9020   -7.8690 ha        1 663      0.177000
     41 H281       -0.7430   -0.0740   -4.4400 hc        1 663      0.117500
     42 H282        0.6150   -0.1150   -3.8780 hc        1 663      0.117500
     43 H24         0.8920    2.9710   -2.4290 ha        1 663      0.199000
     44 HN19       -1.0300    1.3540    2.2070 hn        1 663      0.267000
     45 H181       -6.0540   -0.5420    2.5180 h1        1 663      0.088667
     46 H182       -5.0830   -1.7220    2.6680 h1        1 663      0.088667
     47 H183       -5.3860   -1.1170    1.1850 h1        1 663      0.088667
     48 H14        -4.7560   -1.0580    4.7100 ha        1 663      0.162000
     49 H16        -0.9440   -1.5210    6.0560 ha        1 663      0.164000
     50 HN7         0.3340   -0.3440    1.9280 hn        1 663      0.245000
     51 H6          2.2010   -2.8030    2.6200 ha        1 663      0.149000
     52 H5          4.4780   -3.1350    2.0080 ha        1 663      0.156000
     53 H3          4.9250    0.8950    1.2000 ha        1 663      0.164000
@<TRIPOS>BOND
     1    1    2 1   
     2    1   36 1   
     3    1   37 1   
     4    1   38 1   
     5    2    3 1   
     6    2    6 1   
     7    3    4 1   
     8    3   39 1   
     9    4   40 1   
    10    5    6 1   
    11    6    7 1   
    12    7    8 1   
    13    7   41 1   
    14    7   42 1   
    15    8    9 1   
    16    8   11 1   
    17    9   10 1   
    18    9   13 1   
    19   11   43 1   
    20   12   13 1   
    21   13   14 1   
    22   14   15 1   
    23   14   16 1   
    24   16   17 1   
    25   16   44 1   
    26   17   18 1   
    27   17   25 1   
    28   18   19 1   
    29   18   21 1   
    30   19   20 1   
    31   20   45 1   
    32   20   46 1   
    33   20   47 1   
    34   21   48 1   
    35   22   23 1   
    36   22   24 1   
    37   24   49 1   
    38   25   26 1   
    39   26   27 1   
    40   26   28 1   
    41   28   29 1   
    42   28   50 1   
    43   29   30 1   
    44   29   35 1   
    45   30   31 1   
    46   30   51 1   
    47   31   52 1   
    48   32   33 1   
    49   32   34 1   
    50   34   53 1   
@<TRIPOS>SUBSTRUCTURE
     1 663         1 TEMP              0 ****  ****    0 ROOT
