@<TRIPOS>MOLECULE
664
   63    67     1     0     0
SMALL
bcc


@<TRIPOS>ATOM
      1 N1          0.6000    3.2830    0.5500 nb        1 664     -0.700000
      2 C2          1.6760    2.4780    0.2880 ca        1 664      0.731900
      3 C6          0.1020    3.1630    1.8020 ca        1 664      0.459200
      4 N3          2.2930    1.5910    1.1250 nb        1 664     -0.706000
      5 N7          2.2540    2.5830   -1.0950 n4        1 664     -0.612100
      6 C4          1.7640    1.4940    2.3820 ca        1 664      0.595800
      7 C5          0.6350    2.2860    2.7520 ca        1 664     -0.323600
      8 C26         2.3380    0.6020    3.3590 cc        1 664     -0.277800
      9 C8          1.5420    1.7210   -2.0460 ca        1 664      0.019600
     10 C10         1.5000   -0.2470   -3.4640 ca        1 664     -0.051000
     11 C9          2.1670    0.5530   -2.5290 ca        1 664      0.028100
     12 C11         0.2340    0.0950   -3.9030 ca        1 664     -0.163000
     13 C13         0.2640    2.0770   -2.4840 ca        1 664     -0.187000
     14 C12        -0.4380    1.2560   -3.4140 ca        1 664      0.228600
     15 O14         3.3790    0.1430   -1.9880 os        1 664     -0.375900
     16 N15        -1.7430    1.5430   -3.7800 nh        1 664     -0.633000
     17 C16        -2.3010    0.8310   -4.9180 c3        1 664      0.199300
     18 C17        -3.7750    1.1460   -5.2340 c3        1 664      0.159800
     19 N18        -4.0750    2.5650   -5.1540 n3        1 664     -0.728600
     20 C19        -3.7520    3.0770   -3.8340 c3        1 664      0.159800
     21 C20        -2.2750    2.8540   -3.4570 c3        1 664      0.199300
     22 C21        -5.4230    2.8840   -5.5720 c3        1 664      0.153100
     23 C22         4.5540    0.4610   -2.7060 c3        1 664      0.816700
     24 F23         4.7680    1.8030   -2.6110 f         1 664     -0.205300
     25 F24         5.5430   -0.2000   -2.0660 f         1 664     -0.205300
     26 F25         4.4990    0.0980   -4.0050 f         1 664     -0.205300
     27 N27         3.3240   -0.3890    3.1270 na        1 664     -0.003100
     28 C28         2.0080    0.5890    4.7440 cd        1 664     -0.033000
     29 C29         2.7970   -0.4150    5.3470 cd        1 664     -0.221600
     30 C30         3.6000   -1.0050    4.3300 cc        1 664     -0.014600
     31 C31         4.5280   -2.1220    4.6140 c3        1 664     -0.041100
     32 C32         4.8780   -2.1500    6.1120 c3        1 664      0.105000
     33 N33         3.7950   -1.8580    7.0090 n         1 664     -0.572900
     34 C34         2.8500   -0.8750    6.7370 c         1 664      0.737100
     35 O35         2.0800   -0.4690    7.6270 o         1 664     -0.620500
     36 C36         3.9120   -0.7410    1.8710 c3        1 664      0.013600
     37 H6         -0.7690    3.8110    2.0280 h4        1 664      0.063100
     38 H7          3.2490    2.3010   -1.0670 hn        1 664      0.481300
     39 H5          0.1930    2.2060    3.7560 ha        1 664      0.191000
     40 H13        -0.2000    3.0000   -2.0960 ha        1 664      0.172000
     41 H10         2.0060   -1.1490   -3.8500 ha        1 664      0.178000
     42 HA         -0.2450   -0.5600   -4.6490 ha        1 664      0.169000
     43 H161       -1.6800    1.0450   -5.8360 h1        1 664      0.053450
     44 H162       -2.2510   -0.2750   -4.6990 h1        1 664      0.053450
     45 H201       -2.2080    2.9950   -2.3390 h1        1 664      0.053450
     46 H202       -1.6500    3.6490   -3.9580 h1        1 664      0.053450
     47 H171       -4.4290    0.5380   -4.5420 h1        1 664      0.053450
     48 H172       -3.9700    0.8000   -6.2880 h1        1 664      0.053450
     49 H191       -4.4020    2.6170   -3.0330 h1        1 664      0.053450
     50 H192       -3.9320    4.1890   -3.8300 h1        1 664      0.053450
     51 H211       -6.2120    2.4200   -4.9180 h1        1 664      0.045700
     52 H212       -5.5670    2.5200   -6.6230 h1        1 664      0.045700
     53 H213       -5.5500    3.9980   -5.5540 h1        1 664      0.045700
     54 H28         1.2930    1.2300    5.2570 ha        1 664      0.179000
     55 H361        4.5480    0.1040    1.4930 h1        1 664      0.068033
     56 H362        3.1110   -0.9710    1.1180 h1        1 664      0.068033
     57 H363        4.5560   -1.6520    2.0040 h1        1 664      0.068033
     58 H311        4.0350   -3.0880    4.3170 hc        1 664      0.076700
     59 H312        5.4840   -2.0300    4.0340 hc        1 664      0.076700
     60 H321        5.7230   -1.4170    6.2830 h1        1 664      0.052200
     61 H322        5.2650   -3.1810    6.3570 h1        1 664      0.052200
     62 H33         3.8970   -2.1530    7.9540 hn        1 664      0.332500
     63 H72         2.1820    3.5610   -1.4090 hn        1 664      0.481300
@<TRIPOS>BOND
     1    1    2 ar  
     2    1    3 ar  
     3    2    4 ar  
     4    2    5 1   
     5    3    7 ar  
     6    3   37 1   
     7    4    6 ar  
     8    5    9 1   
     9    5   38 1   
    10    5   63 1   
    11    6    7 ar  
    12    6    8 1   
    13    7   39 1   
    14    8   27 1   
    15    8   28 2   
    16    9   11 ar  
    17    9   13 ar  
    18   10   11 ar  
    19   10   12 ar  
    20   10   41 1   
    21   11   15 1   
    22   12   14 ar  
    23   12   42 1   
    24   13   14 ar  
    25   13   40 1   
    26   14   16 1   
    27   15   23 1   
    28   16   17 1   
    29   16   21 1   
    30   17   18 1   
    31   17   43 1   
    32   17   44 1   
    33   18   19 1   
    34   18   47 1   
    35   18   48 1   
    36   19   20 1   
    37   19   22 1   
    38   20   21 1   
    39   20   49 1   
    40   20   50 1   
    41   21   45 1   
    42   21   46 1   
    43   22   51 1   
    44   22   52 1   
    45   22   53 1   
    46   23   24 1   
    47   23   25 1   
    48   23   26 1   
    49   27   30 1   
    50   27   36 1   
    51   28   29 1   
    52   28   54 1   
    53   29   30 2   
    54   29   34 1   
    55   30   31 1   
    56   31   32 1   
    57   31   58 1   
    58   31   59 1   
    59   32   33 1   
    60   32   60 1   
    61   32   61 1   
    62   33   34 1   
    63   33   62 1   
    64   34   35 2   
    65   36   55 1   
    66   36   56 1   
    67   36   57 1   
@<TRIPOS>SUBSTRUCTURE
     1 664         1 TEMP              0 ****  ****    0 ROOT
