@<TRIPOS>MOLECULE
664
   62    66     1     0     0
SMALL
bcc


@<TRIPOS>ATOM
      1 N1         -0.2160    0.6550    0.2860 nb        1 664     -0.732000
      2 C2          1.1530    0.4730    0.1630 ca        1 664      0.871900
      3 C6         -0.6980    0.6500    1.5390 ca        1 664      0.461200
      4 N3          2.0230    0.2670    1.2240 nb        1 664     -0.766000
      5 N7          1.7590    0.5570   -1.1170 nh        1 664     -0.697300
      6 C4          1.4870    0.2750    2.4690 ca        1 664      0.569800
      7 C5          0.0990    0.4720    2.6790 ca        1 664     -0.398600
      8 C26         2.3370    0.0560    3.6340 cc        1 664     -0.218800
      9 C8          1.0140    0.3710   -2.3030 ca        1 664      0.176600
     10 C10         0.7420   -0.7570   -4.4640 ca        1 664     -0.074000
     11 C9          1.3990   -0.6240   -3.2410 ca        1 664     -0.007900
     12 C11        -0.3140    0.0850   -4.7820 ca        1 664     -0.196000
     13 C13        -0.0550    1.2150   -2.6410 ca        1 664     -0.149000
     14 C12        -0.7390    1.0830   -3.8740 ca        1 664      0.177600
     15 O14         2.3650   -1.5660   -2.8810 os        1 664     -0.361900
     16 N15        -1.8660    1.8950   -4.1310 nh        1 664     -0.640000
     17 C16        -2.6450    1.5800   -5.3160 c3        1 664      0.189300
     18 C17        -3.9730    2.3620   -5.3760 c3        1 664      0.163800
     19 N18        -3.7960    3.7950   -5.1890 n3        1 664     -0.732600
     20 C19        -3.0300    4.0950   -3.9890 c3        1 664      0.163800
     21 C20        -1.6970    3.3240   -3.9190 c3        1 664      0.189300
     22 C21        -5.0450    4.5190   -5.2450 c3        1 664      0.156100
     23 C22         3.6670   -1.3730   -3.3700 c3        1 664      0.808700
     24 F23         4.2350   -0.2630   -2.8320 f         1 664     -0.218633
     25 F24         4.3620   -2.4640   -2.9640 f         1 664     -0.218633
     26 F25         3.7190   -1.2870   -4.7220 f         1 664     -0.218633
     27 N27         3.7470    0.1160    3.6570 na        1 664     -0.006100
     28 C28         1.8780   -0.2630    4.9340 cd        1 664     -0.077000
     29 C29         3.0280   -0.3940    5.7580 cd        1 664     -0.225600
     30 C30         4.1670   -0.1520    4.9480 cc        1 664     -0.060600
     31 C31         5.5450   -0.2330    5.4770 c3        1 664     -0.027100
     32 C32         5.5350   -0.0800    7.0070 c3        1 664      0.108000
     33 N33         4.4450   -0.7180    7.6900 n         1 664     -0.577900
     34 C34         3.1490   -0.7270    7.1750 c         1 664      0.742100
     35 O35         2.1950   -1.0480    7.9110 o         1 664     -0.640500
     36 C36         4.6140    0.3970    2.5540 c3        1 664      0.019600
     37 H6         -1.7910    0.7970    1.6240 h4        1 664      0.031100
     38 H7          2.6730    0.1410   -1.1580 hn        1 664      0.441800
     39 H5         -0.3350    0.4860    3.6850 ha        1 664      0.162000
     40 H13        -0.3770    1.9840   -1.9190 ha        1 664      0.166000
     41 H10         1.0770   -1.5310   -5.1730 ha        1 664      0.152000
     42 HA         -0.8060   -0.0440   -5.7580 ha        1 664      0.143000
     43 H161       -2.0610    1.7870   -6.2590 h1        1 664      0.046950
     44 H162       -2.9020    0.4830   -5.2890 h1        1 664      0.046950
     45 H201       -1.2620    3.4980   -2.8960 h1        1 664      0.046950
     46 H202       -0.9860    3.7590   -4.6810 h1        1 664      0.046950
     47 H171       -4.6850    1.9250   -4.6170 h1        1 664      0.041200
     48 H172       -4.4140    2.2000   -6.3990 h1        1 664      0.041200
     49 H191       -3.6210    3.8820   -3.0500 h1        1 664      0.041200
     50 H192       -2.7850    5.1940   -4.0020 h1        1 664      0.041200
     51 H211       -5.7580    4.2450   -4.4180 h1        1 664      0.034367
     52 H212       -4.8280    5.6170   -5.1780 h1        1 664      0.034367
     53 H213       -5.5410    4.3070   -6.2280 h1        1 664      0.034367
     54 H28         0.8470   -0.3980    5.2500 ha        1 664      0.172000
     55 H361        4.3170    1.3650    2.0680 h1        1 664      0.064367
     56 H362        5.6710    0.4790    2.9210 h1        1 664      0.064367
     57 H363        4.5530   -0.4290    1.7950 h1        1 664      0.064367
     58 H311        5.9880   -1.2260    5.1940 hc        1 664      0.065200
     59 H312        6.2030    0.5700    5.0520 hc        1 664      0.065200
     60 H321        5.5390    1.0260    7.2440 h1        1 664      0.039200
     61 H322        6.4970   -0.5160    7.4060 h1        1 664      0.039200
     62 H33         4.5500   -0.8590    8.6680 hn        1 664      0.318500
@<TRIPOS>BOND
     1    1    2 ar  
     2    1    3 ar  
     3    2    4 ar  
     4    2    5 1   
     5    3    7 ar  
     6    3   37 1   
     7    4    6 ar  
     8    5    9 1   
     9    5   38 1   
    10    6    7 ar  
    11    6    8 1   
    12    7   39 1   
    13    8   27 1   
    14    8   28 2   
    15    9   11 ar  
    16    9   13 ar  
    17   10   11 ar  
    18   10   12 ar  
    19   10   41 1   
    20   11   15 1   
    21   12   14 ar  
    22   12   42 1   
    23   13   14 ar  
    24   13   40 1   
    25   14   16 1   
    26   15   23 1   
    27   16   17 1   
    28   16   21 1   
    29   17   18 1   
    30   17   43 1   
    31   17   44 1   
    32   18   19 1   
    33   18   47 1   
    34   18   48 1   
    35   19   20 1   
    36   19   22 1   
    37   20   21 1   
    38   20   49 1   
    39   20   50 1   
    40   21   45 1   
    41   21   46 1   
    42   22   51 1   
    43   22   52 1   
    44   22   53 1   
    45   23   24 1   
    46   23   25 1   
    47   23   26 1   
    48   27   30 1   
    49   27   36 1   
    50   28   29 1   
    51   28   54 1   
    52   29   30 2   
    53   29   34 1   
    54   30   31 1   
    55   31   32 1   
    56   31   58 1   
    57   31   59 1   
    58   32   33 1   
    59   32   60 1   
    60   32   61 1   
    61   33   34 1   
    62   33   62 1   
    63   34   35 2   
    64   36   55 1   
    65   36   56 1   
    66   36   57 1   
@<TRIPOS>SUBSTRUCTURE
     1 664         1 TEMP              0 ****  ****    0 ROOT
