@<TRIPOS>MOLECULE
664
   62    57     1     0     0
SMALL
bcc


@<TRIPOS>ATOM
      1 N1         -0.8580    0.9810    1.0210 n1        1 664     -0.213000
      2 C2          0.3010    0.2460    0.9060 c1        1 664      0.157000
      3 C6         -1.3170    1.3200    2.2280 c1        1 664     -0.004000
      4 N3          0.9820   -0.1360    2.0260 n1        1 664     -0.238000
      5 N7          0.7580   -0.1440   -0.3590 n3        1 664     -0.220000
      6 C4          0.5230    0.2020    3.2350 c1        1 664      0.134000
      7 C5         -0.6360    0.9370    3.3510 c1        1 664     -0.268000
      8 C26         1.2690   -0.2460    4.4830 c2        1 664     -0.088000
      9 C8          0.2620    0.5320   -1.5480 c2        1 664      0.091000
     10 C10         0.0330    2.5550   -2.8840 c1        1 664     -0.135000
     11 C9          0.5570    1.8860   -1.7570 c1        1 664     -0.045000
     12 C11        -0.7860    1.8600   -3.7960 c1        1 664     -0.135000
     13 C13        -0.5460   -0.1520   -2.4490 c2        1 664     -0.136000
     14 C12        -1.0760    0.5220   -3.5870 c1        1 664      0.085000
     15 O14         1.5290    2.5420   -0.9190 os        1 664     -0.247000
     16 N15        -1.8730   -0.2270   -4.5860 n3        1 664     -0.242000
     17 C16        -1.0780   -0.3270   -5.9280 c3        1 664     -0.081000
     18 C17        -2.1470   -1.2670   -6.7050 c3        1 664     -0.097500
     19 N18        -3.3960   -0.6550   -6.8660 n3        1 664     -0.253000
     20 C19        -3.5580    0.3540   -6.0340 c3        1 664     -0.097500
     21 C20        -3.1400    0.3810   -4.7310 c3        1 664     -0.081000
     22 C21        -3.5340   -0.1650   -8.2850 c3        1 664     -0.124000
     23 C22         2.6160    3.1030   -1.6280 c3        1 664      0.525000
     24 F23         3.7430    3.1040   -0.8220 f         1 664     -0.146333
     25 F24         2.3220    4.3240   -1.9670 f         1 664     -0.146333
     26 F25         2.8510    2.3920   -2.7070 f         1 664     -0.146333
     27 N27         1.0290   -1.4710    5.1170 n2        1 664     -0.074000
     28 C28         2.2150    0.4560    5.2360 c1        1 664     -0.077000
     29 C29         2.5540   -0.3140    6.3120 c1        1 664     -0.204000
     30 C30         1.8070   -1.5270    6.2350 c1        1 664     -0.029000
     31 C31         2.0840   -2.6040    7.3160 c2        1 664     -0.113000
     32 C32         3.1860   -2.3550    8.1840 c3        1 664     -0.008000
     33 N33         3.3980   -1.0480    8.5570 n3        1 664     -0.387000
     34 C34         3.4870   -0.1160    7.5680 c1        1 664      0.379000
     35 O35         3.9530    0.9920    7.8130 o         1 664     -0.365000
     36 C36         0.0610   -2.4350    4.7290 c2        1 664     -0.080000
     37 H6         -2.1470    1.8470    2.3110 ha        1 664      0.166000
     38 H7          1.3560   -0.8350   -0.4390 hn        1 664      0.239000
     39 H5         -0.9880    1.1960    4.2760 ha        1 664      0.163000
     40 H13        -0.7520   -1.1050   -2.3000 ha        1 664      0.168000
     41 H10         0.2410    3.5200   -3.0330 ha        1 664      0.147500
     42 HA         -1.1520    2.3260   -4.5830 ha        1 664      0.147500
     43 H161       -0.9820    0.5370   -6.3500 h1        1 664      0.099500
     44 H162       -0.2070   -0.7830   -5.8070 h1        1 664      0.099500
     45 H201       -3.0850    1.3030   -4.4330 h1        1 664      0.099500
     46 H202       -3.7790   -0.0900   -4.1850 h1        1 664      0.099500
     47 H171       -1.7980   -1.4830   -7.5650 h1        1 664      0.095000
     48 H172       -2.2700   -2.1150   -6.1830 h1        1 664      0.095000
     49 H191       -3.1460    1.1090   -6.4570 h1        1 664      0.095000
     50 H192       -4.4970    0.5280   -6.0120 h1        1 664      0.095000
     51 H211       -2.9900   -0.7470   -8.8940 h1        1 664      0.073000
     52 H212       -3.2130    0.7530   -8.3430 h1        1 664      0.073000
     53 H213       -4.5090   -0.2030   -8.5650 h1        1 664      0.073000
     54 H28         2.5700    1.3630    5.0310 DU        1 664      0.172000
     55 H361       -0.8020   -2.0070    4.6410 ha        1 664      0.103667
     56 H362        0.0080   -3.1610    5.4360 ha        1 664      0.103667
     57 H363        0.3310   -2.8530    3.8260 ha        1 664      0.103667
     58 H311        2.2420   -3.4520    6.8610 ha        1 664      0.104500
     59 H312        1.2580   -2.7010    7.8780 ha        1 664      0.104500
     60 H321        3.0490   -2.9100    9.0360 h1        1 664      0.079000
     61 H322        3.9940   -2.6740    7.7410 h1        1 664      0.079000
     62 H33         3.6920   -0.8660    9.3530 hn        1 664      0.232000
@<TRIPOS>BOND
     1    1    3 1   
     2    2    4 1   
     3    2    5 1   
     4    3   37 1   
     5    5    9 1   
     6    5   38 1   
     7    6    7 1   
     8    6    8 1   
     9    7   39 1   
    10    8   27 1   
    11    8   28 1   
    12    9   11 1   
    13    9   13 1   
    14   10   12 1   
    15   10   41 1   
    16   11   15 1   
    17   12   42 1   
    18   13   14 1   
    19   13   40 1   
    20   14   16 1   
    21   15   23 1   
    22   16   17 1   
    23   16   21 1   
    24   17   18 1   
    25   17   43 1   
    26   17   44 1   
    27   18   19 1   
    28   18   47 1   
    29   18   48 1   
    30   19   20 1   
    31   19   22 1   
    32   20   21 1   
    33   20   49 1   
    34   20   50 1   
    35   21   45 1   
    36   21   46 1   
    37   22   51 1   
    38   22   52 1   
    39   22   53 1   
    40   23   24 1   
    41   23   25 1   
    42   23   26 1   
    43   27   30 1   
    44   28   29 1   
    45   29   30 1   
    46   31   32 1   
    47   31   58 1   
    48   31   59 1   
    49   32   33 1   
    50   32   60 1   
    51   32   61 1   
    52   33   34 1   
    53   33   62 1   
    54   34   35 1   
    55   36   55 1   
    56   36   56 1   
    57   36   57 1   
@<TRIPOS>SUBSTRUCTURE
     1 664         1 TEMP              0 ****  ****    0 ROOT
