@<TRIPOS>MOLECULE
664
   62    66     1     0     0
SMALL
bcc


@<TRIPOS>ATOM
      1 N1         -0.2180    0.6410    0.2810 nb        1 664     -0.732000
      2 C2          1.1530    0.4680    0.1620 ca        1 664      0.871900
      3 C6         -0.7040    0.6280    1.5320 ca        1 664      0.461200
      4 N3          2.0210    0.2630    1.2250 nb        1 664     -0.766000
      5 N7          1.7620    0.5600   -1.1160 nu        1 664     -0.697300
      6 C4          1.4810    0.2620    2.4680 ca        1 664      0.569800
      7 C5          0.0910    0.4500    2.6750 ca        1 664     -0.398600
      8 C26         2.3280    0.0430    3.6350 cc        1 664     -0.218800
      9 C8          1.0220    0.3780   -2.3050 ca        1 664      0.176600
     10 C10         0.7590   -0.7400   -4.4720 ca        1 664     -0.074000
     11 C9          1.4130   -0.6120   -3.2470 ca        1 664     -0.007900
     12 C11        -0.2980    0.0990   -4.7900 ca        1 664     -0.196000
     13 C13        -0.0500    1.2200   -2.6420 ca        1 664     -0.149000
     14 C12        -0.7300    1.0910   -3.8780 ca        1 664      0.177600
     15 O14         2.3810   -1.5510   -2.8890 os        1 664     -0.361900
     16 N15        -1.8590    1.9000   -4.1340 nh        1 664     -0.640000
     17 C16        -2.6340    1.5880   -5.3220 c3        1 664      0.189300
     18 C17        -3.9630    2.3670   -5.3830 c3        1 664      0.163800
     19 N18        -3.7920    3.7990   -5.1880 n3        1 664     -0.732600
     20 C19        -3.0300    4.0970   -3.9850 c3        1 664      0.163800
     21 C20        -1.6950    3.3290   -3.9150 c3        1 664      0.189300
     22 C21        -5.0430    4.5190   -5.2440 c3        1 664      0.156100
     23 C22         3.6840   -1.3510   -3.3730 c3        1 664      0.808700
     24 F23         4.2460   -0.2410   -2.8280 f         1 664     -0.218633
     25 F24         4.3810   -2.4420   -2.9710 f         1 664     -0.218633
     26 F25         3.7390   -1.2580   -4.7250 f         1 664     -0.218633
     27 N27         3.7380    0.1140    3.6630 na        1 664     -0.006100
     28 C28         1.8680   -0.2860    4.9310 cd        1 664     -0.077000
     29 C29         3.0160   -0.4120    5.7590 cd        1 664     -0.224600
     30 C30         4.1560   -0.1580    4.9530 cc        1 664     -0.060600
     31 C31         5.5330   -0.2300    5.4870 c3        1 664     -0.027100
     32 C32         5.5170   -0.0850    7.0180 c3        1 664      0.108000
     33 N33         4.4290   -0.7360    7.6930 ns        1 664     -0.577900
     34 C34         3.1350   -0.7520    7.1740 c         1 664      0.742100
     35 O35         2.1820   -1.0840    7.9050 o         1 664     -0.640500
     36 C36         4.6060    0.4080    2.5640 c3        1 664      0.019600
     37 H6         -1.7980    0.7680    1.6150 h4        1 664      0.031100
     38 H7          2.6780    0.1480   -1.1560 hn        1 664      0.441800
     39 H5         -0.3450    0.4570    3.6790 ha        1 664      0.162000
     40 H13        -0.3760    1.9830   -1.9170 ha        1 664      0.166000
     41 H10         1.0990   -1.5100   -5.1840 ha        1 664      0.152000
     42 HA         -0.7870   -0.0270   -5.7680 ha        1 664      0.143000
     43 H161       -2.8870    0.4910   -5.3020 h1        1 664      0.046950
     44 H162       -2.0470    1.8020   -6.2630 h1        1 664      0.046950
     45 H201       -1.2630    3.5000   -2.8900 h1        1 664      0.046950
     46 H202       -0.9830    3.7690   -4.6730 h1        1 664      0.046950
     47 H171       -4.6760    1.9240   -4.6270 h1        1 664      0.041200
     48 H172       -4.4020    2.2080   -6.4080 h1        1 664      0.041200
     49 H191       -2.7880    5.1960   -3.9930 h1        1 664      0.041200
     50 H192       -3.6230    3.8770   -3.0490 h1        1 664      0.041200
     51 H211       -4.8300    5.6180   -5.1730 h1        1 664      0.034367
     52 H212       -5.5350    4.3100   -6.2300 h1        1 664      0.034367
     53 H213       -5.7580    4.2390   -4.4210 h1        1 664      0.034367
     54 H28         0.8370   -0.4310    5.2430 ha        1 664      0.172000
     55 H361        5.6620    0.4970    2.9350 h1        1 664      0.064367
     56 H362        4.3030    1.3760    2.0820 h1        1 664      0.064367
     57 H363        4.5550   -0.4150    1.8010 h1        1 664      0.064367
     58 H311        6.1860    0.5810    5.0680 hc        1 664      0.065200
     59 H312        5.9850   -1.2180    5.2000 hc        1 664      0.065200
     60 H321        5.5110    1.0200    7.2600 h1        1 664      0.039200
     61 H322        6.4800   -0.5150    7.4170 h1        1 664      0.039200
     62 H33         4.5320   -0.8810    8.6710 hn        1 664      0.318500
@<TRIPOS>BOND
     1    1    2 ar  
     2    1    3 ar  
     3    2    4 ar  
     4    2    5 1   
     5    3    7 ar  
     6    3   37 1   
     7    4    6 ar  
     8    5    9 1   
     9    5   38 1   
    10    6    7 ar  
    11    6    8 1   
    12    7   39 1   
    13    8   27 1   
    14    8   28 2   
    15    9   11 ar  
    16    9   13 ar  
    17   10   11 ar  
    18   10   12 ar  
    19   10   41 1   
    20   11   15 1   
    21   12   14 ar  
    22   12   42 1   
    23   13   14 ar  
    24   13   40 1   
    25   14   16 1   
    26   15   23 1   
    27   16   17 1   
    28   16   21 1   
    29   17   18 1   
    30   17   43 1   
    31   17   44 1   
    32   18   19 1   
    33   18   47 1   
    34   18   48 1   
    35   19   20 1   
    36   19   22 1   
    37   20   21 1   
    38   20   49 1   
    39   20   50 1   
    40   21   45 1   
    41   21   46 1   
    42   22   51 1   
    43   22   52 1   
    44   22   53 1   
    45   23   24 1   
    46   23   25 1   
    47   23   26 1   
    48   27   30 1   
    49   27   36 1   
    50   28   29 1   
    51   28   54 1   
    52   29   30 2   
    53   29   34 1   
    54   30   31 1   
    55   31   32 1   
    56   31   58 1   
    57   31   59 1   
    58   32   33 1   
    59   32   60 1   
    60   32   61 1   
    61   33   34 1   
    62   33   62 1   
    63   34   35 2   
    64   36   55 1   
    65   36   56 1   
    66   36   57 1   
@<TRIPOS>SUBSTRUCTURE
     1 664         1 TEMP              0 ****  ****    0 ROOT
