@<TRIPOS>MOLECULE
664
   62    66     1     0     0
SMALL
bcc


@<TRIPOS>ATOM
      1 N1          0.0600    1.5100    0.6700 nb        1 664     -0.732000
      2 C2          0.4600    0.3450    0.0330 ca        1 664      0.871900
      3 C6          1.0470    2.3070    1.1090 ca        1 664      0.461200
      4 N3          1.7800   -0.0450   -0.1490 nb        1 664     -0.766000
      5 N7         -0.5150   -0.5090   -0.5440 nh        1 664     -0.697300
      6 C4          2.7380    0.7960    0.3100 ca        1 664      0.569800
      7 C5          2.4100    2.0150    0.9560 ca        1 664     -0.398600
      8 C26         4.1470    0.4510    0.1630 cc        1 664     -0.218800
      9 C8         -1.8650   -0.4760   -0.1310 ca        1 664      0.176600
     10 C10        -3.8550   -1.6730    0.6590 ca        1 664     -0.074000
     11 C9         -2.4970   -1.6580    0.3440 ca        1 664     -0.007900
     12 C11        -4.6160   -0.5220    0.5210 ca        1 664     -0.196000
     13 C13        -2.6500    0.6800   -0.2660 ca        1 664     -0.149000
     14 C12        -4.0270    0.6800    0.0630 ca        1 664      0.177600
     15 O14        -1.7200   -2.7840    0.6200 os        1 664     -0.361900
     16 N15        -4.7540    1.8890   -0.0040 nh        1 664     -0.640000
     17 C16        -6.1030    1.8750    0.5340 c3        1 664      0.189300
     18 C17        -6.7180    3.2860    0.6300 c3        1 664      0.163800
     19 N18        -6.6220    4.0320   -0.6160 n3        1 664     -0.732600
     20 C19        -5.2610    4.0540   -1.1330 c3        1 664      0.163800
     21 C20        -4.6370    2.6480   -1.2400 c3        1 664      0.189300
     22 C21        -7.1980    5.3540   -0.5160 c3        1 664      0.156100
     23 C22        -1.7210   -3.8170   -0.3320 c3        1 664      0.808700
     24 F23        -1.1260   -3.4210   -1.4880 f         1 664     -0.218633
     25 F24        -0.9850   -4.8100    0.2240 f         1 664     -0.218633
     26 F25        -2.9630   -4.2820   -0.6090 f         1 664     -0.218633
     27 N27         4.6740   -0.5550   -0.6770 na        1 664     -0.006100
     28 C28         5.2180    1.0670    0.8530 cd        1 664     -0.077000
     29 C29         6.4110    0.4290    0.4210 cd        1 664     -0.224600
     30 C30         6.0480   -0.5650   -0.5240 cc        1 664     -0.060600
     31 C31         7.0460   -1.4480   -1.1660 c3        1 664     -0.027100
     32 C32         8.4450   -0.8150   -1.0830 c3        1 664      0.108000
     33 N33         8.7470   -0.1290    0.1410 n         1 664     -0.577900
     34 C34         7.8010    0.6480    0.8100 c         1 664      0.742100
     35 O35         8.1700    1.4320    1.7060 o         1 664     -0.640500
     36 C36         3.9370   -1.4270   -1.5400 c3        1 664      0.019600
     37 H6          0.7150    3.2330    1.6150 h4        1 664      0.031100
     38 H7         -0.1800   -1.4400   -0.7220 hn        1 664      0.441800
     39 H5          3.1840    2.6990    1.3200 ha        1 664      0.162000
     40 H13        -2.1730    1.6090   -0.6190 ha        1 664      0.166000
     41 H10        -4.3140   -2.6110    1.0110 ha        1 664      0.152000
     42 HA         -5.6860   -0.5720    0.7730 ha        1 664      0.143000
     43 H161       -6.7860    1.2250   -0.0870 h1        1 664      0.046950
     44 H162       -6.0630    1.4540    1.5790 h1        1 664      0.046950
     45 H201       -3.5490    2.7830   -1.4910 h1        1 664      0.046950
     46 H202       -5.1290    2.0970   -2.0940 h1        1 664      0.046950
     47 H171       -7.8100    3.1630    0.8750 h1        1 664      0.041200
     48 H172       -6.2290    3.8360    1.4860 h1        1 664      0.041200
     49 H191       -5.2940    4.4890   -2.1710 h1        1 664      0.041200
     50 H192       -4.5850    4.7040   -0.5040 h1        1 664      0.041200
     51 H211       -6.6630    6.0200    0.2160 h1        1 664      0.034367
     52 H212       -7.1670    5.8380   -1.5270 h1        1 664      0.034367
     53 H213       -8.2680    5.2570   -0.1940 h1        1 664      0.034367
     54 H28         5.1510    1.8670    1.5860 ha        1 664      0.172000
     55 H361        3.2820   -0.8260   -2.2260 h1        1 664      0.064367
     56 H362        4.6520   -2.0360   -2.1540 h1        1 664      0.064367
     57 H363        3.2950   -2.1200   -0.9310 h1        1 664      0.064367
     58 H311        7.0450   -2.4420   -0.6420 hc        1 664      0.065200
     59 H312        6.8100   -1.6290   -2.2470 hc        1 664      0.065200
     60 H321        9.2060   -1.6370   -1.2170 h1        1 664      0.039200
     61 H322        8.5550   -0.1050   -1.9570 h1        1 664      0.039200
     62 H33         9.7060    0.0580    0.3260 hn        1 664      0.318500
@<TRIPOS>BOND
     1    1    2 ar  
     2    1    3 ar  
     3    2    4 ar  
     4    2    5 1   
     5    3    7 ar  
     6    3   37 1   
     7    4    6 ar  
     8    5    9 1   
     9    5   38 1   
    10    6    7 ar  
    11    6    8 1   
    12    7   39 1   
    13    8   27 1   
    14    8   28 2   
    15    9   11 ar  
    16    9   13 ar  
    17   10   11 ar  
    18   10   12 ar  
    19   10   41 1   
    20   11   15 1   
    21   12   14 ar  
    22   12   42 1   
    23   13   14 ar  
    24   13   40 1   
    25   14   16 1   
    26   15   23 1   
    27   16   17 1   
    28   16   21 1   
    29   17   18 1   
    30   17   43 1   
    31   17   44 1   
    32   18   19 1   
    33   18   47 1   
    34   18   48 1   
    35   19   20 1   
    36   19   22 1   
    37   20   21 1   
    38   20   49 1   
    39   20   50 1   
    40   21   45 1   
    41   21   46 1   
    42   22   51 1   
    43   22   52 1   
    44   22   53 1   
    45   23   24 1   
    46   23   25 1   
    47   23   26 1   
    48   27   30 1   
    49   27   36 1   
    50   28   29 1   
    51   28   54 1   
    52   29   30 2   
    53   29   34 1   
    54   30   31 1   
    55   31   32 1   
    56   31   58 1   
    57   31   59 1   
    58   32   33 1   
    59   32   60 1   
    60   32   61 1   
    61   33   34 1   
    62   33   62 1   
    63   34   35 2   
    64   36   55 1   
    65   36   56 1   
    66   36   57 1   
@<TRIPOS>SUBSTRUCTURE
     1 664         1 TEMP              0 ****  ****    0 ROOT
