@<TRIPOS>MOLECULE
665
   43    41     1     0     0
SMALL
bcc


@<TRIPOS>ATOM
      1 C1         -0.5130    0.0700    1.4060 c2        1 665     -0.221000
      2 C2          2.8900   -1.2780    1.0450 c3        1 665     -0.274000
      3 C3          3.8260   -0.1410    1.1100 c1        1 665     -0.073000
      4 C4          0.3360   -2.7090    3.5260 c3        1 665     -0.208000
      5 C5         -0.1810   -1.2920    3.4580 c3        1 665     -0.139000
      6 C6         -0.8060   -0.9970    2.1450 c2        1 665     -0.170000
      7 C7          5.8710   -1.4730    0.8840 c2        1 665      0.220000
      8 C8          8.0620    1.3970    2.3080 c2        1 665     -0.143000
      9 C9          6.7500    1.1580    2.3420 c2        1 665     -0.169000
     10 C10         5.9260    0.9860    1.0970 c3        1 665      0.008000
     11 N11         5.1510   -0.2520    1.0440 n         1 665     -0.213000
     12 C12         5.9920    1.1640    3.6240 c2        1 665      0.349000
     13 N13         5.9930    0.0080    4.4180 ns        1 665     -0.322000
     14 O14         5.3630    2.1520    4.0340 o         1 665     -0.307000
     15 O15         7.0920   -1.5000    0.6960 o         1 665     -0.319000
     16 C17         6.5560   -2.3320    4.7920 c2        1 665     -0.256000
     17 C18         5.7510   -2.5360    5.9890 c2        1 665     -0.214000
     18 C19         4.4750   -2.9510    5.8130 c2        1 665     -0.036000
     19 C20         4.0010   -3.0840    4.4490 c2        1 665     -0.417000
     20 C21         4.7590   -2.7670    3.4010 c1        1 665      0.096000
     21 C22         6.6230   -1.1690    4.0820 c2        1 665      0.072000
     22 H8          1.9020   -0.9250    1.4470 hc        1 665      0.102000
     23 H1          0.2350    0.8170    1.7050 ha        1 665      0.116500
     24 H2         -1.0050    0.2690    0.4450 ha        1 665      0.116500
     25 H10         2.7380   -1.5820   -0.0230 hc        1 665      0.102000
     26 H3          3.2010   -2.1790    1.6350 hc        1 665      0.102000
     27 H41         1.1560   -2.8610    2.7810 hc        1 665      0.070667
     28 H42         0.7390   -2.9230    4.5460 hc        1 665      0.070667
     29 H4         -0.4790   -3.4400    3.3070 hc        1 665      0.070667
     30 H5         -0.9500   -1.1370    4.2640 hc        1 665      0.089000
     31 H7          0.6610   -0.5770    3.6640 hc        1 665      0.089000
     32 H6         -1.5590   -1.7320    1.8150 ha        1 665      0.117000
     33 H81         5.2400   -2.3910    0.9550 h5        1 665      0.165000
     34 H82         8.6540    1.5850    3.2150 ha        1 665      0.132500
     35 H9          8.6250    1.4250    1.3640 ha        1 665      0.132500
     36 H101        6.6100    1.0020    0.2000 h1        1 665      0.130500
     37 H102        5.2050    1.8550    1.0320 h1        1 665      0.130500
     38 HN13        5.4560    0.0410    5.2610 hn        1 665      0.250000
     39 H19         7.1700   -3.1900    4.4690 ha        1 665      0.172000
     40 H20         3.7850   -3.1800    6.6370 ha        1 665      0.150000
     41 H21         2.9700   -3.4560    4.3010 ha        1 665      0.184000
     42 H17         7.2290   -1.1340    3.1480 h4        1 665      0.175000
     43 Br1         6.5360   -2.2780    7.6560 br        1 665      0.067000
@<TRIPOS>BOND
     1    1    6 1   
     2    1   23 1   
     3    1   24 1   
     4    2    3 1   
     5    2   22 1   
     6    2   25 1   
     7    2   26 1   
     8    3   11 1   
     9    4    5 1   
    10    4   27 1   
    11    4   28 1   
    12    4   29 1   
    13    5    6 1   
    14    5   30 1   
    15    5   31 1   
    16    6   32 1   
    17    7   11 1   
    18    7   15 1   
    19    7   33 1   
    20    8    9 1   
    21    8   34 1   
    22    8   35 1   
    23    9   10 1   
    24    9   12 1   
    25   10   11 1   
    26   10   36 1   
    27   10   37 1   
    28   12   13 1   
    29   12   14 1   
    30   13   21 1   
    31   13   38 1   
    32   16   17 1   
    33   16   21 1   
    34   16   39 1   
    35   17   18 1   
    36   17   43 1   
    37   18   19 1   
    38   18   40 1   
    39   19   20 1   
    40   19   41 1   
    41   21   42 1   
@<TRIPOS>SUBSTRUCTURE
     1 665         1 TEMP              0 ****  ****    0 ROOT
