@<TRIPOS>MOLECULE
665
   43    41     1     0     0
SMALL
bcc


@<TRIPOS>ATOM
      1 C1         -3.5270   -2.2730    1.7260 c3        1 665     -0.152500
      2 C2         -2.0280   -2.1240    1.5230 c3        1 665     -0.173500
      3 C3         -1.6330   -1.7950    0.0190 c3        1 665      0.046000
      4 C4         -2.2040   -3.1350   -0.6200 c3        1 665     -0.173500
      5 C5         -3.7020   -3.2920   -0.4340 c3        1 665     -0.152500
      6 C6         -4.1640   -2.5060    0.5600 c3        1 665     -0.158000
      7 C7          0.5310   -2.1400    0.6830 c1        1 665      0.304000
      8 C8          1.8300   -1.2490    0.4420 c2        1 665     -0.198000
      9 C9          1.4950   -0.4990   -0.9270 c3        1 665     -0.146000
     10 C10         0.3490   -1.1930   -1.3690 c3        1 665     -0.028000
     11 N11        -0.3640   -1.6970   -0.1310 n3        1 665     -0.324000
     12 C12         1.2920    1.0520   -0.7790 c2        1 665      0.315000
     13 N13         2.4300    1.9060   -0.5180 n         1 665     -0.325000
     14 O14         0.1970    1.5410   -0.9680 o         1 665     -0.339000
     15 O15         0.3330   -2.8710    1.6320 o         1 665     -0.341000
     16 BR1         1.6390    7.3810   -1.3460 br        1 665      0.058000
     17 C17         1.7280    4.5360   -0.9540 c1        1 665     -0.131000
     18 C18         2.3800    5.7390   -0.7010 c1        1 665     -0.140000
     19 C19         3.5640    5.7480    0.0210 c1        1 665     -0.130000
     20 C20         4.0990    4.5560    0.4930 c1        1 665     -0.138000
     21 C21         3.4480    3.3550    0.2410 c1        1 665     -0.138000
     22 C22         2.2630    3.3450   -0.4830 c1        1 665      0.076000
     23 H8         -3.6950   -3.0230    2.3370 hc        1 665      0.081750
     24 H1         -3.8790   -1.4510    2.1240 hc        1 665      0.081750
     25 H2         -1.5910   -2.9570    1.7880 hc        1 665      0.095250
     26 H10        -1.7050   -1.4030    2.0960 hc        1 665      0.095250
     27 H3         -2.1050   -1.0070   -0.3140 h1        1 665      0.093000
     28 H41        -1.7540   -3.8980   -0.2030 hc        1 665      0.095250
     29 H42        -2.0050   -3.1360   -1.5770 hc        1 665      0.095250
     30 H4         -4.1550   -3.0500   -1.2690 hc        1 665      0.081750
     31 H5         -3.9030   -4.2290   -0.2210 hc        1 665      0.081750
     32 H7         -4.3200   -1.6260    0.1580 hc        1 665      0.078500
     33 H6         -5.0460   -2.8680    0.8030 hc        1 665      0.078500
     34 H81         2.6730   -1.7350    0.3500 ha        1 665      0.124500
     35 H82         2.0090   -0.6630    1.2050 ha        1 665      0.124500
     36 H9          2.2310   -0.5480   -1.5690 hc        1 665      0.125000
     37 H101        0.6120   -1.9500   -1.9350 h1        1 665      0.109000
     38 H102       -0.2360   -0.5880   -1.8680 h1        1 665      0.109000
     39 HN13        3.2460    1.5380   -0.3440 hn        1 665      0.232000
     40 H17         0.8860    4.5320   -1.4470 ha        1 665      0.186000
     41 H19         4.0220    6.5940    0.1990 ha        1 665      0.149000
     42 H20         4.9330    4.5630    1.0020 ha        1 665      0.136000
     43 H21         3.8240    2.5180    0.5720 ha        1 665      0.136000
@<TRIPOS>BOND
     1    1    2 1   
     2    1    6 1   
     3    1   23 1   
     4    1   24 1   
     5    2    3 1   
     6    2   25 1   
     7    2   26 1   
     8    3    4 1   
     9    3   11 1   
    10    3   27 1   
    11    4    5 1   
    12    4   28 1   
    13    4   29 1   
    14    5    6 1   
    15    5   30 1   
    16    5   31 1   
    17    6   32 1   
    18    6   33 1   
    19    7   11 1   
    20    7   15 1   
    21    8    9 1   
    22    8   34 1   
    23    8   35 1   
    24    9   10 1   
    25    9   12 1   
    26    9   36 1   
    27   10   11 1   
    28   10   37 1   
    29   10   38 1   
    30   12   13 1   
    31   12   14 1   
    32   13   22 1   
    33   13   39 1   
    34   16   18 1   
    35   17   22 1   
    36   17   40 1   
    37   18   19 1   
    38   19   41 1   
    39   20   21 1   
    40   20   42 1   
    41   21   43 1   
@<TRIPOS>SUBSTRUCTURE
     1 665         1 TEMP              0 ****  ****    0 ROOT
