@<TRIPOS>MOLECULE
665
   44    43     1     0     0
SMALL
bcc


@<TRIPOS>ATOM
      1 C1         -0.5190   -0.2280   -1.5870 c2        1 665     -0.189000
      2 C2          2.6920   -0.5180    0.4140 c3        1 665     -0.252000
      3 C3          1.8910   -0.1470    1.6540 c3        1 665      0.030000
      4 C4          0.6420   -1.0310    1.7840 c3        1 665     -0.189000
      5 C5         -0.4780   -0.5570    0.8730 c3        1 665     -0.129000
      6 C6         -0.3260   -1.0140   -0.5300 c2        1 665     -0.201000
      7 C7          2.6940   -1.2610    3.6350 c1        1 665      0.478000
      8 C8          5.6980    0.2030    1.9650 c3        1 665     -0.226000
      9 C9          5.1150    0.6720    3.2790 c3        1 665     -0.157000
     10 C10         3.6080    0.9420    3.2060 c3        1 665     -0.013000
     11 N11         2.7340   -0.1860    2.8890 n3        1 665     -0.225000
     12 C12         5.4320   -0.3270    4.3900 c2        1 665      0.308000
     13 N13         6.7020   -0.3560    4.8870 n         1 665     -0.251000
     14 O14         4.5110   -1.0780    4.8230 o         1 665     -0.435000
     15 O15         2.4830   -2.2470    4.2360 o         1 665      0.028000
     16 C17         8.5750   -2.9480    4.7770 c1        1 665      0.191000
     17 C18         8.7500   -3.9300    5.6570 c2        1 665     -0.444000
     18 C19         8.2190   -3.9330    7.0070 c2        1 665     -0.056000
     19 C20         7.2000   -3.1430    7.3910 c2        1 665     -0.163000
     20 C21         6.5290   -2.2130    6.5060 c2        1 665     -0.119000
     21 C22         7.2130   -1.2610    5.8280 c2        1 665     -0.066000
     22 H8          2.0100   -0.4350   -0.4730 hc        1 665      0.112667
     23 H1         -0.4420   -0.6060   -2.6160 ha        1 665      0.125500
     24 H2         -0.7810    0.8360   -1.5040 ha        1 665      0.125500
     25 H10         3.5550    0.1750    0.2660 hc        1 665      0.112667
     26 H3          3.0740   -1.5660    0.4670 hc        1 665      0.112667
     27 H41         1.5650    0.9360    1.5840 h1        1 665      0.141000
     28 H42         0.2560   -1.0040    2.8400 hc        1 665      0.103000
     29 H4          0.9040   -2.0940    1.5410 hc        1 665      0.103000
     30 H5         -0.5680    0.5610    0.9240 hc        1 665      0.107500
     31 H7         -1.4440   -0.9810    1.2720 hc        1 665      0.107500
     32 H6         -0.0820   -2.0830   -0.6500 ha        1 665      0.130000
     33 H81         5.2630   -0.7770    1.6530 hc        1 665      0.103667
     34 H82         6.8070    0.0820    2.0490 hc        1 665      0.103667
     35 H9          5.4910    0.9570    1.1650 hc        1 665      0.103667
     36 H101        3.4320    1.7130    2.4010 h1        1 665      0.140500
     37 H102        3.2700    1.3580    4.2010 h1        1 665      0.140500
     38 HN13        5.5750    1.6730    3.5420 hc        1 665      0.149000
     39 H20         5.4360   -2.3460    6.4100 ha        1 665      0.171000
     40 H21         6.7900   -3.2120    8.4140 ha        1 665      0.162000
     41 H17         8.2890   -1.0600    6.0400 h4        1 665      0.175000
     42 BR1         9.7490   -5.4080    5.0770 br        1 665      0.130000
     43 H132        7.3780    0.2450    4.4620 hn        1 665      0.256000
     44 H19         8.6820   -4.6400    7.7190 ha        1 665      0.163000
@<TRIPOS>BOND
     1    1    6 1   
     2    1   23 1   
     3    1   24 1   
     4    2    3 1   
     5    2   22 1   
     6    2   25 1   
     7    2   26 1   
     8    3    4 1   
     9    3   11 1   
    10    3   27 1   
    11    4    5 1   
    12    4   28 1   
    13    4   29 1   
    14    5    6 1   
    15    5   30 1   
    16    5   31 1   
    17    6   32 1   
    18    7   11 1   
    19    7   15 1   
    20    8    9 1   
    21    8   33 1   
    22    8   34 1   
    23    8   35 1   
    24    9   10 1   
    25    9   12 1   
    26    9   38 1   
    27   10   11 1   
    28   10   36 1   
    29   10   37 1   
    30   12   13 1   
    31   12   14 1   
    32   13   21 1   
    33   13   43 1   
    34   16   17 1   
    35   17   18 1   
    36   17   42 1   
    37   18   19 1   
    38   18   44 1   
    39   19   20 1   
    40   19   40 1   
    41   20   21 1   
    42   20   39 1   
    43   21   41 1   
@<TRIPOS>SUBSTRUCTURE
     1 665         1 TEMP              0 ****  ****    0 ROOT
