@<TRIPOS>MOLECULE
665
   43    45     1     0     0
SMALL
bcc


@<TRIPOS>ATOM
      1 C1         -7.4250    0.0240    0.2890 c3        1 665     -0.073900
      2 C2         -6.1580    0.7950   -0.0130 c3        1 665     -0.096400
      3 C3         -4.9270   -0.0030    0.4490 c3        1 665      0.120700
      4 C4         -4.9160   -1.3690   -0.2620 c3        1 665     -0.096400
      5 C5         -6.1890   -2.1310    0.0370 c3        1 665     -0.073900
      6 C6         -7.4150   -1.3410   -0.3690 c3        1 665     -0.080400
      7 C7         -3.2000    1.1940   -0.9410 c         1 665      0.695500
      8 C8         -1.7140    1.5260   -0.8080 c3        1 665     -0.169400
      9 C9         -1.3450    1.1850    0.6380 c3        1 665     -0.156700
     10 C10        -2.6260    0.5640    1.2540 c3        1 665      0.088000
     11 N11        -3.6950    0.7430    0.2840 n         1 665     -0.465800
     12 C12        -0.1530    0.2410    0.7410 c         1 665      0.673100
     13 N13         1.0180    0.7090    0.1600 n         1 665     -0.471100
     14 O14        -0.2300   -0.8500    1.3310 o         1 665     -0.582100
     15 O15        -3.8570    1.3450   -1.9820 o         1 665     -0.614500
     16 C17         3.3040    0.6890   -0.6280 ca        1 665     -0.161000
     17 C18         4.5630    0.0980   -0.7050 ca        1 665      0.002100
     18 C19         4.8180   -1.1170   -0.0650 ca        1 665     -0.129000
     19 C20         3.7980   -1.7340    0.6550 ca        1 665     -0.105000
     20 C21         2.5330   -1.1620    0.7490 ca        1 665     -0.143000
     21 C22         2.2650    0.0640    0.1050 ca        1 665      0.069600
     22 H8         -8.3080    0.6110   -0.0780 hc        1 665      0.040450
     23 H1         -7.5390   -0.0970    1.3990 hc        1 665      0.040450
     24 H2         -6.0800    0.9950   -1.1150 hc        1 665      0.057200
     25 H10        -6.1900    1.7850    0.5120 hc        1 665      0.057200
     26 H3         -5.0340   -0.1920    1.5620 h1        1 665      0.053700
     27 H41        -4.8180   -1.2070   -1.3680 hc        1 665      0.057200
     28 H42        -4.0330   -1.9690    0.0790 hc        1 665      0.057200
     29 H4         -6.2390   -2.3650    1.1330 hc        1 665      0.040450
     30 H5         -6.1720   -3.1070   -0.5140 hc        1 665      0.040450
     31 H7         -7.4290   -1.2180   -1.4840 hc        1 665      0.043200
     32 H6         -8.3390   -1.9050   -0.0800 hc        1 665      0.043200
     33 H81        -1.5510    2.6080   -1.0330 hc        1 665      0.085700
     34 H82        -1.1500    0.9160   -1.5560 hc        1 665      0.085700
     35 H9         -1.0910    2.1210    1.2050 hc        1 665      0.085700
     36 H101       -2.4720   -0.5260    1.4940 h1        1 665      0.068700
     37 H102       -2.8980    1.1030    2.2010 h1        1 665      0.068700
     38 HN13        0.9660    1.5820   -0.3180 hn        1 665      0.319500
     39 H19         5.8110   -1.5870   -0.1250 ha        1 665      0.149000
     40 H20         3.9930   -2.6920    1.1620 ha        1 665      0.142000
     41 H21         1.7500   -1.6800    1.3280 ha        1 665      0.177000
     42 H17         3.1220    1.6470   -1.1410 ha        1 665      0.143000
     43 BR1         5.9220    0.9450   -1.6800 br        1 665     -0.087100
@<TRIPOS>BOND
     1    1    2 1   
     2    1    6 1   
     3    1   22 1   
     4    1   23 1   
     5    2    3 1   
     6    2   24 1   
     7    2   25 1   
     8    3    4 1   
     9    3   11 1   
    10    3   26 1   
    11    4    5 1   
    12    4   27 1   
    13    4   28 1   
    14    5    6 1   
    15    5   29 1   
    16    5   30 1   
    17    6   31 1   
    18    6   32 1   
    19    7    8 1   
    20    7   11 1   
    21    7   15 2   
    22    8    9 1   
    23    8   33 1   
    24    8   34 1   
    25    9   10 1   
    26    9   12 1   
    27    9   35 1   
    28   10   11 1   
    29   10   36 1   
    30   10   37 1   
    31   12   13 1   
    32   12   14 2   
    33   13   21 1   
    34   13   38 1   
    35   16   17 ar  
    36   16   21 ar  
    37   16   42 1   
    38   17   18 ar  
    39   17   43 1   
    40   18   19 ar  
    41   18   39 1   
    42   19   20 ar  
    43   19   40 1   
    44   20   21 ar  
    45   20   41 1   
@<TRIPOS>SUBSTRUCTURE
     1 665         1 TEMP              0 ****  ****    0 ROOT
