@<TRIPOS>MOLECULE
666
   54    57     1     0     0
SMALL
bcc


@<TRIPOS>ATOM
      1 C1          0.2940   -0.1120   -0.6480 ca        1 666     -0.131000
      2 C2          1.6440    0.1600   -0.4440 ca        1 666     -0.098000
      3 C3          2.3190   -0.4040    0.6470 ca        1 666     -0.077300
      4 C4          1.6270   -1.2520    1.5190 ca        1 666     -0.117000
      5 C5          0.2740   -1.5220    1.3120 ca        1 666      0.026900
      6 C6         -0.3950   -0.9510    0.2300 ca        1 666     -0.101000
      7 C11         3.7720   -0.1300    0.8470 c3        1 666      0.013100
      8 C12         4.0850    1.3150    1.0490 ce        1 666     -0.330400
      9 C15         3.7160    2.0020    2.1830 c2        1 666      0.220800
     10 C16         4.1310    3.4390    2.3590 c3        1 666     -0.063200
     11 C17         5.4380    3.7190    1.6500 c3        1 666     -0.071400
     12 C18         5.3350    3.3660    0.1870 c3        1 666     -0.181400
     13 C19         4.8350    1.9630   -0.0310 c         1 666      0.592300
     14 N26         2.9650    1.3930    3.1710 nh        1 666     -0.649400
     15 C27         2.5160    1.9870    4.3610 ca        1 666      0.157600
     16 C28         2.5950    1.2560    5.5700 ca        1 666     -0.166000
     17 C29         2.1160    1.7970    6.7560 ca        1 666     -0.086000
     18 C30         1.5460    3.0790    6.7890 ca        1 666     -0.127900
     19 C31         1.4550    3.7980    5.5900 ca        1 666     -0.086000
     20 C32         1.9230    3.2670    4.3940 ca        1 666     -0.166000
     21 C37         1.0380    3.6440    8.0480 ce        1 666      0.370900
     22 N38         1.5130    3.2060    9.1990 n2        1 666     -0.437300
     23 N39         1.0010    3.6560   10.3390 n         1 666     -0.330900
     24 C40        -0.2220    4.3420   10.4580 c         1 666      0.680500
     25 C41        -0.9650    4.6250    9.1720 c3        1 666     -0.155400
     26 C42        -0.0360    4.7120    7.9650 c3        1 666     -0.126000
     27 O45         5.0500    1.3990   -1.1160 o         1 666     -0.564100
     28 O46        -0.6390    4.6570   11.5820 o         1 666     -0.604500
     29 C47         0.6010    6.0880    7.9020 c3        1 666     -0.096100
     30 I54        -0.7130   -2.7440    2.5840 i         1 666     -0.149900
     31 H1         -0.2330    0.3320   -1.5060 ha        1 666      0.137000
     32 H2          2.1970    0.8130   -1.1380 ha        1 666      0.151000
     33 H4          2.1610   -1.7170    2.3620 ha        1 666      0.135000
     34 H6         -1.4630   -1.1580    0.0580 ha        1 666      0.143000
     35 H111        4.3220   -0.5010   -0.0660 hc        1 666      0.064700
     36 H112        4.1610   -0.7260    1.7190 hc        1 666      0.064700
     37 H161        4.2420    3.6980    3.4460 hc        1 666      0.067700
     38 H162        3.3240    4.0940    1.9310 hc        1 666      0.067700
     39 H171        6.2630    3.1280    2.1280 hc        1 666      0.053700
     40 H172        5.6940    4.8050    1.7610 hc        1 666      0.053700
     41 H181        6.3350    3.4800   -0.3110 hc        1 666      0.072700
     42 H182        4.6240    4.0660   -0.3300 hc        1 666      0.072700
     43 H26         2.7980    0.4130    3.0840 hn        1 666      0.452800
     44 H28         3.0350    0.2460    5.5810 ha        1 666      0.141500
     45 H29         2.1960    1.1990    7.6780 ha        1 666      0.146000
     46 H31         1.0010    4.8020    5.5740 ha        1 666      0.146000
     47 H32         1.8100    3.8520    3.4680 ha        1 666      0.141500
     48 H39         1.4720    3.3270   11.1610 hn        1 666      0.356500
     49 H411       -1.7100    3.7980    9.0290 hc        1 666      0.086700
     50 H412       -1.5330    5.5840    9.2920 hc        1 666      0.086700
     51 H42        -0.6510    4.5440    7.0370 hc        1 666      0.074700
     52 H471        1.3740    6.1360    7.0990 hc        1 666      0.046367
     53 H472       -0.1810    6.8580    7.6930 hc        1 666      0.046367
     54 H473        1.0920    6.3370    8.8740 hc        1 666      0.046367
@<TRIPOS>BOND
     1    1    2 ar  
     2    1    6 ar  
     3    1   31 1   
     4    2    3 ar  
     5    2   32 1   
     6    3    4 ar  
     7    3    7 1   
     8    4    5 ar  
     9    4   33 1   
    10    5    6 ar  
    11    5   30 1   
    12    6   34 1   
    13    7    8 1   
    14    7   35 1   
    15    7   36 1   
    16    8    9 2   
    17    8   13 1   
    18    9   10 1   
    19    9   14 1   
    20   10   11 1   
    21   10   37 1   
    22   10   38 1   
    23   11   12 1   
    24   11   39 1   
    25   11   40 1   
    26   12   13 1   
    27   12   41 1   
    28   12   42 1   
    29   13   27 2   
    30   14   15 1   
    31   14   43 1   
    32   15   16 ar  
    33   15   20 ar  
    34   16   17 ar  
    35   16   44 1   
    36   17   18 ar  
    37   17   45 1   
    38   18   19 ar  
    39   18   21 1   
    40   19   20 ar  
    41   19   46 1   
    42   20   47 1   
    43   21   22 2   
    44   21   26 1   
    45   22   23 1   
    46   23   24 1   
    47   23   48 1   
    48   24   25 1   
    49   24   28 2   
    50   25   26 1   
    51   25   49 1   
    52   25   50 1   
    53   26   29 1   
    54   26   51 1   
    55   29   52 1   
    56   29   53 1   
    57   29   54 1   
@<TRIPOS>SUBSTRUCTURE
     1 666         1 TEMP              0 ****  ****    0 ROOT
