@<TRIPOS>MOLECULE
666
   54    57     1     0     0
SMALL
bcc


@<TRIPOS>ATOM
      1 C1          0.2910   -0.0870   -0.6820 ca        1 666     -0.131000
      2 C2          1.6420    0.1690   -0.4640 ca        1 666     -0.098000
      3 C3          2.2980   -0.4000    0.6350 ca        1 666     -0.077300
      4 C4          1.5860   -1.2370    1.5020 ca        1 666     -0.117000
      5 C5          0.2320   -1.4910    1.2800 ca        1 666      0.026900
      6 C6         -0.4180   -0.9150    0.1900 ca        1 666     -0.101000
      7 C11         3.7520   -0.1430    0.8500 c3        1 666      0.013100
      8 C12         4.0800    1.2980    1.0550 ce        1 666     -0.330400
      9 C15         3.7120    1.9880    2.1890 c2        1 666      0.220800
     10 C16         4.1420    3.4200    2.3690 c3        1 666     -0.063200
     11 C17         5.4560    3.6860    1.6650 c3        1 666     -0.071400
     12 C18         5.3550    3.3370    0.2020 c3        1 666     -0.181400
     13 C19         4.8410    1.9400   -0.0210 c         1 666      0.592300
     14 N26         2.9460    1.3870    3.1700 nu        1 666     -0.648400
     15 C27         2.5030    1.9820    4.3620 ca        1 666      0.157600
     16 C28         2.5710    1.2460    5.5680 ca        1 666     -0.166000
     17 C29         2.0980    1.7900    6.7560 ca        1 666     -0.086000
     18 C30         1.5450    3.0790    6.7920 ca        1 666     -0.127900
     19 C31         1.4650    3.8030    5.5960 ca        1 666     -0.086000
     20 C32         1.9280    3.2700    4.3980 ca        1 666     -0.166000
     21 C37         1.0420    3.6460    8.0530 ce        1 666      0.370900
     22 N38         1.5100    3.1970    9.2030 n2        1 666     -0.437300
     23 N39         1.0020    3.6490   10.3440 ns        1 666     -0.330900
     24 C40        -0.2120    4.3520   10.4630 c         1 666      0.680500
     25 C41        -0.9490    4.6500    9.1770 c3        1 666     -0.155400
     26 C42        -0.0170    4.7280    7.9720 c3        1 666     -0.126000
     27 O45         5.0540    1.3750   -1.1050 o         1 666     -0.564100
     28 O46        -0.6260    4.6680   11.5880 o         1 666     -0.604500
     29 C47         0.6380    6.0960    7.9150 c3        1 666     -0.096100
     30 I54        -0.7840   -2.6970    2.5450 i         1 666     -0.149900
     31 H1         -0.2210    0.3610   -1.5470 ha        1 666      0.137000
     32 H2          2.2110    0.8130   -1.1530 ha        1 666      0.151000
     33 H4          2.1050   -1.7070    2.3520 ha        1 666      0.135000
     34 H6         -1.4860   -1.1090    0.0070 ha        1 666      0.143000
     35 H111        4.1250   -0.7430    1.7260 hc        1 666      0.064700
     36 H112        4.3070   -0.5210   -0.0570 hc        1 666      0.064700
     37 H161        4.2510    3.6760    3.4570 hc        1 666      0.067700
     38 H162        3.3440    4.0850    1.9390 hc        1 666      0.067700
     39 H171        6.2720    3.0860    2.1460 hc        1 666      0.053700
     40 H172        5.7230    4.7700    1.7800 hc        1 666      0.053700
     41 H181        6.3580    3.4400   -0.2910 hc        1 666      0.072700
     42 H182        4.6540    4.0450   -0.3180 hc        1 666      0.072700
     43 H26         2.7680    0.4090    3.0810 hn        1 666      0.451800
     44 H28         2.9980    0.2310    5.5760 ha        1 666      0.141500
     45 H29         2.1680    1.1870    7.6760 ha        1 666      0.146000
     46 H31         1.0240    4.8130    5.5830 ha        1 666      0.146000
     47 H32         1.8230    3.8600    3.4750 ha        1 666      0.141500
     48 H39         1.4670    3.3110   11.1650 hn        1 666      0.356500
     49 H411       -1.7050    3.8330    9.0310 hc        1 666      0.086700
     50 H412       -1.5040    5.6160    9.3000 hc        1 666      0.086700
     51 H42        -0.6330    4.5720    7.0430 hc        1 666      0.074700
     52 H471       -0.1330    6.8780    7.7070 hc        1 666      0.046367
     53 H472        1.4140    6.1370    7.1140 hc        1 666      0.046367
     54 H473        1.1310    6.3350    8.8890 hc        1 666      0.046367
@<TRIPOS>BOND
     1    1    2 ar  
     2    1    6 ar  
     3    1   31 1   
     4    2    3 ar  
     5    2   32 1   
     6    3    4 ar  
     7    3    7 1   
     8    4    5 ar  
     9    4   33 1   
    10    5    6 ar  
    11    5   30 1   
    12    6   34 1   
    13    7    8 1   
    14    7   35 1   
    15    7   36 1   
    16    8    9 2   
    17    8   13 1   
    18    9   10 1   
    19    9   14 1   
    20   10   11 1   
    21   10   37 1   
    22   10   38 1   
    23   11   12 1   
    24   11   39 1   
    25   11   40 1   
    26   12   13 1   
    27   12   41 1   
    28   12   42 1   
    29   13   27 2   
    30   14   15 1   
    31   14   43 1   
    32   15   16 ar  
    33   15   20 ar  
    34   16   17 ar  
    35   16   44 1   
    36   17   18 ar  
    37   17   45 1   
    38   18   19 ar  
    39   18   21 1   
    40   19   20 ar  
    41   19   46 1   
    42   20   47 1   
    43   21   22 2   
    44   21   26 1   
    45   22   23 1   
    46   23   24 1   
    47   23   48 1   
    48   24   25 1   
    49   24   28 2   
    50   25   26 1   
    51   25   49 1   
    52   25   50 1   
    53   26   29 1   
    54   26   51 1   
    55   29   52 1   
    56   29   53 1   
    57   29   54 1   
@<TRIPOS>SUBSTRUCTURE
     1 666         1 TEMP              0 ****  ****    0 ROOT
