@<TRIPOS>MOLECULE
666
   54    50     1     0     0
SMALL
bcc


@<TRIPOS>ATOM
      1 C1         -0.3870    1.3840    5.5710 c1        1 666     -0.115500
      2 C2         -1.2860    2.0260    4.7440 c1        1 666     -0.134000
      3 C3         -1.0630    2.0590    3.3530 c1        1 666     -0.074000
      4 C4          0.0550    1.4480    2.8190 c1        1 666     -0.084000
      5 C5          0.9620    0.8010    3.6560 c1        1 666     -0.259000
      6 C6          0.7420    0.7680    5.0290 c1        1 666     -0.115500
      7 C11        -2.1220    2.6260    2.4310 c3        1 666     -0.079000
      8 C12        -1.4420    3.3040    1.2250 c2        1 666     -0.306000
      9 C15        -1.2330    2.5290   -0.1090 c1        1 666      0.141000
     10 C16        -0.5470    3.2690   -1.2650 c2        1 666     -0.145000
     11 C17        -0.7130    4.7340   -1.1810 c3        1 666     -0.150000
     12 C18        -0.3040    5.4080    0.0790 c3        1 666     -0.210000
     13 C19        -0.9700    4.7980    1.3020 c2        1 666      0.283000
     14 N26        -1.9920    1.3240   -0.3710 n3        1 666     -0.283000
     15 C27        -1.3110    0.1230   -0.7930 c2        1 666      0.076000
     16 C28         0.0450    0.0120   -0.6250 c2        1 666     -0.165000
     17 C29         0.6970   -1.1470   -1.0030 c1        1 666     -0.092000
     18 C30        -0.0240   -2.2050   -1.5560 c1        1 666     -0.046000
     19 C31        -1.3850   -2.0900   -1.7230 c1        1 666     -0.077000
     20 C32        -2.0340   -0.9270   -1.3430 c1        1 666     -0.166000
     21 C37         0.6550   -3.5800   -1.7380 c2        1 666     -0.085000
     22 N38         0.6600   -4.5830   -0.5980 n1        1 666     -0.006000
     23 N39         1.6360   -5.6970   -0.6620 n2        1 666     -0.312000
     24 C40         2.5390   -5.7430   -1.7740 c2        1 666      0.289000
     25 C41         2.8510   -4.5100   -2.4420 c3        1 666     -0.184000
     26 C42         1.6490   -3.8000   -2.8770 c3        1 666     -0.086000
     27 O45        -0.8900    5.3510    2.3700 o         1 666     -0.321000
     28 O46         3.2420   -6.7140   -1.9400 o         1 666     -0.331000
     29 C47         0.9490   -4.5390   -4.1460 c3        1 666     -0.210000
     30 I54         2.6120   -0.1970    2.8360 i         1 666      0.141000
     31 H1         -0.5410    1.3610    6.5390 ha        1 666      0.140000
     32 H2         -2.0680    2.4540    5.1190 ha        1 666      0.129000
     33 H4          0.2080    1.4700    1.8660 ha        1 666      0.156000
     34 H6          1.3720    0.3190    5.6060 ha        1 666      0.140000
     35 H111       -2.7030    1.8990    2.1140 hc        1 666      0.106500
     36 H112       -2.6630    3.2910    2.9220 hc        1 666      0.106500
     37 H161        0.4010    3.1240   -1.4340 ha        1 666      0.106000
     38 H162       -0.9290    2.8900   -2.0690 ha        1 666      0.106000
     39 H171       -0.1930    5.1390   -1.9210 hc        1 666      0.093000
     40 H172       -1.6410    4.9320   -1.3310 hc        1 666      0.093000
     41 H181        0.6490    5.5430    0.1460 hc        1 666      0.112500
     42 H182       -0.6060    6.3480    0.0330 hc        1 666      0.112500
     43 H26        -2.9030    1.3420   -0.3340 hn        1 666      0.249000
     44 H28         0.5550    0.7580   -0.2360 ha        1 666      0.143000
     45 H29         1.6620   -1.2240   -0.8820 ha        1 666      0.138000
     46 H31        -1.8920   -2.8260   -2.1080 ha        1 666      0.149000
     47 H32        -3.0000   -0.8450   -1.4610 ha        1 666      0.141000
     48 H39         1.5130   -6.4590   -0.1260 hn        1 666      0.271000
     49 H411        3.5450   -4.0790   -1.9520 hc        1 666      0.125000
     50 H412        3.3150   -4.6760   -3.2740 hc        1 666      0.125000
     51 H42         1.8950   -2.9390   -3.2790 hc        1 666      0.109000
     52 H471        1.1670   -5.4820   -4.1320 hc        1 666      0.085000
     53 H472        1.2810   -4.1430   -4.9750 hc        1 666      0.085000
     54 H473       -0.0160   -4.4280   -4.0960 hc        1 666      0.085000
@<TRIPOS>BOND
     1    1    6 1   
     2    1   31 1   
     3    2    3 1   
     4    2   32 1   
     5    3    7 1   
     6    4    5 1   
     7    4   33 1   
     8    5   30 1   
     9    6   34 1   
    10    7    8 1   
    11    7   35 1   
    12    7   36 1   
    13    8    9 1   
    14    8   13 1   
    15    9   14 1   
    16   10   11 1   
    17   10   37 1   
    18   10   38 1   
    19   11   12 1   
    20   11   39 1   
    21   11   40 1   
    22   12   13 1   
    23   12   41 1   
    24   12   42 1   
    25   13   27 1   
    26   14   15 1   
    27   14   43 1   
    28   15   16 1   
    29   15   20 1   
    30   16   17 1   
    31   16   44 1   
    32   17   45 1   
    33   18   19 1   
    34   18   21 1   
    35   19   46 1   
    36   20   47 1   
    37   21   22 1   
    38   21   26 1   
    39   23   24 1   
    40   23   48 1   
    41   24   25 1   
    42   24   28 1   
    43   25   26 1   
    44   25   49 1   
    45   25   50 1   
    46   26   29 1   
    47   26   51 1   
    48   29   52 1   
    49   29   53 1   
    50   29   54 1   
@<TRIPOS>SUBSTRUCTURE
     1 666         1 TEMP              0 ****  ****    0 ROOT
