@<TRIPOS>MOLECULE
666
   54    57     1     0     0
SMALL
bcc


@<TRIPOS>ATOM
      1 C1         -4.3070   -2.8010    1.2280 ca        1 666     -0.131000
      2 C2         -4.6230   -1.5720    0.6550 ca        1 666     -0.098000
      3 C3         -4.0610   -1.2030   -0.5740 ca        1 666     -0.077300
      4 C4         -3.1920   -2.0850   -1.2240 ca        1 666     -0.117000
      5 C5         -2.8770   -3.3160   -0.6470 ca        1 666      0.026900
      6 C6         -3.4310   -3.6750    0.5810 ca        1 666     -0.101000
      7 C11        -4.4230    0.1050   -1.1940 c3        1 666      0.013100
      8 C12        -4.0530    1.2860   -0.3610 ce        1 666     -0.330400
      9 C15        -2.7460    1.6610   -0.1460 c2        1 666      0.220800
     10 C16        -2.4430    2.9090    0.6410 c3        1 666     -0.063200
     11 C17        -3.5500    3.9300    0.4910 c3        1 666     -0.071400
     12 C18        -4.8750    3.3420    0.9070 c3        1 666     -0.181400
     13 C19        -5.1730    2.0430    0.2060 c         1 666      0.592300
     14 N26        -1.6990    0.9060   -0.6400 nh        1 666     -0.649400
     15 C27        -0.3310    1.1770   -0.4830 ca        1 666      0.157600
     16 C28         0.5360    1.0180   -1.5900 ca        1 666     -0.166000
     17 C29         1.9020    1.2320   -1.4550 ca        1 666     -0.086000
     18 C30         2.4570    1.6150   -0.2230 ca        1 666     -0.127900
     19 C31         1.6010    1.7600    0.8760 ca        1 666     -0.086000
     20 C32         0.2330    1.5410    0.7580 ca        1 666     -0.166000
     21 C37         3.9050    1.8360   -0.0870 ce        1 666      0.370900
     22 N38         4.6200    2.1470   -1.1520 n2        1 666     -0.437300
     23 N39         5.9390    2.2700   -1.0490 n         1 666     -0.330900
     24 C40         6.7090    1.8040    0.0330 c         1 666      0.680500
     25 C41         5.9520    1.1680    1.1770 c3        1 666     -0.155400
     26 C42         4.5190    1.6820    1.2900 c3        1 666     -0.126000
     27 O45        -6.3440    1.6380    0.1420 o         1 666     -0.564100
     28 O46         7.9440    1.9100   -0.0050 o         1 666     -0.604500
     29 C47         4.5060    3.0130    2.0200 c3        1 666     -0.096100
     30 I54        -1.6140   -4.5760   -1.5970 i         1 666     -0.149900
     31 H1         -4.7500   -3.0890    2.1930 ha        1 666      0.137000
     32 H2         -5.3210   -0.8820    1.1560 ha        1 666      0.151000
     33 H4         -2.7690   -1.8080   -2.2030 ha        1 666      0.135000
     34 H6         -3.1890   -4.6440    1.0440 ha        1 666      0.143000
     35 H111       -5.5390    0.1100   -1.3640 hc        1 666      0.064700
     36 H112       -3.9460    0.1950   -2.2090 hc        1 666      0.064700
     37 H161       -2.3380    2.6260    1.7250 hc        1 666      0.067700
     38 H162       -1.4730    3.3690    0.3120 hc        1 666      0.067700
     39 H171       -3.6040    4.2760   -0.5750 hc        1 666      0.053700
     40 H172       -3.3160    4.8250    1.1250 hc        1 666      0.053700
     41 H181       -5.7050    4.0690    0.6980 hc        1 666      0.072700
     42 H182       -4.8790    3.1410    2.0130 hc        1 666      0.072700
     43 H26        -1.9250    0.1490   -1.2510 hn        1 666      0.451800
     44 H28         0.1360    0.7180   -2.5710 ha        1 666      0.141500
     45 H29         2.5460    1.0990   -2.3390 ha        1 666      0.146000
     46 H31         2.0020    2.0450    1.8610 ha        1 666      0.146000
     47 H32        -0.4030    1.6390    1.6510 ha        1 666      0.141500
     48 H39         6.3910    2.5800   -1.8870 hn        1 666      0.356500
     49 H411        6.5100    1.3670    2.1290 hc        1 666      0.086700
     50 H412        5.9530    0.0590    1.0010 hc        1 666      0.086700
     51 H42         3.9230    0.9300    1.8780 hc        1 666      0.074700
     52 H471        5.2120    3.7310    1.5360 hc        1 666      0.046367
     53 H472        3.4860    3.4660    2.0080 hc        1 666      0.046367
     54 H473        4.8220    2.8670    3.0810 hc        1 666      0.046367
@<TRIPOS>BOND
     1    1    2 ar  
     2    1    6 ar  
     3    1   31 1   
     4    2    3 ar  
     5    2   32 1   
     6    3    4 ar  
     7    3    7 1   
     8    4    5 ar  
     9    4   33 1   
    10    5    6 ar  
    11    5   30 1   
    12    6   34 1   
    13    7    8 1   
    14    7   35 1   
    15    7   36 1   
    16    8    9 2   
    17    8   13 1   
    18    9   10 1   
    19    9   14 1   
    20   10   11 1   
    21   10   37 1   
    22   10   38 1   
    23   11   12 1   
    24   11   39 1   
    25   11   40 1   
    26   12   13 1   
    27   12   41 1   
    28   12   42 1   
    29   13   27 2   
    30   14   15 1   
    31   14   43 1   
    32   15   16 ar  
    33   15   20 ar  
    34   16   17 ar  
    35   16   44 1   
    36   17   18 ar  
    37   17   45 1   
    38   18   19 ar  
    39   18   21 1   
    40   19   20 ar  
    41   19   46 1   
    42   20   47 1   
    43   21   22 2   
    44   21   26 1   
    45   22   23 1   
    46   23   24 1   
    47   23   48 1   
    48   24   25 1   
    49   24   28 2   
    50   25   26 1   
    51   25   49 1   
    52   25   50 1   
    53   26   29 1   
    54   26   51 1   
    55   29   52 1   
    56   29   53 1   
    57   29   54 1   
@<TRIPOS>SUBSTRUCTURE
     1 666         1 TEMP              0 ****  ****    0 ROOT
