@<TRIPOS>MOLECULE
666
   55    58     1     0     0
SMALL
bcc


@<TRIPOS>ATOM
      1 C1         -0.2290    0.5540    1.1170 ca        1 666     -0.126000
      2 C2          1.0700    0.8810    0.7320 ca        1 666     -0.111000
      3 C3          2.1170   -0.0210    0.9580 ca        1 666     -0.140300
      4 C4          1.8440   -1.2570    1.5580 ca        1 666     -0.127000
      5 C5          0.5430   -1.5810    1.9470 ca        1 666      0.022900
      6 C6         -0.4940   -0.6750    1.7240 ca        1 666     -0.079000
      7 C11         3.4960    0.2840    0.4850 c3        1 666     -0.044900
      8 C12         4.0750    1.5520    1.0180 ce        1 666     -0.104400
      9 C15         4.2140    1.8510    2.3320 c2        1 666     -0.024200
     10 C16         4.8520    3.1150    2.8250 c3        1 666     -0.049200
     11 C17         5.8620    3.6290    1.8210 c3        1 666     -0.077400
     12 C18         5.2440    3.7700    0.4520 c3        1 666     -0.181400
     13 C19         4.5760    2.5150   -0.0200 c         1 666      0.562300
     14 N26         3.7400    0.9290    3.3800 n4        1 666     -0.517200
     15 C27         2.9760    1.5950    4.4420 ca        1 666     -0.058400
     16 C28         3.5860    1.8540    5.6820 ca        1 666     -0.102000
     17 C29         2.8400    2.4470    6.6970 ca        1 666     -0.097000
     18 C30         1.4950    2.7920    6.4900 ca        1 666     -0.027900
     19 C31         0.9000    2.5260    5.2480 ca        1 666     -0.097000
     20 C32         1.6300    1.9340    4.2220 ca        1 666     -0.102000
     21 C37         0.7140    3.4110    7.5720 ce        1 666      0.294900
     22 N38         0.7760    2.8740    8.7770 n2        1 666     -0.390300
     23 N39         0.0800    3.3900    9.7670 n         1 666     -0.324900
     24 C40        -0.8990    4.4070    9.6350 c         1 666      0.682500
     25 C41        -1.2060    4.8810    8.2360 c3        1 666     -0.156400
     26 C42        -0.0770    4.6530    7.2360 c3        1 666     -0.111000
     27 O45         4.4100    2.2740   -1.2160 o         1 666     -0.466100
     28 O46        -1.4670    4.8230   10.6510 o         1 666     -0.560500
     29 C47         0.8510    5.8530    7.1890 c3        1 666     -0.096100
     30 I54         0.1700   -3.3650    2.8140 i         1 666     -0.089900
     31 H1         -1.0540    1.2580    0.9210 ha        1 666      0.158000
     32 H2          1.2710    1.8380    0.2230 ha        1 666      0.150000
     33 H4          2.6560   -1.9920    1.6860 ha        1 666      0.149000
     34 H6         -1.5300   -0.9260    2.0110 ha        1 666      0.166000
     35 H111        4.1970   -0.5610    0.7420 hc        1 666      0.103700
     36 H112        3.4670    0.3320   -0.6460 hc        1 666      0.103700
     37 H161        4.0450    3.8830    2.9860 hc        1 666      0.077700
     38 H162        5.3600    2.9550    3.8140 hc        1 666      0.077700
     39 H171        6.7440    2.9360    1.7750 hc        1 666      0.074700
     40 H172        6.2410    4.6290    2.1650 hc        1 666      0.074700
     41 H181        4.4700    4.5870    0.4560 hc        1 666      0.100700
     42 H182        6.0310    4.0670   -0.2960 hc        1 666      0.100700
     43 H26         3.1390    0.1960    2.9630 hn        1 666      0.464800
     44 H28         4.6400    1.5920    5.8710 ha        1 666      0.158000
     45 H29         3.3150    2.6390    7.6740 ha        1 666      0.173000
     46 H31        -0.1620    2.7710    5.0780 ha        1 666      0.173000
     47 H32         1.1410    1.7270    3.2530 ha        1 666      0.158000
     48 H39         0.2210    2.9460   10.6580 hn        1 666      0.368500
     49 H411       -2.1300    4.3320    7.9050 hc        1 666      0.096200
     50 H412       -1.4620    5.9740    8.2850 hc        1 666      0.096200
     51 H42        -0.5430    4.5270    6.2180 hc        1 666      0.064700
     52 H471        0.2840    6.7610    6.8710 hc        1 666      0.049033
     53 H472        1.2970    6.0490    8.1940 hc        1 666      0.049033
     54 H473        1.6780    5.6760    6.4610 hc        1 666      0.049033
     55 H262        4.5660    0.4810    3.7990 hn        1 666      0.464800
@<TRIPOS>BOND
     1    1    2 ar  
     2    1    6 ar  
     3    1   31 1   
     4    2    3 ar  
     5    2   32 1   
     6    3    4 ar  
     7    3    7 1   
     8    4    5 ar  
     9    4   33 1   
    10    5    6 ar  
    11    5   30 1   
    12    6   34 1   
    13    7    8 1   
    14    7   35 1   
    15    7   36 1   
    16    8    9 2   
    17    8   13 1   
    18    9   10 1   
    19    9   14 1   
    20   10   11 1   
    21   10   37 1   
    22   10   38 1   
    23   11   12 1   
    24   11   39 1   
    25   11   40 1   
    26   12   13 1   
    27   12   41 1   
    28   12   42 1   
    29   13   27 2   
    30   14   15 1   
    31   14   43 1   
    32   14   55 1   
    33   15   16 ar  
    34   15   20 ar  
    35   16   17 ar  
    36   16   44 1   
    37   17   18 ar  
    38   17   45 1   
    39   18   19 ar  
    40   18   21 1   
    41   19   20 ar  
    42   19   46 1   
    43   20   47 1   
    44   21   22 2   
    45   21   26 1   
    46   22   23 1   
    47   23   24 1   
    48   23   48 1   
    49   24   25 1   
    50   24   28 2   
    51   25   26 1   
    52   25   49 1   
    53   25   50 1   
    54   26   29 1   
    55   26   51 1   
    56   29   52 1   
    57   29   53 1   
    58   29   54 1   
@<TRIPOS>SUBSTRUCTURE
     1 666         1 TEMP              0 ****  ****    0 ROOT
