@<TRIPOS>MOLECULE
667
   37    39     1     0     0
SMALL
bcc


@<TRIPOS>ATOM
      1 S1         -0.2150    0.0980    0.3650 s6        1 667      1.575400
      2 O1          1.0520    0.4980    0.6690 o         1 667     -0.541300
      3 O2         -1.2560   -0.1140    1.2160 o         1 667     -0.541300
      4 O3         -0.2490   -1.0700   -0.7860 os        1 667     -0.435800
      5 N1         -0.8490    1.4870   -0.7240 nz        1 667     -0.805500
      6 C1          0.8420   -1.4070   -1.5680 ca        1 667      0.102100
      7 C2          1.6950   -2.4370   -1.1450 ca        1 667     -0.134000
      8 C3          2.7250   -2.8390   -1.9900 ca        1 667     -0.056000
      9 C4          2.9370   -2.2250   -3.2350 ca        1 667     -0.083800
     10 C5          2.0360   -1.2110   -3.6340 ca        1 667      0.170100
     11 C6          0.9820   -0.7840   -2.8100 ca        1 667     -0.173000
     12 C7          4.0150   -2.6020   -4.1440 cc        1 667      0.008600
     13 C8          4.0400   -2.0570   -5.3900 cd        1 667     -0.134400
     14 C9          3.0780   -1.0140   -5.7670 c         1 667      0.714800
     15 C10         5.0150   -3.5840   -3.6360 c3        1 667     -0.048200
     16 C11         4.9900   -2.4030   -6.4850 c3        1 667     -0.044200
     17 O5          2.9600   -0.3880   -6.8140 o         1 667     -0.518500
     18 O4          2.1170   -0.5750   -4.8440 os        1 667     -0.333200
     19 C12         5.3660   -3.8690   -6.5250 c3        1 667     -0.077400
     20 C13         6.5030   -4.2030   -5.5840 c3        1 667     -0.085400
     21 C14         6.3940   -3.4870   -4.2570 c3        1 667     -0.077400
     22 HN11       -1.0050    1.1710   -1.6830 hn        1 667      0.472133
     23 HN12       -1.7400    1.8480   -0.3780 hn        1 667      0.472133
     24 H2          1.5390   -2.9350   -0.1770 ha        1 667      0.166000
     25 H3          3.3730   -3.6720   -1.6640 ha        1 667      0.172000
     26 H6          0.2840   -0.0190   -3.1750 ha        1 667      0.150000
     27 H101        4.6040   -4.6210   -3.7890 hc        1 667      0.063200
     28 H102        5.1440   -3.4300   -2.5280 hc        1 667      0.063200
     29 H111        5.9140   -1.7690   -6.3790 hc        1 667      0.079700
     30 H112        4.5210   -2.1230   -7.4710 hc        1 667      0.079700
     31 H121        5.6710   -4.1350   -7.5730 hc        1 667      0.054700
     32 H122        4.4690   -4.4940   -6.2750 hc        1 667      0.054700
     33 H131        7.4810   -3.9240   -6.0610 hc        1 667      0.054200
     34 H132        6.5220   -5.3120   -5.4160 hc        1 667      0.054200
     35 H141        7.1340   -3.9410   -3.5440 hc        1 667      0.054200
     36 H142        6.6760   -2.4080   -4.3780 hc        1 667      0.054200
     37 H13        -0.1920    2.2680   -0.7620 hn        1 667      0.472133
@<TRIPOS>BOND
     1    1    2 2   
     2    1    3 2   
     3    1    4 1   
     4    1    5 1   
     5    4    6 1   
     6    5   22 1   
     7    5   23 1   
     8    5   37 1   
     9    6    7 ar  
    10    6   11 ar  
    11    7    8 ar  
    12    7   24 1   
    13    8    9 ar  
    14    8   25 1   
    15    9   10 ar  
    16    9   12 1   
    17   10   11 ar  
    18   10   18 1   
    19   11   26 1   
    20   12   13 2   
    21   12   15 1   
    22   13   14 1   
    23   13   16 1   
    24   14   17 2   
    25   14   18 1   
    26   15   21 1   
    27   15   27 1   
    28   15   28 1   
    29   16   19 1   
    30   16   29 1   
    31   16   30 1   
    32   19   20 1   
    33   19   31 1   
    34   19   32 1   
    35   20   21 1   
    36   20   33 1   
    37   20   34 1   
    38   21   35 1   
    39   21   36 1   
@<TRIPOS>SUBSTRUCTURE
     1 667         1 TEMP              0 ****  ****    0 ROOT
