@<TRIPOS>MOLECULE
667
   36    33     1     0     0
SMALL
bcc


@<TRIPOS>ATOM
      1 S1          4.9350   -1.7270   -1.0660 ss        1 667      2.837000
      2 O1          4.4130   -1.5640   -2.4730 o         1 667     -0.925500
      3 O2          4.4250   -3.1070   -0.7220 o         1 667     -0.925500
      4 O3          4.3550   -0.6830   -0.1430 o         1 667     -0.675000
      5 N1          6.5810   -1.6700   -1.0280 n2        1 667     -0.946000
      6 C1          2.9500   -0.5830   -0.1300 c2        1 667      0.170000
      7 C2          2.2380   -0.9470    1.0120 c2        1 667     -0.172000
      8 C3          0.8650   -0.7460    1.0680 c1        1 667     -0.064000
      9 C4          0.1920   -0.1740   -0.0270 c1        1 667     -0.148000
     10 C5          0.8950    0.1850   -1.1550 c1        1 667      0.125000
     11 C6          2.2860   -0.0190   -1.2120 c1        1 667     -0.205000
     12 C7         -1.1670    0.1740    0.0970 c2        1 667      0.038000
     13 C8         -1.7880    0.8690   -0.9050 c1        1 667     -0.169000
     14 C9         -1.0660    1.2370   -2.0590 c1        1 667      0.335000
     15 C10        -2.1840   -0.5780    0.9520 c3        1 667     -0.131000
     16 C11        -2.7960    1.8820   -0.3300 c3        1 667     -0.115000
     17 O5         -1.5990    1.9080   -2.9180 o         1 667     -0.296000
     18 O4          0.2590    0.8960   -2.1780 os        1 667     -0.182000
     19 C12        -4.0620    1.1820    0.1320 c3        1 667     -0.154000
     20 C13        -4.0300    0.9400    1.6320 c3        1 667     -0.159000
     21 C14        -2.7230    0.3070    2.0470 c3        1 667     -0.154000
     22 HN11        7.0220   -0.9500   -1.3790 hn        1 667      0.259500
     23 HN12        7.0540   -2.3510   -0.6380 hn        1 667      0.259500
     24 H2          2.7050   -1.3320    1.7750 ha        1 667      0.153000
     25 H3          0.3670   -1.0010    1.8670 ha        1 667      0.141000
     26 H6          2.7810    0.2140   -2.0200 ha        1 667      0.189000
     27 H101       -1.7520   -1.3590    1.3540 hc        1 667      0.099000
     28 H102       -2.9240   -0.8750    0.3860 hc        1 667      0.099000
     29 H111       -3.0240    2.5380   -1.0220 hc        1 667      0.105500
     30 H112       -2.3890    2.3450    0.4290 hc        1 667      0.105500
     31 H121       -4.1420    0.3250   -0.3300 hc        1 667      0.085500
     32 H122       -4.8370    1.7410   -0.0870 hc        1 667      0.085500
     33 H131       -4.1360    1.7940    2.0980 hc        1 667      0.081000
     34 H132       -4.7690    0.3450    1.8780 hc        1 667      0.081000
     35 H141       -2.0720    1.0110    2.2410 hc        1 667      0.086500
     36 H142       -2.8670   -0.2300    2.8540 hc        1 667      0.086500
@<TRIPOS>BOND
     1    1    2 1   
     2    1    3 1   
     3    4    6 1   
     4    5   22 1   
     5    5   23 1   
     6    6    7 1   
     7    6   11 1   
     8    7    8 1   
     9    7   24 1   
    10    8   25 1   
    11    9   10 1   
    12    9   12 1   
    13   10   18 1   
    14   11   26 1   
    15   12   13 1   
    16   12   15 1   
    17   13   16 1   
    18   14   17 1   
    19   14   18 1   
    20   15   21 1   
    21   15   27 1   
    22   15   28 1   
    23   16   19 1   
    24   16   29 1   
    25   16   30 1   
    26   19   20 1   
    27   19   31 1   
    28   19   32 1   
    29   20   21 1   
    30   20   33 1   
    31   20   34 1   
    32   21   35 1   
    33   21   36 1   
@<TRIPOS>SUBSTRUCTURE
     1 667         1 TEMP              0 ****  ****    0 ROOT
