@<TRIPOS>MOLECULE
667
   37    39     1     0     0
SMALL
bcc


@<TRIPOS>ATOM
      1 S1         -0.2100    0.0980    0.3680 s6        1 667      1.575400
      2 O1          1.0560    0.5040    0.6660 o         1 667     -0.541300
      3 O2         -1.2470   -0.1180    1.2250 o         1 667     -0.541300
      4 O3         -0.2450   -1.0720   -0.7810 os        1 667     -0.435800
      5 N1         -0.8540    1.4830   -0.7190 n4        1 667     -0.805500
      6 C1          0.8450   -1.4080   -1.5640 ca        1 667      0.102100
      7 C2          1.7000   -2.4370   -1.1430 ca        1 667     -0.134000
      8 C3          2.7290   -2.8400   -1.9890 ca        1 667     -0.056000
      9 C4          2.9390   -2.2250   -3.2350 ca        1 667     -0.083800
     10 C5          2.0370   -1.2110   -3.6320 ca        1 667      0.170100
     11 C6          0.9840   -0.7850   -2.8070 ca        1 667     -0.173000
     12 C7          4.0160   -2.6020   -4.1460 cc        1 667      0.008600
     13 C8          4.0390   -2.0570   -5.3910 cd        1 667     -0.134400
     14 C9          3.0760   -1.0140   -5.7670 c         1 667      0.714800
     15 C10         5.0170   -3.5840   -3.6380 c3        1 667     -0.048200
     16 C11         4.9870   -2.4020   -6.4880 c3        1 667     -0.044200
     17 O5          2.9560   -0.3880   -6.8140 o         1 667     -0.518500
     18 O4          2.1160   -0.5750   -4.8420 os        1 667     -0.333200
     19 C12         5.3640   -3.8680   -6.5280 c3        1 667     -0.077400
     20 C13         6.5020   -4.2010   -5.5890 c3        1 667     -0.085400
     21 C14         6.3940   -3.4860   -4.2610 c3        1 667     -0.077400
     22 HN11       -1.0130    1.1650   -1.6770 hn        1 667      0.472133
     23 HN12       -0.2000    2.2660   -0.7620 hn        1 667      0.472133
     24 H2          1.5450   -2.9350   -0.1740 ha        1 667      0.166000
     25 H3          3.3770   -3.6720   -1.6640 ha        1 667      0.172000
     26 H6          0.2850   -0.0200   -3.1710 ha        1 667      0.150000
     27 H101        5.1470   -3.4290   -2.5310 hc        1 667      0.063200
     28 H102        4.6050   -4.6200   -3.7920 hc        1 667      0.063200
     29 H111        4.5160   -2.1220   -7.4730 hc        1 667      0.079700
     30 H112        5.9110   -1.7680   -6.3830 hc        1 667      0.079700
     31 H121        4.4670   -4.4940   -6.2770 hc        1 667      0.054700
     32 H122        5.6680   -4.1330   -7.5760 hc        1 667      0.054700
     33 H131        6.5220   -5.3110   -5.4200 hc        1 667      0.054200
     34 H132        7.4790   -3.9220   -6.0660 hc        1 667      0.054200
     35 H141        7.1360   -3.9400   -3.5490 hc        1 667      0.054200
     36 H142        6.6760   -2.4060   -4.3820 hc        1 667      0.054200
     37 H13        -1.7450    1.8410   -0.3700 hn        1 667      0.472133
@<TRIPOS>BOND
     1    1    2 2   
     2    1    3 2   
     3    1    4 1   
     4    1    5 1   
     5    4    6 1   
     6    5   22 1   
     7    5   23 1   
     8    5   37 1   
     9    6    7 ar  
    10    6   11 ar  
    11    7    8 ar  
    12    7   24 1   
    13    8    9 ar  
    14    8   25 1   
    15    9   10 ar  
    16    9   12 1   
    17   10   11 ar  
    18   10   18 1   
    19   11   26 1   
    20   12   13 2   
    21   12   15 1   
    22   13   14 1   
    23   13   16 1   
    24   14   17 2   
    25   14   18 1   
    26   15   21 1   
    27   15   27 1   
    28   15   28 1   
    29   16   19 1   
    30   16   29 1   
    31   16   30 1   
    32   19   20 1   
    33   19   31 1   
    34   19   32 1   
    35   20   21 1   
    36   20   33 1   
    37   20   34 1   
    38   21   35 1   
    39   21   36 1   
@<TRIPOS>SUBSTRUCTURE
     1 667         1 TEMP              0 ****  ****    0 ROOT
