@<TRIPOS>MOLECULE
667
   36    38     1     0     0
SMALL
bcc


@<TRIPOS>ATOM
      1 S1         -0.0690   -0.1870    4.5860 s6        1 667      1.722400
      2 O1         -1.1300   -1.0480    4.3580 o         1 667     -0.633800
      3 O2         -0.0210    0.6340    5.6990 o         1 667     -0.633800
      4 O3         -0.2240    0.9780    3.3410 os        1 667     -0.484800
      5 N1          1.3190   -0.8810    4.2920 n3        1 667     -1.041700
      6 C1         -0.2960    0.6940    2.0120 ca        1 667      0.203100
      7 C2         -1.5560    0.7050    1.3770 ca        1 667     -0.167000
      8 C3         -1.6360    0.4910    0.0110 ca        1 667     -0.062000
      9 C4         -0.4860    0.2460   -0.7630 ca        1 667     -0.153800
     10 C5          0.7590    0.2690   -0.1050 ca        1 667      0.164100
     11 C6          0.8740    0.4850    1.2790 ca        1 667     -0.205000
     12 C7         -0.5190   -0.0000   -2.1980 cc        1 667      0.044600
     13 C8          0.6580   -0.0840   -2.8750 cd        1 667     -0.190400
     14 C9          1.9310   -0.0460   -2.1500 c         1 667      0.720800
     15 C10        -1.8620   -0.1290   -2.8320 c3        1 667     -0.049200
     16 C11         0.8190   -0.2270   -4.3490 c3        1 667     -0.032200
     17 O5          3.0780   -0.1370   -2.5890 o         1 667     -0.570500
     18 O4          1.9540    0.0850   -0.7640 os        1 667     -0.325200
     19 C12        -0.2080    0.5480   -5.1490 c3        1 667     -0.076400
     20 C13        -1.4990   -0.2180   -5.3330 c3        1 667     -0.080400
     21 C14        -1.9130   -0.9720   -4.0890 c3        1 667     -0.076400
     22 HN11        1.4290   -1.6960    3.7390 hn        1 667      0.462800
     23 HN12        2.1900   -0.5380    4.6220 hn        1 667      0.462800
     24 H2         -2.4590    0.8920    1.9770 ha        1 667      0.161000
     25 H3         -2.6270    0.5280   -0.4690 ha        1 667      0.145000
     26 H6          1.8670    0.5130    1.7490 ha        1 667      0.162000
     27 H101       -2.5660   -0.6030   -2.0920 hc        1 667      0.061700
     28 H102       -2.2480    0.9050   -3.0510 hc        1 667      0.061700
     29 H111        1.8470    0.1360   -4.6350 hc        1 667      0.066700
     30 H112        0.7770   -1.3170   -4.6200 hc        1 667      0.066700
     31 H121       -0.4170    1.5260   -4.6410 hc        1 667      0.047200
     32 H122        0.2220    0.7850   -6.1590 hc        1 667      0.047200
     33 H131       -2.3100    0.4990   -5.6270 hc        1 667      0.042700
     34 H132       -1.3850   -0.9530   -6.1740 hc        1 667      0.042700
     35 H141       -2.9660   -1.3380   -4.2270 hc        1 667      0.047700
     36 H142       -1.2660   -1.8790   -3.9580 hc        1 667      0.047700
@<TRIPOS>BOND
     1    1    2 2   
     2    1    3 2   
     3    1    4 1   
     4    1    5 1   
     5    4    6 1   
     6    5   22 1   
     7    5   23 1   
     8    6    7 ar  
     9    6   11 ar  
    10    7    8 ar  
    11    7   24 1   
    12    8    9 ar  
    13    8   25 1   
    14    9   10 ar  
    15    9   12 1   
    16   10   11 ar  
    17   10   18 1   
    18   11   26 1   
    19   12   13 2   
    20   12   15 1   
    21   13   14 1   
    22   13   16 1   
    23   14   17 2   
    24   14   18 1   
    25   15   21 1   
    26   15   27 1   
    27   15   28 1   
    28   16   19 1   
    29   16   29 1   
    30   16   30 1   
    31   19   20 1   
    32   19   31 1   
    33   19   32 1   
    34   20   21 1   
    35   20   33 1   
    36   20   34 1   
    37   21   35 1   
    38   21   36 1   
@<TRIPOS>SUBSTRUCTURE
     1 667         1 TEMP              0 ****  ****    0 ROOT
