@<TRIPOS>MOLECULE
669
   49    51     1     0     0
SMALL
bcc


@<TRIPOS>ATOM
      1 O01         8.9890   -2.8850   -1.0380 o         1 669     -0.862300
      2 C02         7.7220   -2.9000   -1.0450 c         1 669      0.905600
      3 O03         7.0420   -3.9270   -0.7530 o         1 669     -0.862300
      4 C04         6.9910   -1.6180   -1.4700 c3        1 669     -0.187400
      5 C05         5.8680   -1.2560   -0.5250 c3        1 669     -0.065400
      6 C06         4.9970   -0.1510   -1.0890 c3        1 669     -0.077400
      7 C07         3.8870    0.2400   -0.1350 c3        1 669     -0.097400
      8 C08         2.9220    1.2080   -0.8260 c3        1 669      0.019300
      9 N09         1.7190    1.5040   -0.0970 na        1 669     -0.036400
     10 C10         1.3140    2.7550    0.3960 cc        1 669     -0.060300
     11 C11         0.0680    2.6270    1.0270 cd        1 669     -0.227200
     12 C12        -0.3410    1.2550    0.9200 ca        1 669     -0.082800
     13 C13        -1.4740    0.5480    1.3210 ca        1 669     -0.102000
     14 C14        -1.5390   -0.8110    1.0240 ca        1 669      0.020100
     15 O15        -2.6230   -1.5410    1.5200 os        1 669     -0.331900
     16 C16        -3.4830   -2.0730    0.5160 c3        1 669      0.168700
     17 C17        -4.5760   -1.1140    0.1420 ca        1 669     -0.081300
     18 C18        -5.6520   -0.8760    1.0140 ca        1 669      0.043400
     19 CL9        -5.7660   -1.6820    2.5110 cl        1 669     -0.078900
     20 C20        -6.6710    0.0240    0.6880 ca        1 669     -0.137500
     21 C21        -6.6310    0.7010   -0.5270 ca        1 669     -0.121000
     22 C22        -5.5850    0.4750   -1.4170 ca        1 669     -0.137500
     23 C23        -4.5690   -0.4290   -1.0850 ca        1 669      0.043400
     24 CL4        -3.3290   -0.6630   -2.2240 cl        1 669     -0.078900
     25 C25        -0.5090   -1.4840    0.3330 ca        1 669     -0.170000
     26 C26         0.6240   -0.8030   -0.0810 ca        1 669     -0.120000
     27 C27         0.7240    0.5680    0.2050 ca        1 669     -0.070200
     28 C28         2.0600    4.0720    0.2300 c         1 669      0.928800
     29 O29         2.8980    4.1910   -0.7050 o         1 669     -0.817800
     30 O30         1.7560    4.9920    1.0380 o         1 669     -0.817800
     31 H041        7.7270   -0.7770   -1.5330 hc        1 669      0.018200
     32 H042        6.5790   -1.7900   -2.4980 hc        1 669      0.018200
     33 H051        5.2500   -2.1730   -0.3320 hc        1 669      0.041700
     34 H052        6.2950   -0.9310    0.4590 hc        1 669      0.041700
     35 H061        5.6280    0.7490   -1.3160 hc        1 669      0.028700
     36 H062        4.5530   -0.4940   -2.0620 hc        1 669      0.028700
     37 H071        3.3450   -0.6810    0.2060 hc        1 669      0.044200
     38 H072        4.3230    0.7250    0.7760 hc        1 669      0.044200
     39 H081        3.4540    2.1880   -1.0240 h1        1 669      0.078200
     40 H082        2.6190    0.7600   -1.8170 h1        1 669      0.078200
     41 H11        -0.4680    3.4370    1.5100 ha        1 669      0.156000
     42 H13        -2.2860    1.0440    1.8660 ha        1 669      0.128000
     43 H161       -2.8970   -2.3850   -0.3880 h1        1 669      0.060200
     44 H162       -3.9310   -2.9850    1.0010 h1        1 669      0.060200
     45 H20        -7.4960    0.2040    1.3930 ha        1 669      0.141500
     46 H21        -7.4230    1.4200   -0.7830 ha        1 669      0.130000
     47 H22        -5.5480    1.0160   -2.3740 ha        1 669      0.141500
     48 H25        -0.6100   -2.5600    0.1350 ha        1 669      0.117000
     49 H26         1.4280   -1.3250   -0.6190 ha        1 669      0.137000
@<TRIPOS>BOND
     1    1    2 1   
     2    2    3 1   
     3    2    4 1   
     4    4    5 1   
     5    4   31 1   
     6    4   32 1   
     7    5    6 1   
     8    5   33 1   
     9    5   34 1   
    10    6    7 1   
    11    6   35 1   
    12    6   36 1   
    13    7    8 1   
    14    7   37 1   
    15    7   38 1   
    16    8    9 1   
    17    8   39 1   
    18    8   40 1   
    19    9   10 1   
    20    9   27 1   
    21   10   11 2   
    22   10   28 1   
    23   11   12 1   
    24   11   41 1   
    25   12   13 ar  
    26   12   27 ar  
    27   13   14 ar  
    28   13   42 1   
    29   14   15 1   
    30   14   25 ar  
    31   15   16 1   
    32   16   17 1   
    33   16   43 1   
    34   16   44 1   
    35   17   18 ar  
    36   17   23 ar  
    37   18   19 1   
    38   18   20 ar  
    39   20   21 ar  
    40   20   45 1   
    41   21   22 ar  
    42   21   46 1   
    43   22   23 ar  
    44   22   47 1   
    45   23   24 1   
    46   25   26 ar  
    47   25   48 1   
    48   26   27 ar  
    49   26   49 1   
    50   28   29 1   
    51   28   30 1   
@<TRIPOS>SUBSTRUCTURE
     1 669         1 TEMP              0 ****  ****    0 ROOT
