@<TRIPOS>MOLECULE
669
   49    44     1     0     0
SMALL
bcc


@<TRIPOS>ATOM
      1 O01        -6.9490    3.1390    3.6100 o         1 669     -0.596500
      2 C02        -5.7450    3.3110    3.2710 c2        1 669      0.325000
      3 O03        -5.3900    4.3980    2.7360 o         1 669     -0.596500
      4 C04        -4.7090    2.2330    3.5660 c3        1 669     -0.216000
      5 C05        -4.6550    1.2420    2.3960 c3        1 669     -0.143000
      6 C06        -3.5130    0.2400    2.6260 c3        1 669     -0.157000
      7 C07        -3.3740   -0.6720    1.3920 c3        1 669     -0.175000
      8 C08        -1.9000   -1.0880    1.2250 c3        1 669     -0.040000
      9 N09        -1.7360   -1.7840   -0.0280 n3        1 669     -0.130000
     10 C10        -1.5910   -3.1360    0.1510 c1        1 669     -0.017000
     11 C11        -0.4060   -3.5240   -0.4560 c1        1 669     -0.156000
     12 C12         0.1780   -2.3990   -1.0110 c1        1 669     -0.156000
     13 C13         1.3530   -2.2220   -1.7680 c1        1 669     -0.126000
     14 C14         1.6870   -0.9590   -2.2510 c1        1 669     -0.022000
     15 O15         2.6000    0.1310   -2.3060 o         1 669     -0.215000
     16 C16         3.8960   -0.2260   -2.7610 c3        1 669      0.011000
     17 C17         4.9330    0.7030   -2.1250 c2        1 669     -0.074000
     18 C18         4.7250    2.0770   -2.1250 c2        1 669     -0.034000
     19 CL9         3.3780    2.7570   -3.0060 cl        1 669     -0.014000
     20 C20         5.6270    2.9160   -1.4810 c1        1 669     -0.141000
     21 C21         6.7360    2.3810   -0.8370 c1        1 669     -0.127000
     22 C22         6.9440    1.0060   -0.8370 c1        1 669     -0.127000
     23 C23         6.0430    0.1670   -1.4800 c1        1 669     -0.039000
     24 CL4         6.3350   -1.5520   -1.5280 cl        1 669      0.016000
     25 C25         0.8600    0.1290   -1.9850 c2        1 669     -0.148000
     26 C26        -0.3020   -0.0450   -1.2370 c1        1 669     -0.124000
     27 C27        -0.6400   -1.3240   -0.7490 c1        1 669     -0.017000
     28 C28        -2.7770   -3.8340   -0.4960 c1        1 669      0.379000
     29 O29        -2.8220   -5.0940   -0.5350 o         1 669     -0.552000
     30 O30        -3.6940   -3.1530   -1.0330 o         1 669     -0.552000
     31 H041       -4.9580    1.7570    4.3880 hc        1 669      0.057500
     32 H042       -3.8270    2.6500    3.6840 hc        1 669      0.057500
     33 H051       -4.4970    1.7330    1.5580 hc        1 669      0.081000
     34 H052       -5.5080    0.7590    2.3370 hc        1 669      0.081000
     35 H061       -2.6710    0.7280    2.7690 hc        1 669      0.067500
     36 H062       -3.7120   -0.3090    3.4170 hc        1 669      0.067500
     37 H071       -3.9290   -1.4740    1.5130 hc        1 669      0.083500
     38 H072       -3.6700   -0.1860    0.5910 hc        1 669      0.083500
     39 H081       -1.3310   -0.2870    1.2320 h1        1 669      0.117500
     40 H082       -1.6410   -1.6810    1.9660 h1        1 669      0.117500
     41 H11        -0.0460   -4.4360   -0.4870 DU        1 669      0.155000
     42 H13         1.9340   -2.9910   -1.9610 ha        1 669      0.119000
     43 H161        3.9350   -0.1400   -3.7400 h1        1 669      0.099000
     44 H162        4.0880   -1.1530   -2.5060 h1        1 669      0.099000
     45 H20         5.4810    3.8860   -1.4800 ha        1 669      0.139000
     46 H21         7.3720    2.9740   -0.3820 ha        1 669      0.138000
     47 H22         7.7280    0.6280   -0.3820 ha        1 669      0.138000
     48 H25         1.0670    1.0080   -2.3710 ha        1 669      0.126000
     49 H26        -0.9050    0.7130   -1.0850 ha        1 669      0.137000
@<TRIPOS>BOND
     1    1    2 1   
     2    2    3 1   
     3    2    4 1   
     4    4    5 1   
     5    4   31 1   
     6    4   32 1   
     7    5    6 1   
     8    5   33 1   
     9    5   34 1   
    10    6    7 1   
    11    6   35 1   
    12    6   36 1   
    13    7    8 1   
    14    7   37 1   
    15    7   38 1   
    16    8    9 1   
    17    8   39 1   
    18    8   40 1   
    19    9   10 1   
    20    9   27 1   
    21   10   11 1   
    22   11   12 1   
    23   12   27 1   
    24   13   14 1   
    25   13   42 1   
    26   14   25 1   
    27   15   16 1   
    28   16   17 1   
    29   16   43 1   
    30   16   44 1   
    31   17   18 1   
    32   17   23 1   
    33   18   19 1   
    34   18   20 1   
    35   20   45 1   
    36   21   22 1   
    37   21   46 1   
    38   22   47 1   
    39   23   24 1   
    40   25   26 1   
    41   25   48 1   
    42   26   49 1   
    43   28   29 1   
    44   28   30 1   
@<TRIPOS>SUBSTRUCTURE
     1 669         1 TEMP              0 ****  ****    0 ROOT
