@<TRIPOS>MOLECULE
669
   49    51     1     0     0
SMALL
bcc


@<TRIPOS>ATOM
      1 O01         0.1610   -0.7980   -0.8580 o         1 669     -0.862300
      2 C02         1.1280    0.0110   -0.9820 c         1 669      0.905600
      3 O03         1.2260    1.0770   -0.3060 o         1 669     -0.862300
      4 C04         2.2020   -0.3070   -2.0320 c3        1 669     -0.187400
      5 C05         3.6030   -0.1560   -1.4870 c3        1 669     -0.065400
      6 C06         4.6420   -0.2170   -2.5900 c3        1 669     -0.077400
      7 C07         6.0520   -0.0970   -2.0490 c3        1 669     -0.097400
      8 C08         7.0450    0.0380   -3.2070 c3        1 669      0.019300
      9 N09         8.3950    0.3550   -2.8280 na        1 669     -0.036400
     10 C10         9.5380   -0.4350   -3.0280 cc        1 669     -0.060300
     11 C11        10.6650    0.2410   -2.5380 cd        1 669     -0.227200
     12 C12        10.2290    1.5080   -2.0220 ca        1 669     -0.082800
     13 C13        10.8830    2.5970   -1.4480 ca        1 669     -0.102000
     14 C14        10.1170    3.6980   -1.0710 ca        1 669      0.020100
     15 O15        10.7570    4.7430   -0.3970 os        1 669     -0.331900
     16 C16        10.7760    5.9780   -1.1090 c3        1 669      0.168700
     17 C17        11.9800    6.1000   -1.9960 ca        1 669     -0.081300
     18 C18        13.2540    6.3340   -1.4500 ca        1 669      0.043400
     19 Cl9        13.4710    6.5090    0.2310 cl        1 669     -0.078900
     20 C20        14.3880    6.4370   -2.2610 ca        1 669     -0.137500
     21 C21        14.2630    6.3120   -3.6420 ca        1 669     -0.121000
     22 C22        13.0130    6.0940   -4.2110 ca        1 669     -0.137500
     23 C23        11.8800    5.9940   -3.3940 ca        1 669      0.043400
     24 Cl4        10.3850    5.7380   -4.1600 cl        1 669     -0.078900
     25 C25         8.7190    3.7470   -1.2550 ca        1 669     -0.170000
     26 C26         8.0480    2.6800   -1.8290 ca        1 669     -0.120000
     27 C27         8.7870    1.5520   -2.2180 ca        1 669     -0.070200
     28 C28         9.5860   -1.7890   -3.7230 c         1 669      0.928800
     29 O29         8.6580   -2.1060   -4.5160 o         1 669     -0.817800
     30 O30        10.5950   -2.5060   -3.4810 o         1 669     -0.817800
     31 H041        2.0520    0.3970   -2.8910 hc        1 669      0.018200
     32 H042        2.0480   -1.3480   -2.4130 hc        1 669      0.018200
     33 H051        3.8040   -0.9640   -0.7380 hc        1 669      0.041700
     34 H052        3.6750    0.8250   -0.9440 hc        1 669      0.041700
     35 H061        4.4480    0.6120   -3.3220 hc        1 669      0.028700
     36 H062        4.5390   -1.1820   -3.1520 hc        1 669      0.028700
     37 H071        6.1170    0.7920   -1.3670 hc        1 669      0.044200
     38 H072        6.3020   -1.0020   -1.4380 hc        1 669      0.044200
     39 H081        7.0710   -0.9310   -3.7920 h1        1 669      0.078200
     40 H082        6.6810    0.8590   -3.8920 h1        1 669      0.078200
     41 H11        11.6770   -0.1500   -2.5510 ha        1 669      0.156000
     42 H13        11.9680    2.5840   -1.2850 ha        1 669      0.128000
     43 H161        9.8290    6.1140   -1.6950 h1        1 669      0.060200
     44 H162       10.8240    6.7560   -0.2960 h1        1 669      0.060200
     45 H20        15.3770    6.6070   -1.8090 ha        1 669      0.141500
     46 H21        15.1540    6.3800   -4.2820 ha        1 669      0.130000
     47 H22        12.9140    5.9870   -5.3020 ha        1 669      0.141500
     48 H25         8.1660    4.6380   -0.9290 ha        1 669      0.117000
     49 H26         6.9580    2.7140   -1.9740 ha        1 669      0.137000
@<TRIPOS>BOND
     1    1    2 1   
     2    2    3 1   
     3    2    4 1   
     4    4    5 1   
     5    4   31 1   
     6    4   32 1   
     7    5    6 1   
     8    5   33 1   
     9    5   34 1   
    10    6    7 1   
    11    6   35 1   
    12    6   36 1   
    13    7    8 1   
    14    7   37 1   
    15    7   38 1   
    16    8    9 1   
    17    8   39 1   
    18    8   40 1   
    19    9   10 1   
    20    9   27 1   
    21   10   11 2   
    22   10   28 1   
    23   11   12 1   
    24   11   41 1   
    25   12   13 ar  
    26   12   27 ar  
    27   13   14 ar  
    28   13   42 1   
    29   14   15 1   
    30   14   25 ar  
    31   15   16 1   
    32   16   17 1   
    33   16   43 1   
    34   16   44 1   
    35   17   18 ar  
    36   17   23 ar  
    37   18   19 1   
    38   18   20 ar  
    39   20   21 ar  
    40   20   45 1   
    41   21   22 ar  
    42   21   46 1   
    43   22   23 ar  
    44   22   47 1   
    45   23   24 1   
    46   25   26 ar  
    47   25   48 1   
    48   26   27 ar  
    49   26   49 1   
    50   28   29 1   
    51   28   30 1   
@<TRIPOS>SUBSTRUCTURE
     1 669         1 TEMP              0 ****  ****    0 ROOT
