@<TRIPOS>MOLECULE
669
   49    51     1     0     0
SMALL
bcc


@<TRIPOS>ATOM
      1 O01         0.1610   -0.7890   -0.8430 o         1 669     -0.862300
      2 C02         1.1310    0.0180   -0.9560 c         1 669      0.905600
      3 O03         1.2430    1.0660   -0.2540 o         1 669     -0.862300
      4 C04         2.1920   -0.2790   -2.0270 c3        1 669     -0.187400
      5 C05         3.5990   -0.1490   -1.4940 c3        1 669     -0.065400
      6 C06         4.6250   -0.1870   -2.6090 c3        1 669     -0.077400
      7 C07         6.0420   -0.0880   -2.0810 c3        1 669     -0.097400
      8 C08         7.0230    0.0710   -3.2460 c3        1 669      0.019300
      9 N09         8.3790    0.3710   -2.8740 na        1 669     -0.036400
     10 C10         9.5150   -0.4190   -3.1080 cc        1 669     -0.060300
     11 C11        10.6510    0.2380   -2.6130 cd        1 669     -0.227200
     12 C12        10.2280    1.4930   -2.0600 ca        1 669     -0.082800
     13 C13        10.8940    2.5630   -1.4650 ca        1 669     -0.102000
     14 C14        10.1390    3.6590   -1.0520 ca        1 669      0.020100
     15 O15        10.7920    4.6830   -0.3580 os        1 669     -0.331900
     16 C16        10.8090    5.9350   -1.0380 c3        1 669      0.168700
     17 C17        12.0030    6.0740   -1.9370 ca        1 669     -0.081300
     18 C18        13.2850    6.2870   -1.4010 ca        1 669      0.043400
     19 CL9        13.5240    6.4170    0.2810 cl        1 669     -0.078900
     20 C20        14.4100    6.4040   -2.2230 ca        1 669     -0.137500
     21 C21        14.2670    6.3160   -3.6050 ca        1 669     -0.121000
     22 C22        13.0080    6.1200   -4.1640 ca        1 669     -0.137500
     23 C23        11.8860    6.0050   -3.3360 ca        1 669      0.043400
     24 CL4        10.3800    5.7770   -4.0890 cl        1 669     -0.078900
     25 C25         8.7390    3.7190   -1.2180 ca        1 669     -0.170000
     26 C26         8.0550    2.6710   -1.8120 ca        1 669     -0.120000
     27 C27         8.7850    1.5500   -2.2380 ca        1 669     -0.070200
     28 C28         9.5480   -1.7550   -3.8380 c         1 669      0.928800
     29 O29         8.6090   -2.0470   -4.6290 o         1 669     -0.817800
     30 O30        10.5560   -2.4830   -3.6270 o         1 669     -0.817800
     31 H041        2.0360    0.4480   -2.8650 hc        1 669      0.018200
     32 H042        2.0270   -1.3090   -2.4330 hc        1 669      0.018200
     33 H051        3.8040   -0.9780   -0.7670 hc        1 669      0.041700
     34 H052        3.6820    0.8170   -0.9270 hc        1 669      0.041700
     35 H061        4.4280    0.6620   -3.3170 hc        1 669      0.028700
     36 H062        4.5110   -1.1370   -3.1950 hc        1 669      0.028700
     37 H071        6.1200    0.7820   -1.3780 hc        1 669      0.044200
     38 H072        6.2940   -1.0110   -1.4970 hc        1 669      0.044200
     39 H081        7.0370   -0.8830   -3.8560 h1        1 669      0.078200
     40 H082        6.6560    0.9110   -3.9060 h1        1 669      0.078200
     41 H11        11.6610   -0.1580   -2.6480 ha        1 669      0.156000
     42 H13        11.9810    2.5400   -1.3160 ha        1 669      0.128000
     43 H161        9.8560    6.0920   -1.6090 h1        1 669      0.060200
     44 H162       10.8720    6.6910   -0.2060 h1        1 669      0.060200
     45 H20        15.4050    6.5570   -1.7790 ha        1 669      0.141500
     46 H21        15.1510    6.3950   -4.2540 ha        1 669      0.130000
     47 H22        12.8960    6.0420   -5.2560 ha        1 669      0.141500
     48 H25         8.1950    4.6040   -0.8630 ha        1 669      0.117000
     49 H26         6.9650    2.7150   -1.9430 ha        1 669      0.137000
@<TRIPOS>BOND
     1    1    2 1   
     2    2    3 1   
     3    2    4 1   
     4    4    5 1   
     5    4   31 1   
     6    4   32 1   
     7    5    6 1   
     8    5   33 1   
     9    5   34 1   
    10    6    7 1   
    11    6   35 1   
    12    6   36 1   
    13    7    8 1   
    14    7   37 1   
    15    7   38 1   
    16    8    9 1   
    17    8   39 1   
    18    8   40 1   
    19    9   10 1   
    20    9   27 1   
    21   10   11 2   
    22   10   28 1   
    23   11   12 1   
    24   11   41 1   
    25   12   13 ar  
    26   12   27 ar  
    27   13   14 ar  
    28   13   42 1   
    29   14   15 1   
    30   14   25 ar  
    31   15   16 1   
    32   16   17 1   
    33   16   43 1   
    34   16   44 1   
    35   17   18 ar  
    36   17   23 ar  
    37   18   19 1   
    38   18   20 ar  
    39   20   21 ar  
    40   20   45 1   
    41   21   22 ar  
    42   21   46 1   
    43   22   23 ar  
    44   22   47 1   
    45   23   24 1   
    46   25   26 ar  
    47   25   48 1   
    48   26   27 ar  
    49   26   49 1   
    50   28   29 1   
    51   28   30 1   
@<TRIPOS>SUBSTRUCTURE
     1 669         1 TEMP              0 ****  ****    0 ROOT
