@<TRIPOS>MOLECULE
66B
   62    61     1     0     0
SMALL
bcc


@<TRIPOS>ATOM
      1 O25         3.6330    2.9320   -2.5600 o         1 66B     -0.849800
      2 C24         3.9200    1.8660   -1.9410 c         1 66B      0.908600
      3 O26         4.1020    1.8000   -0.6920 o         1 66B     -0.849800
      4 C23         4.0330    0.5590   -2.7490 c3        1 66B     -0.197400
      5 C22         4.7750    0.7800   -4.0440 c3        1 66B     -0.067400
      6 C21         4.6070   -0.3860   -4.9980 c3        1 66B     -0.072400
      7 C20         5.3180   -0.1140   -6.3090 c3        1 66B     -0.185400
      8 C19         5.1970   -1.2500   -7.2770 c         1 66B      0.586100
      9 O27         6.1850   -1.8340   -7.7450 o         1 66B     -0.576100
     10 C18         3.8060   -1.6720   -7.6800 c3        1 66B     -0.160200
     11 C17         2.9990   -0.5360   -8.1850 c2        1 66B     -0.159200
     12 C16         2.8570   -0.2070   -9.4730 c2        1 66B     -0.170200
     13 C15         3.5300   -0.8850  -10.6080 c3        1 66B     -0.049200
     14 C14         2.7030   -2.0460  -11.1390 c3        1 66B     -0.042200
     15 C13         3.4170   -2.7690  -12.2180 c2        1 66B     -0.182200
     16 C12         4.3640   -3.6950  -12.0350 c2        1 66B     -0.158200
     17 C11         4.8780   -4.1360  -10.7150 c3        1 66B     -0.026000
     18 C10         5.5850   -5.4380  -10.7880 c2        1 66B     -0.182200
     19 C9          6.6650   -5.7690  -10.0740 c2        1 66B     -0.157200
     20 C8          7.3630   -4.8730   -9.1210 c3        1 66B     -0.028000
     21 C7          8.2750   -5.5940   -8.2010 c2        1 66B     -0.181200
     22 C6          9.0540   -4.9820   -7.3010 c2        1 66B     -0.160200
     23 C5          9.1080   -3.5110   -7.1280 c3        1 66B     -0.032000
     24 C4          9.7630   -3.0840   -5.8690 c2        1 66B     -0.177200
     25 C3          9.7970   -1.8170   -5.4420 c2        1 66B     -0.163200
     26 C2          9.2010   -0.6710   -6.1700 c3        1 66B     -0.062200
     27 C1          8.9320    0.5060   -5.2660 c3        1 66B     -0.095100
     28 H2          2.9930    0.2010   -2.9580 hc        1 66B      0.021200
     29 H3          4.5470   -0.2180   -2.1310 hc        1 66B      0.021200
     30 H4          5.8660    0.9340   -3.8330 hc        1 66B      0.048200
     31 H5          4.3910    1.7240   -4.5190 hc        1 66B      0.048200
     32 H6          5.0160   -1.3190   -4.5310 hc        1 66B      0.032700
     33 H7          3.5140   -0.5550   -5.1900 hc        1 66B      0.032700
     34 H8          6.4040    0.0970   -6.1080 hc        1 66B      0.071700
     35 H9          4.8750    0.8010   -6.7890 hc        1 66B      0.071700
     36 H10         3.3070   -2.1130   -6.7720 hc        1 66B      0.071200
     37 H11         3.8780   -2.4860   -8.4540 hc        1 66B      0.071200
     38 H12         2.4920    0.0540   -7.4010 ha        1 66B      0.138000
     39 H14         2.2070    0.6380   -9.7540 ha        1 66B      0.120000
     40 H16         4.5380   -1.2690  -10.2890 hc        1 66B      0.050700
     41 H17         3.7040   -0.1460  -11.4350 hc        1 66B      0.050700
     42 H18         1.7230   -1.6580  -11.5260 hc        1 66B      0.044700
     43 H19         2.4680   -2.7480  -10.2920 hc        1 66B      0.044700
     44 H20         3.1170   -2.4900  -13.2420 ha        1 66B      0.113000
     45 H21         4.8330   -4.1780  -12.9090 ha        1 66B      0.117000
     46 H22         5.5600   -3.3370  -10.3040 hc        1 66B      0.065700
     47 H23         4.0270   -4.2340   -9.9820 hc        1 66B      0.065700
     48 H24         5.1420   -6.1680  -11.4860 ha        1 66B      0.113000
     49 H25         7.1040   -6.7750  -10.1900 ha        1 66B      0.113000
     50 H26         7.9540   -4.1090   -9.7060 hc        1 66B      0.071200
     51 H27         6.6150   -4.2830   -8.5140 hc        1 66B      0.071200
     52 H28         8.2820   -6.6930   -8.2820 ha        1 66B      0.113000
     53 H29         9.7050   -5.5760   -6.6380 ha        1 66B      0.114000
     54 H30         8.0600   -3.0880   -7.1700 hc        1 66B      0.071200
     55 H31         9.6590   -3.0620   -8.0040 hc        1 66B      0.071200
     56 H32        10.2340   -3.8800   -5.2710 ha        1 66B      0.112000
     57 H33        10.2920   -1.5680   -4.4890 ha        1 66B      0.118000
     58 H34         8.2410   -0.9890   -6.6680 hc        1 66B      0.053700
     59 H35         9.9050   -0.3630   -6.9920 hc        1 66B      0.053700
     60 H36         8.5110    1.3550   -5.8570 hc        1 66B      0.038033
     61 H37         9.8710    0.8520   -4.7710 hc        1 66B      0.038033
     62 H38         8.1940    0.2350   -4.4710 hc        1 66B      0.038033
@<TRIPOS>BOND
     1    1    2 1   
     2    2    3 1   
     3    2    4 1   
     4    4    5 1   
     5    4   28 1   
     6    4   29 1   
     7    5    6 1   
     8    5   30 1   
     9    5   31 1   
    10    6    7 1   
    11    6   32 1   
    12    6   33 1   
    13    7    8 1   
    14    7   34 1   
    15    7   35 1   
    16    8    9 2   
    17    8   10 1   
    18   10   11 1   
    19   10   36 1   
    20   10   37 1   
    21   11   12 2   
    22   11   38 1   
    23   12   13 1   
    24   12   39 1   
    25   13   14 1   
    26   13   40 1   
    27   13   41 1   
    28   14   15 1   
    29   14   42 1   
    30   14   43 1   
    31   15   16 2   
    32   15   44 1   
    33   16   17 1   
    34   16   45 1   
    35   17   18 1   
    36   17   46 1   
    37   17   47 1   
    38   18   19 2   
    39   18   48 1   
    40   19   20 1   
    41   19   49 1   
    42   20   21 1   
    43   20   50 1   
    44   20   51 1   
    45   21   22 2   
    46   21   52 1   
    47   22   23 1   
    48   22   53 1   
    49   23   24 1   
    50   23   54 1   
    51   23   55 1   
    52   24   25 2   
    53   24   56 1   
    54   25   26 1   
    55   25   57 1   
    56   26   27 1   
    57   26   58 1   
    58   26   59 1   
    59   27   60 1   
    60   27   61 1   
    61   27   62 1   
@<TRIPOS>SUBSTRUCTURE
     1 66B         1 TEMP              0 ****  ****    0 ROOT
