@<TRIPOS>MOLECULE
66G
   24    25     1     0     0
SMALL
bcc


@<TRIPOS>ATOM
      1 C          -0.0680   -0.0500    0.0040 cc        1 66G      0.569600
      2 N          -0.9560    0.6980   -2.1410 n7        1 66G     -0.793200
      3 C1          3.1270   -0.3740    1.4400 c2        1 66G      0.302700
      4 N1          1.1700   -0.4800   -0.1040 nd        1 66G     -0.533300
      5 CA         -1.2360   -0.1010   -0.9440 c3        1 66G      0.156200
      6 S10         4.2120   -1.1660    0.4270 sh        1 66G     -0.115400
      7 O21        -0.3620    0.6010    1.2400 os        1 66G     -0.442700
      8 O26         0.8460    1.0680    3.0900 o         1 66G     -0.582500
      9 C78        -0.7890   -0.2110   -3.2700 c3        1 66G      0.148800
     10 C79        -1.2630   -1.6190   -2.8700 c3        1 66G     -0.102400
     11 C80        -1.5240   -1.5630   -1.3700 c3        1 66G     -0.093400
     12 C83         0.8330    0.5670    1.9730 c         1 66G      0.710800
     13 CA1         1.8250   -0.1280    1.1160 cd        1 66G     -0.162600
     14 OXT         3.6650    0.0080    2.6360 oh        1 66G     -0.505100
     15 HA         -2.1200    0.3190   -0.3780 h1        1 66G      0.077700
     16 HS10        5.2830   -1.1350    1.2110 hs        1 66G      0.198800
     17 H78         0.3070   -0.2330   -3.5200 h1        1 66G      0.054700
     18 H78A       -1.3440    0.1570   -4.1740 h1        1 66G      0.054700
     19 H79        -2.1920   -1.8960   -3.4260 hc        1 66G      0.052700
     20 H79A       -0.4790   -2.3760   -3.1140 hc        1 66G      0.052700
     21 H80        -0.8720   -2.2830   -0.8200 hc        1 66G      0.060200
     22 H80A       -2.5870   -1.8160   -1.1360 hc        1 66G      0.060200
     23 HXT         3.0000    0.4680    3.1830 ho        1 66G      0.466000
     24 HN         -1.7050    1.3440   -2.3020 hn        1 66G      0.363800
@<TRIPOS>BOND
     1    1    4 2   
     2    1    5 1   
     3    1    7 1   
     4    2    5 1   
     5    2    9 1   
     6    2   24 1   
     7    3    6 1   
     8    3   13 2   
     9    3   14 1   
    10    4   13 1   
    11    5   11 1   
    12    5   15 1   
    13    6   16 1   
    14    7   12 1   
    15    8   12 2   
    16    9   10 1   
    17    9   17 1   
    18    9   18 1   
    19   10   11 1   
    20   10   19 1   
    21   10   20 1   
    22   11   21 1   
    23   11   22 1   
    24   12   13 1   
    25   14   23 1   
@<TRIPOS>SUBSTRUCTURE
     1 66G         1 TEMP              0 ****  ****    0 ROOT
