@<TRIPOS>MOLECULE
66G
   24    25     1     0     0
SMALL
bcc


@<TRIPOS>ATOM
      1 C          -0.0540   -0.0130   -0.0060 cc        1 66G      0.569600
      2 N          -0.9010    0.6780   -2.1870 n3        1 66G     -0.793200
      3 C1          3.1170   -0.3940    1.4680 c2        1 66G      0.302700
      4 N1          1.1680   -0.4930   -0.0870 nd        1 66G     -0.533300
      5 CA         -1.2170   -0.0620   -0.9610 c3        1 66G      0.156200
      6 S10         4.1790   -1.2670    0.4980 sh        1 66G     -0.115400
      7 O21        -0.3320    0.6990    1.1990 os        1 66G     -0.442700
      8 O26         0.8810    1.1980    3.0380 o         1 66G     -0.582500
      9 C78        -0.7590   -0.2810   -3.2770 c3        1 66G      0.148800
     10 C79        -1.2850   -1.6540   -2.8250 c3        1 66G     -0.102400
     11 C80        -1.5530   -1.5290   -1.3310 c3        1 66G     -0.093400
     12 C83         0.8570    0.6520    1.9420 c         1 66G      0.710800
     13 CA1         1.8270   -0.1150    1.1230 cd        1 66G     -0.162600
     14 OXT         3.6620    0.0180    2.6510 oh        1 66G     -0.505100
     15 HA         -2.0890    0.4110   -0.4190 h1        1 66G      0.077700
     16 HS10        5.2450   -1.2420    1.2880 hs        1 66G      0.198800
     17 H78         0.3380   -0.3510   -3.5180 h1        1 66G      0.054700
     18 H78A       -1.2950    0.0700   -4.1990 h1        1 66G      0.054700
     19 H79        -2.2200   -1.9200   -3.3770 hc        1 66G      0.052700
     20 H79A       -0.5270   -2.4480   -3.0330 hc        1 66G      0.052700
     21 H80        -0.9310   -2.2490   -0.7470 hc        1 66G      0.060200
     22 H80A       -2.6260   -1.7340   -1.0950 hc        1 66G      0.060200
     23 HXT         3.0110    0.5250    3.1730 ho        1 66G      0.466000
     24 HN         -1.6250    1.3440   -2.3790 hn        1 66G      0.363800
@<TRIPOS>BOND
     1    1    4 2   
     2    1    5 1   
     3    1    7 1   
     4    2    5 1   
     5    2    9 1   
     6    2   24 1   
     7    3    6 1   
     8    3   13 2   
     9    3   14 1   
    10    4   13 1   
    11    5   11 1   
    12    5   15 1   
    13    6   16 1   
    14    7   12 1   
    15    8   12 2   
    16    9   10 1   
    17    9   17 1   
    18    9   18 1   
    19   10   11 1   
    20   10   19 1   
    21   10   20 1   
    22   11   21 1   
    23   11   22 1   
    24   12   13 1   
    25   14   23 1   
@<TRIPOS>SUBSTRUCTURE
     1 66G         1 TEMP              0 ****  ****    0 ROOT
