@<TRIPOS>MOLECULE
66G
   24    25     1     0     0
SMALL
bcc


@<TRIPOS>ATOM
      1 C          -0.8480   -0.5380    0.3490 cc        1 66G      0.569600
      2 N          -2.8440    0.4810    1.3120 n3        1 66G     -0.793200
      3 C1          2.3800    0.5590   -0.5200 c2        1 66G      0.302700
      4 N1         -0.0930    0.3490   -0.2620 nd        1 66G     -0.533300
      5 CA         -2.3400   -0.6430    0.5160 c3        1 66G      0.156200
      6 S10         2.3570    1.9740   -1.4290 sh        1 66G     -0.115400
      7 O21        -0.1250   -1.5900    0.9870 os        1 66G     -0.442700
      8 O26         2.0700   -2.0840    1.1890 o         1 66G     -0.582500
      9 C78        -3.6220    1.3510    0.4360 c3        1 66G      0.148800
     10 C79        -3.8860    0.6320   -0.8990 c3        1 66G     -0.102400
     11 C80        -3.0410   -0.6360   -0.8660 c3        1 66G     -0.093400
     12 C83         1.2280   -1.3160    0.7410 c         1 66G      0.710800
     13 CA1         1.2580   -0.0700   -0.0640 cd        1 66G     -0.162600
     14 OXT         3.6350    0.0810   -0.2740 oh        1 66G     -0.505100
     15 HA         -2.5300   -1.6250    1.0420 h1        1 66G      0.077700
     16 HS10        3.6650    2.1320   -1.5940 hs        1 66G      0.198800
     17 H78        -4.5850    1.6610    0.9220 h1        1 66G      0.054700
     18 H78A       -3.0080    2.2760    0.2570 h1        1 66G      0.054700
     19 H79        -4.9700    0.3870   -1.0070 hc        1 66G      0.052700
     20 H79A       -3.5950    1.2860   -1.7560 hc        1 66G      0.052700
     21 H80        -2.2990   -0.6480   -1.7000 hc        1 66G      0.060200
     22 H80A       -3.6800   -1.5480   -0.9630 hc        1 66G      0.060200
     23 HXT         3.5960   -0.7350    0.2620 ho        1 66G      0.466000
     24 HN         -3.4010    0.1380    2.0710 hn        1 66G      0.363800
@<TRIPOS>BOND
     1    1    4 2   
     2    1    5 1   
     3    1    7 1   
     4    2    5 1   
     5    2    9 1   
     6    2   24 1   
     7    3    6 1   
     8    3   13 2   
     9    3   14 1   
    10    4   13 1   
    11    5   11 1   
    12    5   15 1   
    13    6   16 1   
    14    7   12 1   
    15    8   12 2   
    16    9   10 1   
    17    9   17 1   
    18    9   18 1   
    19   10   11 1   
    20   10   19 1   
    21   10   20 1   
    22   11   21 1   
    23   11   22 1   
    24   12   13 1   
    25   14   23 1   
@<TRIPOS>SUBSTRUCTURE
     1 66G         1 TEMP              0 ****  ****    0 ROOT
