@<TRIPOS>MOLECULE
66G
   24    21     1     0     0
SMALL
bcc


@<TRIPOS>ATOM
      1 C          -0.3380    0.2520    0.3020 c1        1 66G      0.088000
      2 N          -0.3690    0.2240   -2.0630 n3        1 66G     -0.273000
      3 C1          2.8280    0.2520    1.8520 c1        1 66G      0.016000
      4 N1          0.9770    0.2520    0.3020 n1        1 66G     -0.148000
      5 CA         -1.0520    0.8180   -0.7990 c2        1 66G      0.032000
      6 S10         3.3210    0.2520    3.5550 s         1 66G      0.277000
      7 O21        -0.9060    0.2520    1.5780 os        1 66G     -0.231000
      8 O26         0.2940    0.6190    3.6620 o         1 66G     -0.267000
      9 C78        -1.2200   -0.9640   -2.4840 c3        1 66G     -0.087000
     10 C79        -2.0070   -1.1750   -1.5220 c3        1 66G     -0.181000
     11 C80        -2.2110    0.2110   -0.7920 c3        1 66G     -0.171000
     12 C83         0.2880    0.2520    2.5040 c1        1 66G      0.333000
     13 CA1         1.5200    0.2520    1.5290 c1        1 66G     -0.272000
     14 OXT         3.8030    0.2520    0.8380 oh        1 66G     -0.260000
     15 HN         -0.3670    0.8470   -2.7290 hn        1 66G      0.161000
     16 HA         -1.0100    1.7800   -0.6350 h4        1 66G      0.118000
     17 HS10        4.2440    0.9690    3.6970 hs        1 66G      0.036000
     18 H78        -1.7240   -0.7490   -3.2920 h1        1 66G      0.092500
     19 H78A       -0.6560   -1.7470   -2.6360 h1        1 66G      0.092500
     20 H79        -2.8630   -1.5060   -1.8560 hc        1 66G      0.091000
     21 H79A       -1.6160   -1.8230   -0.9050 hc        1 66G      0.091000
     22 H80        -2.5050    0.0640    0.1270 hc        1 66G      0.100000
     23 H80A       -2.8710    0.7470   -1.2720 hc        1 66G      0.100000
     24 HXT         4.4400   -0.3330    1.0390 ho        1 66G      0.261000
@<TRIPOS>BOND
     1    1    4 1   
     2    1    7 1   
     3    2    5 1   
     4    2    9 1   
     5    2   15 1   
     6    3   13 1   
     7    3   14 1   
     8    5   11 1   
     9    5   16 1   
    10    6   17 1   
    11    7   12 1   
    12    8   12 1   
    13    9   10 1   
    14    9   18 1   
    15    9   19 1   
    16   10   11 1   
    17   10   20 1   
    18   10   21 1   
    19   11   22 1   
    20   11   23 1   
    21   14   24 1   
@<TRIPOS>SUBSTRUCTURE
     1 66G         1 TEMP              0 ****  ****    0 ROOT
