@<TRIPOS>MOLECULE
66G
   24    25     1     0     0
SMALL
bcc


@<TRIPOS>ATOM
      1 C          -0.0820   -0.0810    0.0160 cc        1 66G      0.569600
      2 N          -0.9830    0.7180   -2.1050 n3        1 66G     -0.793200
      3 C1          3.1160   -0.3620    1.4540 c2        1 66G      0.302700
      4 N1          1.1690   -0.4690   -0.1020 nd        1 66G     -0.533300
      5 CA         -1.2440   -0.1330   -0.9390 c3        1 66G      0.156200
      6 S10         4.2280   -1.0840    0.4190 sh        1 66G     -0.115400
      7 O21        -0.3990    0.5150    1.2730 os        1 66G     -0.442700
      8 O26         0.7880    0.9500    3.1450 o         1 66G     -0.582500
      9 C78        -0.7850   -0.1440   -3.2660 c3        1 66G      0.148800
     10 C79        -1.2180   -1.5790   -2.9200 c3        1 66G     -0.102400
     11 C80        -1.4860   -1.5850   -1.4190 c3        1 66G     -0.093400
     12 C83         0.7940    0.4900    2.0100 c         1 66G      0.710800
     13 CA1         1.8090   -0.1440    1.1330 cd        1 66G     -0.162600
     14 OXT         3.6390   -0.0080    2.6660 oh        1 66G     -0.505100
     15 HA         -2.1420    0.2400   -0.3630 h1        1 66G      0.077700
     16 HS10        5.2950   -1.0490    1.2080 hs        1 66G      0.198800
     17 H78        -1.3470    0.2410   -4.1580 h1        1 66G      0.054700
     18 H78A        0.3130   -0.1240   -3.5110 h1        1 66G      0.054700
     19 H79        -2.1360   -1.8630   -3.4900 hc        1 66G      0.052700
     20 H79A       -0.4110   -2.3030   -3.1870 hc        1 66G      0.052700
     21 H80        -2.5420   -1.8780   -1.2000 hc        1 66G      0.060200
     22 H80A       -0.8140   -2.3060   -0.8930 hc        1 66G      0.060200
     23 HXT         2.9580    0.4120    3.2270 ho        1 66G      0.466000
     24 HN         -1.7510    1.3470   -2.2460 hn        1 66G      0.363800
@<TRIPOS>BOND
     1    1    4 2   
     2    1    5 1   
     3    1    7 1   
     4    2    5 1   
     5    2    9 1   
     6    2   24 1   
     7    3    6 1   
     8    3   13 2   
     9    3   14 1   
    10    4   13 1   
    11    5   11 1   
    12    5   15 1   
    13    6   16 1   
    14    7   12 1   
    15    8   12 2   
    16    9   10 1   
    17    9   17 1   
    18    9   18 1   
    19   10   11 1   
    20   10   19 1   
    21   10   20 1   
    22   11   21 1   
    23   11   22 1   
    24   12   13 1   
    25   14   23 1   
@<TRIPOS>SUBSTRUCTURE
     1 66G         1 TEMP              0 ****  ****    0 ROOT
