@<TRIPOS>MOLECULE
66T
   67    70     1     0     0
SMALL
bcc


@<TRIPOS>ATOM
      1 C           0.1670    0.7690   -0.6450 c3        1 66T     -0.095100
      2 N           3.3180   -1.3510   -0.4590 nh        1 66T     -0.645000
      3 O           6.8420   -5.6750   -3.6630 o         1 66T     -0.569100
      4 C1          1.6090    0.4630   -0.2500 c3        1 66T      0.171500
      5 N1          1.7920    0.4620    1.1980 n3        1 66T     -0.818200
      6 O1          9.3410  -14.4500   -9.5390 os        1 66T     -0.326900
      7 C2          1.9940   -0.9110   -0.8630 c3        1 66T      0.194300
      8 N2          4.8840   -6.8850   -3.4940 n         1 66T     -0.460100
      9 O2         12.1120  -12.9440   -5.7820 os        1 66T     -0.326900
     10 C3          3.5590   -1.2680    0.9730 c3        1 66T      0.194300
     11 N3          5.1180   -9.9600   -5.3580 nc        1 66T     -0.525800
     12 C4          3.1590    0.1100    1.5670 c3        1 66T      0.171500
     13 N4          4.4380   -8.9990   -4.7230 na        1 66T     -0.042600
     14 C5          3.3450    0.0430    3.0800 c3        1 66T     -0.095100
     15 C6          3.8450   -2.4790   -1.1200 ca        1 66T      0.182600
     16 C7          5.1940   -2.8620   -0.9070 ca        1 66T     -0.189500
     17 C8          5.7540   -3.9150   -1.6150 ca        1 66T     -0.059000
     18 C9          4.9970   -4.6330   -2.5480 ca        1 66T     -0.188600
     19 C10         3.6710   -4.2640   -2.7780 ca        1 66T     -0.059000
     20 C11         3.0980   -3.2100   -2.0760 ca        1 66T     -0.189500
     21 C12         5.6590   -5.7420   -3.2870 c         1 66T      0.691700
     22 C13         5.3160   -7.9840   -4.2310 cc        1 66T      0.020300
     23 C14         6.6000   -8.3140   -4.7110 cd        1 66T     -0.293300
     24 C15         6.4200   -9.5680   -5.4190 cd        1 66T      0.327600
     25 C16         7.5090  -10.2820   -6.1220 c3        1 66T     -0.101700
     26 C17         7.4140  -11.7910   -5.9770 c3        1 66T     -0.037100
     27 C18         8.5960  -12.4660   -6.5840 ca        1 66T     -0.018300
     28 C19         9.8330  -12.4140   -5.9350 ca        1 66T     -0.189000
     29 C20        10.9400  -13.0590   -6.5060 ca        1 66T      0.156600
     30 C21        10.8340  -13.7580   -7.7160 ca        1 66T     -0.280000
     31 C22         9.5850  -13.7970   -8.3450 ca        1 66T      0.156600
     32 C23         8.4640  -13.1570   -7.7910 ca        1 66T     -0.189000
     33 C24        10.4510  -15.1070  -10.1380 c3        1 66T      0.114700
     34 C25        13.2600  -13.5790   -6.3300 c3        1 66T      0.114700
     35 H1          2.2730    1.2450   -0.7370 h1        1 66T      0.028200
     36 H4          3.8930    0.8760    1.1620 h1        1 66T      0.028200
     37 HN4         3.5590   -9.2310   -4.3200 hn        1 66T      0.302700
     38 H          -0.5380    0.0230   -0.2070 hc        1 66T      0.043367
     39 HA          0.0790    0.7390   -1.7570 hc        1 66T      0.043367
     40 HB         -0.1280    1.7860   -0.2920 hc        1 66T      0.043367
     41 H2          1.9900   -0.7900   -1.9830 h1        1 66T      0.046950
     42 H2A         1.2040   -1.6650   -0.5800 h1        1 66T      0.046950
     43 H3          2.9950   -2.0760    1.5230 h1        1 66T      0.046950
     44 H3A         4.6570   -1.4090    1.1700 h1        1 66T      0.046950
     45 HN1         1.5450    1.3530    1.5820 hn        1 66T      0.366800
     46 H5          4.4000   -0.2450    3.3070 hc        1 66T      0.043367
     47 H5A         2.6610   -0.7100    3.5380 hc        1 66T      0.043367
     48 H5B         3.1400    1.0380    3.5440 hc        1 66T      0.043367
     49 H7          5.8260   -2.3120   -0.1940 ha        1 66T      0.141000
     50 H8          6.8110   -4.1870   -1.4550 ha        1 66T      0.143500
     51 H10         3.0630   -4.7910   -3.5300 ha        1 66T      0.143500
     52 H11         2.0470   -2.9580   -2.2840 ha        1 66T      0.141000
     53 HN2         3.9490   -6.8870   -3.1560 hn        1 66T      0.319500
     54 H14         7.5150   -7.7440   -4.5880 ha        1 66T      0.192000
     55 H16         7.4800  -10.0070   -7.2120 hc        1 66T      0.061200
     56 H16A        8.4920   -9.9260   -5.7100 hc        1 66T      0.061200
     57 H17         7.3550  -12.0590   -4.8880 hc        1 66T      0.061200
     58 H17A        6.4700  -12.1580   -6.4630 hc        1 66T      0.061200
     59 H19         9.9480  -11.8750   -4.9840 ha        1 66T      0.151500
     60 H21        11.7040  -14.2600   -8.1550 ha        1 66T      0.141000
     61 H23         7.4980  -13.2090   -8.3130 ha        1 66T      0.151500
     62 H24        10.0190  -15.5490  -11.0710 h1        1 66T      0.043033
     63 H24A       11.2580  -14.3750  -10.3860 h1        1 66T      0.043033
     64 H24B       10.8440  -15.9100   -9.4680 h1        1 66T      0.043033
     65 H25        13.5120  -13.1460   -7.3290 h1        1 66T      0.043033
     66 H25A       14.0640  -13.3480   -5.5860 h1        1 66T      0.043033
     67 H25B       13.1020  -14.6810   -6.4100 h1        1 66T      0.043033
@<TRIPOS>BOND
     1    1    4 1   
     2    1   38 1   
     3    1   39 1   
     4    1   40 1   
     5    2    7 1   
     6    2   10 1   
     7    2   15 1   
     8    3   21 2   
     9    4    5 1   
    10    4    7 1   
    11    4   35 1   
    12    5   12 1   
    13    5   45 1   
    14    6   31 1   
    15    6   33 1   
    16    7   41 1   
    17    7   42 1   
    18    8   21 1   
    19    8   22 1   
    20    8   53 1   
    21    9   29 1   
    22    9   34 1   
    23   10   12 1   
    24   10   43 1   
    25   10   44 1   
    26   11   13 1   
    27   11   24 2   
    28   12   14 1   
    29   12   36 1   
    30   13   22 1   
    31   13   37 1   
    32   14   46 1   
    33   14   47 1   
    34   14   48 1   
    35   15   16 ar  
    36   15   20 ar  
    37   16   17 ar  
    38   16   49 1   
    39   17   18 ar  
    40   17   50 1   
    41   18   19 ar  
    42   18   21 1   
    43   19   20 ar  
    44   19   51 1   
    45   20   52 1   
    46   22   23 2   
    47   23   24 1   
    48   23   54 1   
    49   24   25 1   
    50   25   26 1   
    51   25   55 1   
    52   25   56 1   
    53   26   27 1   
    54   26   57 1   
    55   26   58 1   
    56   27   28 ar  
    57   27   32 ar  
    58   28   29 ar  
    59   28   59 1   
    60   29   30 ar  
    61   30   31 ar  
    62   30   60 1   
    63   31   32 ar  
    64   32   61 1   
    65   33   62 1   
    66   33   63 1   
    67   33   64 1   
    68   34   65 1   
    69   34   66 1   
    70   34   67 1   
@<TRIPOS>SUBSTRUCTURE
     1 66T         1 TEMP              0 ****  ****    0 ROOT
