@<TRIPOS>MOLECULE
66T
   67    70     1     0     0
SMALL
bcc


@<TRIPOS>ATOM
      1 C           0.2010    0.8000   -0.6590 c3        1 66T     -0.095100
      2 N           3.3250   -1.3570   -0.4480 nh        1 66T     -0.645000
      3 O           6.8500   -5.6840   -3.6460 o         1 66T     -0.569100
      4 C1          1.6340    0.4730   -0.2450 c3        1 66T      0.171500
      5 N1          1.7950    0.4550    1.2050 n7        1 66T     -0.818200
      6 O1          9.3360  -14.4830   -9.5140 os        1 66T     -0.326900
      7 C2          2.0130   -0.8980   -0.8670 c3        1 66T      0.194300
      8 N2          4.8780   -6.8750   -3.5180 ns        1 66T     -0.460100
      9 O2         12.1080  -12.9270   -5.7790 os        1 66T     -0.326900
     10 C3          3.5460   -1.2920    0.9880 c3        1 66T      0.194300
     11 N3          5.1070   -9.9350   -5.4070 nc        1 66T     -0.525800
     12 C4          3.1520    0.0840    1.5910 c3        1 66T      0.171500
     13 N4          4.4280   -8.9740   -4.7720 na        1 66T     -0.042600
     14 C5          3.3140   -0.0010    3.1060 c3        1 66T     -0.095100
     15 C6          3.8500   -2.4830   -1.1130 ca        1 66T      0.182600
     16 C7          5.1920   -2.8830   -0.8840 ca        1 66T     -0.189500
     17 C8          5.7520   -3.9350   -1.5950 ca        1 66T     -0.059000
     18 C9          5.0010   -4.6350   -2.5470 ca        1 66T     -0.188600
     19 C10         3.6820   -4.2480   -2.7930 ca        1 66T     -0.059000
     20 C11         3.1100   -3.1960   -2.0880 ca        1 66T     -0.189500
     21 C12         5.6620   -5.7420   -3.2880 c         1 66T      0.691700
     22 C13         5.3090   -7.9710   -4.2590 cc        1 66T      0.020300
     23 C14         6.5950   -8.3090   -4.7260 cd        1 66T     -0.293300
     24 C15         6.4130   -9.5550   -5.4480 cd        1 66T      0.327600
     25 C16         7.5040  -10.2740   -6.1440 c3        1 66T     -0.101700
     26 C17         7.4090  -11.7820   -5.9840 c3        1 66T     -0.037100
     27 C18         8.5910  -12.4630   -6.5840 ca        1 66T     -0.018300
     28 C19         9.8280  -12.4010   -5.9370 ca        1 66T     -0.189000
     29 C20        10.9360  -13.0520   -6.5020 ca        1 66T      0.156600
     30 C21        10.8300  -13.7670   -7.7020 ca        1 66T     -0.280000
     31 C22         9.5790  -13.8140   -8.3300 ca        1 66T      0.156600
     32 C23         8.4580  -13.1690   -7.7820 ca        1 66T     -0.189000
     33 C24        10.4460  -15.1450  -10.1070 c3        1 66T      0.114700
     34 C25        13.2560  -13.5680   -6.3210 c3        1 66T      0.114700
     35 H1          2.3130    1.2530   -0.7130 h1        1 66T      0.028200
     36 H4          3.9010    0.8460    1.2060 h1        1 66T      0.028200
     37 HN4         3.5410   -9.2000   -4.3830 hn        1 66T      0.302700
     38 H           0.1300    0.7820   -1.7720 hc        1 66T      0.043367
     39 HA         -0.5180    0.0570   -0.2400 hc        1 66T      0.043367
     40 HB         -0.0880    1.8160   -0.2990 hc        1 66T      0.043367
     41 H2          2.0270   -0.7650   -1.9850 h1        1 66T      0.046950
     42 H2A         1.2110   -1.6460   -0.6040 h1        1 66T      0.046950
     43 H3          4.6390   -1.4480    1.2000 h1        1 66T      0.046950
     44 H3A         2.9640   -2.0990    1.5210 h1        1 66T      0.046950
     45 HN1         1.5520    1.3450    1.5950 hn        1 66T      0.366800
     46 H5          2.6140   -0.7510    3.5450 hc        1 66T      0.043367
     47 H5A         3.1140    0.9910    3.5780 hc        1 66T      0.043367
     48 H5B         4.3620   -0.3030    3.3460 hc        1 66T      0.043367
     49 H7          5.8190   -2.3480   -0.1560 ha        1 66T      0.141000
     50 H8          6.8030   -4.2200   -1.4230 ha        1 66T      0.143500
     51 H10         3.0800   -4.7610   -3.5600 ha        1 66T      0.143500
     52 H11         2.0650   -2.9310   -2.3090 ha        1 66T      0.141000
     53 HN2         3.9390   -6.8710   -3.1930 hn        1 66T      0.319500
     54 H14         7.5150   -7.7500   -4.5870 ha        1 66T      0.192000
     55 H16         7.4750  -10.0100   -7.2360 hc        1 66T      0.061200
     56 H16A        8.4860   -9.9140   -5.7350 hc        1 66T      0.061200
     57 H17         6.4650  -12.1530   -6.4660 hc        1 66T      0.061200
     58 H17A        7.3500  -12.0390   -4.8920 hc        1 66T      0.061200
     59 H19         9.9450  -11.8500   -4.9930 ha        1 66T      0.151500
     60 H21        11.7000  -14.2730   -8.1360 ha        1 66T      0.141000
     61 H23         7.4920  -13.2280   -8.3020 ha        1 66T      0.151500
     62 H24        10.0130  -15.6000  -11.0340 h1        1 66T      0.043033
     63 H24A       11.2500  -14.4150  -10.3660 h1        1 66T      0.043033
     64 H24B       10.8410  -15.9390   -9.4280 h1        1 66T      0.043033
     65 H25        13.5070  -13.1480   -7.3250 h1        1 66T      0.043033
     66 H25A       14.0610  -13.3270   -5.5810 h1        1 66T      0.043033
     67 H25B       13.0990  -14.6720   -6.3860 h1        1 66T      0.043033
@<TRIPOS>BOND
     1    1    4 1   
     2    1   38 1   
     3    1   39 1   
     4    1   40 1   
     5    2    7 1   
     6    2   10 1   
     7    2   15 1   
     8    3   21 2   
     9    4    5 1   
    10    4    7 1   
    11    4   35 1   
    12    5   12 1   
    13    5   45 1   
    14    6   31 1   
    15    6   33 1   
    16    7   41 1   
    17    7   42 1   
    18    8   21 1   
    19    8   22 1   
    20    8   53 1   
    21    9   29 1   
    22    9   34 1   
    23   10   12 1   
    24   10   43 1   
    25   10   44 1   
    26   11   13 1   
    27   11   24 2   
    28   12   14 1   
    29   12   36 1   
    30   13   22 1   
    31   13   37 1   
    32   14   46 1   
    33   14   47 1   
    34   14   48 1   
    35   15   16 ar  
    36   15   20 ar  
    37   16   17 ar  
    38   16   49 1   
    39   17   18 ar  
    40   17   50 1   
    41   18   19 ar  
    42   18   21 1   
    43   19   20 ar  
    44   19   51 1   
    45   20   52 1   
    46   22   23 2   
    47   23   24 1   
    48   23   54 1   
    49   24   25 1   
    50   25   26 1   
    51   25   55 1   
    52   25   56 1   
    53   26   27 1   
    54   26   57 1   
    55   26   58 1   
    56   27   28 ar  
    57   27   32 ar  
    58   28   29 ar  
    59   28   59 1   
    60   29   30 ar  
    61   30   31 ar  
    62   30   60 1   
    63   31   32 ar  
    64   32   61 1   
    65   33   62 1   
    66   33   63 1   
    67   33   64 1   
    68   34   65 1   
    69   34   66 1   
    70   34   67 1   
@<TRIPOS>SUBSTRUCTURE
     1 66T         1 TEMP              0 ****  ****    0 ROOT
