@<TRIPOS>MOLECULE
671
   58    61     1     0     0
SMALL
bcc


@<TRIPOS>ATOM
      1 CAJ        -0.7220    2.8590    0.4830 ca        1 671     -0.009000
      2 CAH         0.5120    3.3010    0.8870 ca        1 671     -0.224500
      3 CAX         1.3180    2.5120    1.7790 ca        1 671      0.298600
      4 NAA         2.5370    2.9310    2.1750 nh        1 671     -0.797200
      5 CAI         0.7760    1.2610    2.2370 ca        1 671     -0.224500
      6 CAK        -0.4600    0.8400    1.8190 ca        1 671     -0.009000
      7 CAY        -1.2400    1.6170    0.9270 ca        1 671     -0.317300
      8 CAR        -2.5040    1.1170    0.4270 c3        1 671      0.239100
      9 NAU        -3.6430    1.6520    1.3720 n4        1 671     -0.685800
     10 CAV        -4.9130    0.9270    1.2270 c         1 671      0.498100
     11 OAB        -5.2200   -0.0310    1.9220 o         1 671     -0.344100
     12 N          -5.8690    1.3220    0.1270 n4        1 671     -0.636800
     13 CA         -7.0170    2.1330    0.6550 c3        1 671      0.007800
     14 C          -6.5910    3.6010    0.9140 c         1 671      0.656100
     15 O          -5.3520    3.8370    0.9050 o         1 671     -0.709100
     16 NBD        -7.5550    4.5090    1.1270 n         1 671     -0.384800
     17 CAS        -8.9730    4.1930    1.2540 c3        1 671      0.065000
     18 CAO        -9.6800    5.4650    1.7440 c3        1 671     -0.087400
     19 CAQ        -8.6100    6.5420    1.8850 c3        1 671     -0.091400
     20 CBC        -7.2870    5.9540    1.3360 c3        1 671      0.157000
     21 CAZ        -6.8620    6.6610    0.0760 ca        1 671     -0.127300
     22 CBB        -5.6600    7.4310    0.0230 ca        1 671     -0.008000
     23 CAN        -4.7740    7.6000    1.1240 ca        1 671     -0.145000
     24 CAE        -3.6470    8.3770    1.0180 ca        1 671     -0.106000
     25 CAD        -3.3320    9.0290   -0.1970 ca        1 671     -0.123000
     26 CAL        -4.1620    8.8890   -1.2800 ca        1 671     -0.103000
     27 CBA        -5.3400    8.0950   -1.1950 ca        1 671     -0.046000
     28 CAM        -6.2060    7.9850   -2.3160 ca        1 671     -0.078000
     29 CAF        -7.3610    7.2480   -2.2340 ca        1 671     -0.142000
     30 CAG        -7.6890    6.5910   -1.0300 ca        1 671     -0.108000
     31 H1         -1.3140    3.4740   -0.2150 ha        1 671      0.143500
     32 H2          0.8990    4.2650    0.5170 ha        1 671      0.171000
     33 H3          2.9140    3.7870    1.8390 hn        1 671      0.465300
     34 H4          3.0960    2.3710    2.7770 hn        1 671      0.465300
     35 H5          1.3700    0.6300    2.9200 ha        1 671      0.171000
     36 H6         -0.8450   -0.1340    2.1670 ha        1 671      0.143500
     37 H7         -2.7680    1.5090   -0.5930 hx        1 671      0.097200
     38 H8         -2.5810   -0.0040    0.4680 hx        1 671      0.097200
     39 H9         -3.7620    2.6730    1.2110 hn        1 671      0.498800
     40 H10        -5.3870    1.8800   -0.5960 hn        1 671      0.493800
     41 H11        -7.3940    1.6620    1.6100 hx        1 671      0.146700
     42 H12        -7.8360    2.0970   -0.1240 hx        1 671      0.146700
     43 H13        -9.3790    3.8730    0.2540 h1        1 671      0.057700
     44 H14        -9.1110    3.3500    1.9860 h1        1 671      0.057700
     45 H15       -10.4620    5.7740    1.0050 hc        1 671      0.084200
     46 H16       -10.1880    5.2740    2.7220 hc        1 671      0.084200
     47 H17        -8.4730    6.8300    2.9570 hc        1 671      0.089700
     48 H18        -8.8890    7.4630    1.3130 hc        1 671      0.089700
     49 H19        -6.4810    6.0130    2.1210 h1        1 671      0.089700
     50 H20        -4.9940    7.1220    2.0890 ha        1 671      0.123000
     51 H21        -2.9810    8.5140    1.8840 ha        1 671      0.142000
     52 H22        -2.4280    9.6550   -0.2550 ha        1 671      0.152000
     53 H23        -3.9400    9.4000   -2.2310 ha        1 671      0.151000
     54 H24        -5.9390    8.5150   -3.2460 ha        1 671      0.155000
     55 H25        -8.0480    7.1760   -3.0910 ha        1 671      0.152000
     56 H26        -8.6380    6.0330   -0.9770 ha        1 671      0.124000
     57 HAU2       -3.3190    1.5280    2.3490 hn        1 671      0.498800
     58 H27        -6.2440    0.4540   -0.2910 hn        1 671      0.493800
@<TRIPOS>BOND
     1    1    2 ar  
     2    1    7 ar  
     3    1   31 1   
     4    2    3 ar  
     5    2   32 1   
     6    3    4 1   
     7    3    5 ar  
     8    4   33 1   
     9    4   34 1   
    10    5    6 ar  
    11    5   35 1   
    12    6    7 ar  
    13    6   36 1   
    14    7    8 1   
    15    8    9 1   
    16    8   37 1   
    17    8   38 1   
    18    9   10 1   
    19    9   39 1   
    20    9   57 1   
    21   10   11 2   
    22   10   12 1   
    23   12   13 1   
    24   12   40 1   
    25   12   58 1   
    26   13   14 1   
    27   13   41 1   
    28   13   42 1   
    29   14   15 2   
    30   14   16 1   
    31   16   17 1   
    32   16   20 1   
    33   17   18 1   
    34   17   43 1   
    35   17   44 1   
    36   18   19 1   
    37   18   45 1   
    38   18   46 1   
    39   19   20 1   
    40   19   47 1   
    41   19   48 1   
    42   20   21 1   
    43   20   49 1   
    44   21   22 ar  
    45   21   30 ar  
    46   22   23 ar  
    47   22   27 ar  
    48   23   24 ar  
    49   23   50 1   
    50   24   25 ar  
    51   24   51 1   
    52   25   26 ar  
    53   25   52 1   
    54   26   27 ar  
    55   26   53 1   
    56   27   28 ar  
    57   28   29 ar  
    58   28   54 1   
    59   29   30 ar  
    60   29   55 1   
    61   30   56 1   
@<TRIPOS>SUBSTRUCTURE
     1 671         1 TEMP              0 ****  ****    0 ROOT
