@<TRIPOS>MOLECULE
671
   56    59     1     0     0
SMALL
bcc


@<TRIPOS>ATOM
      1 CAJ        -1.5200   -0.2600    1.4250 ca        1 671     -0.075000
      2 CAH        -0.8310   -1.3530    0.9180 ca        1 671     -0.198000
      3 CAX         0.4490   -1.6890    1.4210 ca        1 671      0.152600
      4 NAA         1.1080   -2.8410    0.9850 nh        1 671     -0.823200
      5 CAI         1.0090   -0.8740    2.4340 ca        1 671     -0.198000
      6 CAK         0.3050    0.2170    2.9270 ca        1 671     -0.075000
      7 CAY        -0.9610    0.5350    2.4310 ca        1 671     -0.183300
      8 CAR        -1.7340    1.6960    2.9820 c3        1 671      0.126300
      9 NAU        -1.7390    2.8830    2.1560 n         1 671     -0.521900
     10 CAV        -2.7170    2.9970    1.1480 c         1 671      0.728100
     11 OAB        -3.7390    2.2660    1.1480 o         1 671     -0.650100
     12 N          -2.5310    3.9620    0.1260 n         1 671     -0.521900
     13 CA         -3.6640    4.3060   -0.6880 c3        1 671      0.010000
     14 C          -4.4870    5.4790   -0.1200 c         1 671      0.620100
     15 O          -3.9070    6.5540    0.1360 o         1 671     -0.608100
     16 NBD        -5.8590    5.3400    0.0040 n         1 671     -0.448800
     17 CAS        -6.4860    4.0470    0.2330 c3        1 671      0.068000
     18 CAO        -7.6980    4.2620    1.1530 c3        1 671     -0.090400
     19 CAQ        -7.7550    5.7550    1.4520 c3        1 671     -0.089400
     20 CBC        -6.6640    6.4240    0.5760 c3        1 671      0.132000
     21 CAZ        -7.3060    7.3390   -0.4410 ca        1 671     -0.067300
     22 CBB        -7.7850    8.6150    0.0010 ca        1 671     -0.026000
     23 CAN        -7.7120    9.0400    1.3580 ca        1 671     -0.122000
     24 CAE        -8.1730   10.2760    1.7400 ca        1 671     -0.126000
     25 CAD        -8.7380   11.1570    0.7880 ca        1 671     -0.130000
     26 CAL        -8.8350   10.7740   -0.5260 ca        1 671     -0.117000
     27 CBA        -8.3660    9.4980   -0.9470 ca        1 671     -0.037000
     28 CAM        -8.4770    9.0990   -2.3070 ca        1 671     -0.119000
     29 CAF        -8.0290    7.8660   -2.7020 ca        1 671     -0.129000
     30 CAG        -7.4430    6.9830   -1.7640 ca        1 671     -0.110000
     31 H1         -2.5190   -0.0040    1.0320 ha        1 671      0.140500
     32 H2         -1.2930   -1.9650    0.1290 ha        1 671      0.133000
     33 H3          2.0940   -2.8350    1.1210 hn        1 671      0.392800
     34 H4          0.8300   -3.1650    0.0870 hn        1 671      0.392800
     35 H5          2.0030   -1.1080    2.8450 ha        1 671      0.133000
     36 H6          0.7550    0.8340    3.7210 ha        1 671      0.140500
     37 H7         -1.2920    2.0070    3.9740 h1        1 671      0.073700
     38 H8         -2.8030    1.3770    3.1530 h1        1 671      0.073700
     39 H9         -0.8310    3.2320    1.9350 hn        1 671      0.294500
     40 H10        -1.9450    4.7420    0.3460 hn        1 671      0.307500
     41 H11        -3.2680    4.6630   -1.6830 h1        1 671      0.090700
     42 H12        -4.2930    3.3880   -0.8590 h1        1 671      0.090700
     43 H13        -5.7620    3.3190    0.7000 h1        1 671      0.063200
     44 H14        -6.8160    3.6310   -0.7590 h1        1 671      0.063200
     45 H15        -7.5810    3.6680    2.0930 hc        1 671      0.054700
     46 H16        -8.6320    3.9200    0.6450 hc        1 671      0.054700
     47 H17        -7.5390    5.9520    2.5310 hc        1 671      0.057700
     48 H18        -8.7610    6.1790    1.2190 hc        1 671      0.057700
     49 H19        -5.9780    7.0590    1.2170 h1        1 671      0.084700
     50 H20        -7.2860    8.3620    2.1120 ha        1 671      0.132000
     51 H21        -8.1080   10.5950    2.7910 ha        1 671      0.131000
     52 H22        -9.0980   12.1430    1.1160 ha        1 671      0.132000
     53 H23        -9.2750   11.4450   -1.2780 ha        1 671      0.131000
     54 H24        -8.9270    9.7980   -3.0280 ha        1 671      0.132000
     55 H25        -8.1140    7.5450   -3.7510 ha        1 671      0.131000
     56 H26        -7.0980    6.0030   -2.1300 ha        1 671      0.138000
@<TRIPOS>BOND
     1    1    2 ar  
     2    1    7 ar  
     3    1   31 1   
     4    2    3 ar  
     5    2   32 1   
     6    3    4 1   
     7    3    5 ar  
     8    4   33 1   
     9    4   34 1   
    10    5    6 ar  
    11    5   35 1   
    12    6    7 ar  
    13    6   36 1   
    14    7    8 1   
    15    8    9 1   
    16    8   37 1   
    17    8   38 1   
    18    9   10 1   
    19    9   39 1   
    20   10   11 2   
    21   10   12 1   
    22   12   13 1   
    23   12   40 1   
    24   13   14 1   
    25   13   41 1   
    26   13   42 1   
    27   14   15 2   
    28   14   16 1   
    29   16   17 1   
    30   16   20 1   
    31   17   18 1   
    32   17   43 1   
    33   17   44 1   
    34   18   19 1   
    35   18   45 1   
    36   18   46 1   
    37   19   20 1   
    38   19   47 1   
    39   19   48 1   
    40   20   21 1   
    41   20   49 1   
    42   21   22 ar  
    43   21   30 ar  
    44   22   23 ar  
    45   22   27 ar  
    46   23   24 ar  
    47   23   50 1   
    48   24   25 ar  
    49   24   51 1   
    50   25   26 ar  
    51   25   52 1   
    52   26   27 ar  
    53   26   53 1   
    54   27   28 ar  
    55   28   29 ar  
    56   28   54 1   
    57   29   30 ar  
    58   29   55 1   
    59   30   56 1   
@<TRIPOS>SUBSTRUCTURE
     1 671         1 TEMP              0 ****  ****    0 ROOT
