@<TRIPOS>MOLECULE
671
   58    61     1     0     0
SMALL
bcc


@<TRIPOS>ATOM
      1 CAJ        -0.7170    2.8850    0.4310 ca        1 671     -0.009000
      2 CAH         0.5160    3.3270    0.8360 ca        1 671     -0.224500
      3 CAX         1.3330    2.5250    1.7060 ca        1 671      0.298600
      4 NAA         2.5520    2.9430    2.1020 nv        1 671     -0.797200
      5 CAI         0.8020    1.2620    2.1430 ca        1 671     -0.224500
      6 CAK        -0.4350    0.8420    1.7250 ca        1 671     -0.009000
      7 CAY        -1.2250    1.6320    0.8540 ca        1 671     -0.317300
      8 CAR        -2.4900    1.1350    0.3530 c3        1 671      0.239100
      9 NAU        -3.6250    1.6440    1.3150 ny        1 671     -0.685800
     10 CAV        -4.8920    0.9150    1.1640 c         1 671      0.498100
     11 OAB        -5.1890   -0.0590    1.8430 o         1 671     -0.344100
     12 N          -5.8580    1.3260    0.0800 ny        1 671     -0.636800
     13 CA         -7.0060    2.1220    0.6310 c3        1 671      0.007800
     14 C          -6.5850    3.5870    0.9120 c         1 671      0.656100
     15 O          -5.3470    3.8300    0.8980 o         1 671     -0.709100
     16 NBD        -7.5510    4.4870    1.1500 n         1 671     -0.384800
     17 CAS        -8.9670    4.1610    1.2820 c3        1 671      0.065000
     18 CAO        -9.6760    5.4210    1.8000 c3        1 671     -0.087400
     19 CAQ        -8.6100    6.5000    1.9520 c3        1 671     -0.091400
     20 CBC        -7.2890    5.9290    1.3820 c3        1 671      0.157000
     21 CAZ        -6.8770    6.6600    0.1320 ca        1 671     -0.127300
     22 CBB        -5.6790    7.4360    0.0830 ca        1 671     -0.008000
     23 CAN        -4.7840    7.5870    1.1790 ca        1 671     -0.145000
     24 CAE        -3.6600    8.3700    1.0780 ca        1 671     -0.106000
     25 CAD        -3.3580    9.0460   -0.1280 ca        1 671     -0.123000
     26 CAL        -4.1970    8.9230   -1.2060 ca        1 671     -0.103000
     27 CBA        -5.3720    8.1230   -1.1250 ca        1 671     -0.046000
     28 CAM        -6.2470    8.0300   -2.2410 ca        1 671     -0.078000
     29 CAF        -7.3980    7.2870   -2.1620 ca        1 671     -0.142000
     30 CAG        -7.7130    6.6070   -0.9680 ca        1 671     -0.108000
     31 H1         -1.3180    3.5110   -0.2510 ha        1 671      0.144000
     32 H2          0.8950    4.3000    0.4820 ha        1 671      0.171000
     33 H3          2.9220    3.8080    1.7810 hn        1 671      0.465300
     34 H4          3.1190    2.3750    2.6890 hn        1 671      0.465300
     35 H5          1.4040    0.6220    2.8100 ha        1 671      0.171000
     36 H6         -0.8110   -0.1410    2.0570 ha        1 671      0.144000
     37 H7         -2.7630    1.5440   -0.6570 hx        1 671      0.097200
     38 H8         -2.5600    0.0120    0.3720 hx        1 671      0.097200
     39 H9         -3.7510    2.6670    1.1750 hn        1 671      0.498800
     40 H10        -5.3830    1.9010   -0.6370 hn        1 671      0.493800
     41 H11        -7.3730    1.6320    1.5800 hx        1 671      0.146700
     42 H12        -7.8310    2.0960   -0.1430 hx        1 671      0.146700
     43 H13        -9.0950    3.3040    1.9990 h1        1 671      0.057700
     44 H14        -9.3790    3.8580    0.2790 h1        1 671      0.057700
     45 H15       -10.4650    5.7390    1.0720 hc        1 671      0.084200
     46 H16       -10.1770    5.2090    2.7770 hc        1 671      0.084200
     47 H17        -8.4670    6.7700    3.0280 hc        1 671      0.089700
     48 H18        -8.8980    7.4300    1.3990 hc        1 671      0.089700
     49 H19        -6.4770    5.9780    2.1630 h1        1 671      0.089700
     50 H20        -4.9930    7.0910    2.1370 ha        1 671      0.123000
     51 H21        -2.9870    8.4950    1.9410 ha        1 671      0.142000
     52 H22        -2.4570    9.6770   -0.1820 ha        1 671      0.152000
     53 H23        -3.9850    9.4520   -2.1500 ha        1 671      0.151000
     54 H24        -5.9900    8.5780   -3.1630 ha        1 671      0.155000
     55 H25        -8.0920    7.2280   -3.0150 ha        1 671      0.152000
     56 H26        -8.6600    6.0450   -0.9170 ha        1 671      0.124000
     57 HAU2       -3.2940    1.5030    2.2880 hn        1 671      0.498800
     58 H27        -6.2320    0.4650   -0.3530 hn        1 671      0.493800
@<TRIPOS>BOND
     1    1    2 ar  
     2    1    7 ar  
     3    1   31 1   
     4    2    3 ar  
     5    2   32 1   
     6    3    4 1   
     7    3    5 ar  
     8    4   33 1   
     9    4   34 1   
    10    5    6 ar  
    11    5   35 1   
    12    6    7 ar  
    13    6   36 1   
    14    7    8 1   
    15    8    9 1   
    16    8   37 1   
    17    8   38 1   
    18    9   10 1   
    19    9   39 1   
    20    9   57 1   
    21   10   11 2   
    22   10   12 1   
    23   12   13 1   
    24   12   40 1   
    25   12   58 1   
    26   13   14 1   
    27   13   41 1   
    28   13   42 1   
    29   14   15 2   
    30   14   16 1   
    31   16   17 1   
    32   16   20 1   
    33   17   18 1   
    34   17   43 1   
    35   17   44 1   
    36   18   19 1   
    37   18   45 1   
    38   18   46 1   
    39   19   20 1   
    40   19   47 1   
    41   19   48 1   
    42   20   21 1   
    43   20   49 1   
    44   21   22 ar  
    45   21   30 ar  
    46   22   23 ar  
    47   22   27 ar  
    48   23   24 ar  
    49   23   50 1   
    50   24   25 ar  
    51   24   51 1   
    52   25   26 ar  
    53   25   52 1   
    54   26   27 ar  
    55   26   53 1   
    56   27   28 ar  
    57   28   29 ar  
    58   28   54 1   
    59   29   30 ar  
    60   29   55 1   
    61   30   56 1   
@<TRIPOS>SUBSTRUCTURE
     1 671         1 TEMP              0 ****  ****    0 ROOT
