@<TRIPOS>MOLECULE
673
   51    52     1     0     0
SMALL
bcc


@<TRIPOS>ATOM
      1 CAA        -0.1690   -0.0750    0.3740 c2        1 673     -0.208000
      2 CAB         9.0300    4.0550   -4.1260 c3        1 673     -0.135600
      3 CAC        10.0550    3.8080   -1.8620 c3        1 673     -0.135600
      4 CAD         1.0280   -0.5980    0.1210 c2        1 673     -0.181200
      5 CAE         2.0470   -7.1430    3.4400 ca        1 673     -0.116000
      6 CAF         3.1680   -7.1250    2.6100 ca        1 673     -0.127000
      7 CAG         1.4350   -5.9430    3.8050 ca        1 673     -0.127000
      8 CAH         3.6780   -5.9140    2.1470 ca        1 673     -0.116000
      9 CAI         1.9390   -4.7300    3.3420 ca        1 673     -0.116000
     10 CAJ         4.9830   -3.2190    1.9670 ca        1 673     -0.096000
     11 CAK         5.4920   -2.0070    1.5090 ca        1 673     -0.180000
     12 CAL         2.7300   -2.4130    1.6110 ca        1 673     -0.094000
     13 CAM         2.2870   -0.1000    0.7330 c3        1 673     -0.000900
     14 CAN         6.3010    1.5240   -0.8330 c3        1 673     -0.127400
     15 CAO         7.6720    1.7090   -1.4640 c3        1 673      0.104800
     16 CAP         6.3090    0.2560    0.0160 c3        1 673      0.138400
     17 NAQ         7.7420    2.9420   -2.3020 n4        1 673     -0.769000
     18 OAR         5.0500    0.2550    0.6890 os        1 673     -0.333900
     19 CAS         3.0670   -4.7050    2.5080 cp        1 673     -0.054000
     20 CAT         3.5990   -3.4330    2.0230 cp        1 673     -0.029000
     21 CAU         3.2150   -1.1910    1.1390 ca        1 673     -0.075300
     22 CAV         4.6100   -1.0030    1.0970 ca        1 673      0.083100
     23 CAW         9.1200    3.1790   -2.8840 c3        1 673      0.132500
     24 HAA        -0.3240    0.7510    1.0810 ha        1 673      0.118000
     25 HAAA       -1.0820   -0.4460   -0.1110 ha        1 673      0.118000
     26 HAB        10.0590    4.1580   -4.5560 hc        1 673      0.080033
     27 HABA        8.3750    3.6000   -4.9090 hc        1 673      0.080033
     28 HABB        8.6530    5.0780   -3.8810 hc        1 673      0.080033
     29 HAC         9.7070    4.8260   -1.5600 hc        1 673      0.080033
     30 HACA       11.0660    3.9130   -2.3320 hc        1 673      0.080033
     31 HACB       10.1620    3.1720   -0.9500 hc        1 673      0.080033
     32 HAD         1.1500   -1.4340   -0.5870 ha        1 673      0.126000
     33 HAE         1.6470   -8.1000    3.8060 ha        1 673      0.140000
     34 HAF         3.6510   -8.0690    2.3190 ha        1 673      0.138000
     35 HAG         0.5520   -5.9540    4.4620 ha        1 673      0.138000
     36 HAH         4.5590   -5.9060    1.4880 ha        1 673      0.133000
     37 HAI         1.4570   -3.7860    3.6380 ha        1 673      0.133000
     38 HAJ         5.6730   -4.0100    2.3010 ha        1 673      0.146000
     39 HAK         6.5780   -1.8430    1.4860 ha        1 673      0.130000
     40 HAL         1.6400   -2.5770    1.6510 ha        1 673      0.155000
     41 HAM         2.0650    0.5310    1.6390 hc        1 673      0.058700
     42 HAMA        2.8040    0.5700   -0.0100 hc        1 673      0.058700
     43 HAN         5.5020    1.4320   -1.6150 hc        1 673      0.082200
     44 HANA        6.0360    2.3940   -0.1740 hc        1 673      0.082200
     45 HAO         8.4620    1.7890   -0.6630 hx        1 673      0.106700
     46 HAOA        7.9180    0.8260   -2.1230 hx        1 673      0.106700
     47 HAP         6.4290   -0.6570   -0.6230 h1        1 673      0.052700
     48 HAPA        7.1270    0.2930    0.7840 h1        1 673      0.052700
     49 HNAQ        7.4780    3.7520   -1.7310 hn        1 673      0.450300
     50 HAW         9.5160    2.1590   -3.1780 hx        1 673      0.107700
     51 HAQ2        7.0660    2.8640   -3.0710 hn        1 673      0.450300
@<TRIPOS>BOND
     1    1    4 2   
     2    1   24 1   
     3    1   25 1   
     4    2   23 1   
     5    2   26 1   
     6    2   27 1   
     7    2   28 1   
     8    3   23 1   
     9    3   29 1   
    10    3   30 1   
    11    3   31 1   
    12    4   13 1   
    13    4   32 1   
    14    5    6 ar  
    15    5    7 ar  
    16    5   33 1   
    17    6    8 ar  
    18    6   34 1   
    19    7    9 ar  
    20    7   35 1   
    21    8   19 ar  
    22    8   36 1   
    23    9   19 ar  
    24    9   37 1   
    25   10   11 ar  
    26   10   20 ar  
    27   10   38 1   
    28   11   22 ar  
    29   11   39 1   
    30   12   20 ar  
    31   12   21 ar  
    32   12   40 1   
    33   13   21 1   
    34   13   41 1   
    35   13   42 1   
    36   14   15 1   
    37   14   16 1   
    38   14   43 1   
    39   14   44 1   
    40   15   17 1   
    41   15   45 1   
    42   15   46 1   
    43   16   18 1   
    44   16   47 1   
    45   16   48 1   
    46   17   23 1   
    47   17   49 1   
    48   17   51 1   
    49   18   22 1   
    50   19   20 1   
    51   21   22 ar  
    52   23   50 1   
@<TRIPOS>SUBSTRUCTURE
     1 673         1 TEMP              0 ****  ****    0 ROOT
