@<TRIPOS>MOLECULE
673
   51    52     1     0     0
SMALL
bcc


@<TRIPOS>ATOM
      1 CAA        -0.1600   -0.0520    0.4160 c2        1 673     -0.208000
      2 CAB         9.0080    4.0610   -4.1340 c3        1 673     -0.135600
      3 CAC        10.0540    3.8010   -1.8800 c3        1 673     -0.135600
      4 CAD         1.0340   -0.5770    0.1530 c2        1 673     -0.181200
      5 CAE         2.0440   -7.1520    3.4170 ca        1 673     -0.116000
      6 CAF         3.1600   -7.1330    2.5800 ca        1 673     -0.127000
      7 CAG         1.4400   -5.9530    3.7950 ca        1 673     -0.127000
      8 CAH         3.6720   -5.9200    2.1230 ca        1 673     -0.116000
      9 CAI         1.9460   -4.7380    3.3380 ca        1 673     -0.116000
     10 CAJ         4.9880   -3.2290    1.9560 ca        1 673     -0.096000
     11 CAK         5.4990   -2.0170    1.5040 ca        1 673     -0.180000
     12 CAL         2.7360   -2.4120    1.6210 ca        1 673     -0.094000
     13 CAM         2.2980   -0.0900    0.7630 c3        1 673     -0.000900
     14 CAN         6.3030    1.5250   -0.8230 c3        1 673     -0.127400
     15 CAO         7.6680    1.7080   -1.4680 c3        1 673      0.104800
     16 CAP         6.3140    0.2530    0.0190 c3        1 673      0.138400
     17 NAQ         7.7340    2.9440   -2.3010 n4        1 673     -0.769000
     18 OAR         5.0620    0.2530    0.7040 os        1 673     -0.333900
     19 CAS         3.0680   -4.7120    2.4980 cp        1 673     -0.054000
     20 CAT         3.6030   -3.4380    2.0190 cp        1 673     -0.029000
     21 CAU         3.2230   -1.1880    1.1550 ca        1 673     -0.075300
     22 CAV         4.6190   -1.0060    1.1050 ca        1 673      0.082100
     23 CAW         9.1070    3.1790   -2.8960 c3        1 673      0.132500
     24 HAA        -0.3070    0.7700    1.1290 ha        1 673      0.118000
     25 HAAA       -1.0770   -0.4140   -0.0680 ha        1 673      0.118000
     26 HAB         8.6370    5.0830   -3.8810 hc        1 673      0.080033
     27 HABA       10.0340    4.1610   -4.5730 hc        1 673      0.080033
     28 HABB        8.3440    3.6100   -4.9120 hc        1 673      0.080033
     29 HAC        11.0610    3.9040   -2.3600 hc        1 673      0.080033
     30 HACA        9.7120    4.8190   -1.5710 hc        1 673      0.080033
     31 HACB       10.1680    3.1620   -0.9720 hc        1 673      0.080033
     32 HAD         1.1490   -1.4090   -0.5620 ha        1 673      0.126000
     33 HAE         1.6410   -8.1100    3.7780 ha        1 673      0.140000
     34 HAF         3.6370   -8.0770    2.2780 ha        1 673      0.138000
     35 HAG         0.5610   -5.9650    4.4570 ha        1 673      0.138000
     36 HAH         4.5490   -5.9110    1.4590 ha        1 673      0.133000
     37 HAI         1.4700   -3.7950    3.6450 ha        1 673      0.133000
     38 HAJ         5.6760   -4.0260    2.2800 ha        1 673      0.146000
     39 HAK         6.5860   -1.8570    1.4760 ha        1 673      0.130000
     40 HAL         1.6460   -2.5710    1.6660 ha        1 673      0.155000
     41 HAM         2.0830    0.5340    1.6750 hc        1 673      0.058700
     42 HAMA        2.8140    0.5850    0.0230 hc        1 673      0.058700
     43 HAN         5.4960    1.4410   -1.5980 hc        1 673      0.082200
     44 HANA        6.0490    2.3930   -0.1580 hc        1 673      0.082200
     45 HAO         7.9040    0.8270   -2.1330 hx        1 673      0.106700
     46 HAOA        8.4670    1.7820   -0.6740 hx        1 673      0.106700
     47 HAP         6.4250   -0.6570   -0.6250 h1        1 673      0.052700
     48 HAPA        7.1400    0.2830    0.7790 h1        1 673      0.052700
     49 HNAQ        7.0510    2.8720   -3.0640 hn        1 673      0.450300
     50 HAW         9.4980    2.1590   -3.1980 hx        1 673      0.107700
     51 HAQ2        7.4780    3.7530   -1.7240 hn        1 673      0.450300
@<TRIPOS>BOND
     1    1    4 2   
     2    1   24 1   
     3    1   25 1   
     4    2   23 1   
     5    2   26 1   
     6    2   27 1   
     7    2   28 1   
     8    3   23 1   
     9    3   29 1   
    10    3   30 1   
    11    3   31 1   
    12    4   13 1   
    13    4   32 1   
    14    5    6 ar  
    15    5    7 ar  
    16    5   33 1   
    17    6    8 ar  
    18    6   34 1   
    19    7    9 ar  
    20    7   35 1   
    21    8   19 ar  
    22    8   36 1   
    23    9   19 ar  
    24    9   37 1   
    25   10   11 ar  
    26   10   20 ar  
    27   10   38 1   
    28   11   22 ar  
    29   11   39 1   
    30   12   20 ar  
    31   12   21 ar  
    32   12   40 1   
    33   13   21 1   
    34   13   41 1   
    35   13   42 1   
    36   14   15 1   
    37   14   16 1   
    38   14   43 1   
    39   14   44 1   
    40   15   17 1   
    41   15   45 1   
    42   15   46 1   
    43   16   18 1   
    44   16   47 1   
    45   16   48 1   
    46   17   23 1   
    47   17   49 1   
    48   17   51 1   
    49   18   22 1   
    50   19   20 1   
    51   21   22 ar  
    52   23   50 1   
@<TRIPOS>SUBSTRUCTURE
     1 673         1 TEMP              0 ****  ****    0 ROOT
