@<TRIPOS>MOLECULE
673
   50    51     1     0     0
SMALL
bcc


@<TRIPOS>ATOM
      1 CAA         0.9110    4.5080    1.1570 c2        1 673     -0.231000
      2 CAB        -8.3090   -0.1430    0.4820 c3        1 673     -0.094100
      3 CAC        -7.3000   -1.9300   -0.9190 c3        1 673     -0.094100
      4 CAD         0.4150    3.3280    0.7950 c2        1 673     -0.152200
      5 CAE         7.0090   -1.5580   -0.1130 ca        1 673     -0.130000
      6 CAF         6.1500   -2.1260    0.8280 ca        1 673     -0.130000
      7 CAG         6.5140   -0.6380   -1.0370 ca        1 673     -0.130000
      8 CAH         4.8010   -1.7780    0.8450 ca        1 673     -0.121500
      9 CAI         5.1670   -0.2850   -1.0220 ca        1 673     -0.121500
     10 CAJ         1.8970   -1.4570    0.1520 ca        1 673     -0.086000
     11 CAK         0.5480   -1.1120    0.1650 ca        1 673     -0.204000
     12 CAL         2.4920    0.8470   -0.2650 ca        1 673     -0.085000
     13 CAM         0.7560    2.6390   -0.4770 c3        1 673      0.001100
     14 CAN        -3.4690    0.3780   -0.0970 c3        1 673     -0.091400
     15 CAO        -4.6100   -0.6260    0.0540 c3        1 673      0.166800
     16 CAP        -2.1430   -0.3510    0.0380 c3        1 673      0.129400
     17 NAQ        -5.9130   -0.0280   -0.1440 n3        1 673     -0.822200
     18 OAR        -1.1350    0.6660   -0.0290 os        1 673     -0.329900
     19 CAS         4.2960   -0.8530   -0.0810 cp        1 673     -0.030000
     20 CAT         2.8810   -0.4860   -0.0640 cp        1 673     -0.070000
     21 CAU         1.1490    1.2200   -0.2540 ca        1 673     -0.098300
     22 CAV         0.1720    0.2210   -0.0360 ca        1 673      0.131100
     23 CAW        -7.0220   -0.9190    0.1950 c3        1 673      0.177500
     24 HAA         1.6340    5.0640    0.5460 ha        1 673      0.109500
     25 HAAA        0.6230    4.9990    2.0950 ha        1 673      0.109500
     26 HAB        -9.1200   -0.8650    0.7390 hc        1 673      0.039200
     27 HABA       -8.1710    0.5550    1.3420 hc        1 673      0.039200
     28 HABB       -8.6250    0.4460   -0.4110 hc        1 673      0.039200
     29 HAC        -6.4050   -2.5690   -1.1100 hc        1 673      0.039200
     30 HACA       -8.1480   -2.5880   -0.6110 hc        1 673      0.039200
     31 HACB       -7.5740   -1.4100   -1.8680 hc        1 673      0.039200
     32 HAD        -0.3090    2.7830    1.4260 ha        1 673      0.130000
     33 HAE         8.0730   -1.8350   -0.1260 ha        1 673      0.131000
     34 HAF         6.5370   -2.8500    1.5600 ha        1 673      0.131000
     35 HAG         7.1890   -0.1900   -1.7820 ha        1 673      0.131000
     36 HAH         4.1280   -2.2230    1.5930 ha        1 673      0.133500
     37 HAI         4.7790    0.4360   -1.7580 ha        1 673      0.133500
     38 HAJ         2.1890   -2.5070    0.3070 ha        1 673      0.136000
     39 HAK        -0.2050   -1.8930    0.3340 ha        1 673      0.137000
     40 HAL         3.2630    1.6170   -0.4280 ha        1 673      0.140000
     41 HAM        -0.1530    2.6630   -1.1430 hc        1 673      0.058200
     42 HAMA        1.5810    3.1820   -1.0130 hc        1 673      0.058200
     43 HAN        -3.5180    0.8850   -1.0950 hc        1 673      0.063700
     44 HANA       -3.5370    1.1760    0.6880 hc        1 673      0.063700
     45 HAO        -4.4920   -1.4350   -0.7230 h1        1 673      0.028700
     46 HAOA       -4.5140   -1.1230    1.0670 h1        1 673      0.028700
     47 HAP        -2.0700   -0.8800    1.0250 h1        1 673      0.040700
     48 HAPA       -1.9990   -1.0850   -0.7960 h1        1 673      0.040700
     49 HNAQ       -5.9900    0.8280    0.3740 hn        1 673      0.360800
     50 HAW        -6.7750   -1.5150    1.1310 h1        1 673      0.014700
@<TRIPOS>BOND
     1    1    4 2   
     2    1   24 1   
     3    1   25 1   
     4    2   23 1   
     5    2   26 1   
     6    2   27 1   
     7    2   28 1   
     8    3   23 1   
     9    3   29 1   
    10    3   30 1   
    11    3   31 1   
    12    4   13 1   
    13    4   32 1   
    14    5    6 ar  
    15    5    7 ar  
    16    5   33 1   
    17    6    8 ar  
    18    6   34 1   
    19    7    9 ar  
    20    7   35 1   
    21    8   19 ar  
    22    8   36 1   
    23    9   19 ar  
    24    9   37 1   
    25   10   11 ar  
    26   10   20 ar  
    27   10   38 1   
    28   11   22 ar  
    29   11   39 1   
    30   12   20 ar  
    31   12   21 ar  
    32   12   40 1   
    33   13   21 1   
    34   13   41 1   
    35   13   42 1   
    36   14   15 1   
    37   14   16 1   
    38   14   43 1   
    39   14   44 1   
    40   15   17 1   
    41   15   45 1   
    42   15   46 1   
    43   16   18 1   
    44   16   47 1   
    45   16   48 1   
    46   17   23 1   
    47   17   49 1   
    48   18   22 1   
    49   19   20 1   
    50   21   22 ar  
    51   23   50 1   
@<TRIPOS>SUBSTRUCTURE
     1 673         1 TEMP              0 ****  ****    0 ROOT
