@<TRIPOS>MOLECULE
673
   51    52     1     0     0
SMALL
bcc


@<TRIPOS>ATOM
      1 CAA        -0.1600   -0.0330    0.4510 c2        1 673     -0.208000
      2 CAB         9.0090    4.0630   -4.1360 c3        1 673     -0.135600
      3 CAC        10.0660    3.7840   -1.8900 c3        1 673     -0.135600
      4 CAD         1.0300   -0.5620    0.1770 c2        1 673     -0.181200
      5 CAE         2.0360   -7.1490    3.4160 ca        1 673     -0.116000
      6 CAF         3.1460   -7.1330    2.5720 ca        1 673     -0.127000
      7 CAG         1.4390   -5.9480    3.8010 ca        1 673     -0.127000
      8 CAH         3.6600   -5.9210    2.1140 ca        1 673     -0.116000
      9 CAI         1.9480   -4.7340    3.3440 ca        1 673     -0.116000
     10 CAJ         4.9860   -3.2350    1.9440 ca        1 673     -0.096000
     11 CAK         5.4990   -2.0230    1.4920 ca        1 673     -0.180000
     12 CAL         2.7360   -2.4070    1.6270 ca        1 673     -0.094000
     13 CAM         2.3010   -0.0820    0.7770 c3        1 673     -0.000900
     14 CAN         6.3060    1.5240   -0.8260 c3        1 673     -0.127400
     15 CAO         7.6690    1.7020   -1.4760 c3        1 673      0.104800
     16 CAP         6.3150    0.2470    0.0100 c3        1 673      0.138400
     17 NAQ         7.7380    2.9430   -2.3040 ny        1 673     -0.769000
     18 OAR         5.0660    0.2500    0.7000 os        1 673     -0.333900
     19 CAS         3.0640   -4.7110    2.4960 cp        1 673     -0.054000
     20 CAT         3.6010   -3.4390    2.0160 cp        1 673     -0.029000
     21 CAU         3.2240   -1.1850    1.1600 ca        1 673     -0.075300
     22 CAV         4.6200   -1.0080    1.1010 ca        1 673      0.083100
     23 CAW         9.1090    3.1730   -2.9040 c3        1 673      0.132500
     24 HAA        -0.2980    0.7880    1.1680 ha        1 673      0.118000
     25 HAAA       -1.0820   -0.3900   -0.0260 ha        1 673      0.118000
     26 HAB        10.0330    4.1600   -4.5800 hc        1 673      0.080033
     27 HABA        8.3380    3.6210   -4.9130 hc        1 673      0.080033
     28 HABB        8.6460    5.0870   -3.8740 hc        1 673      0.080033
     29 HAC         9.7310    4.8020   -1.5730 hc        1 673      0.080033
     30 HACA       11.0700    3.8830   -2.3740 hc        1 673      0.080033
     31 HACB       10.1810    3.1370   -0.9860 hc        1 673      0.080033
     32 HAD         1.1350   -1.3930   -0.5410 ha        1 673      0.126000
     33 HAE         1.6320   -8.1060    3.7780 ha        1 673      0.140000
     34 HAF         3.6180   -8.0780    2.2650 ha        1 673      0.138000
     35 HAG         0.5650   -5.9580    4.4700 ha        1 673      0.138000
     36 HAH         4.5330   -5.9140    1.4440 ha        1 673      0.133000
     37 HAI         1.4770   -3.7900    3.6560 ha        1 673      0.133000
     38 HAJ         5.6730   -4.0350    2.2600 ha        1 673      0.146000
     39 HAK         6.5860   -1.8680    1.4560 ha        1 673      0.130000
     40 HAL         1.6450   -2.5620    1.6790 ha        1 673      0.155000
     41 HAM         2.0960    0.5420    1.6920 hc        1 673      0.058700
     42 HAMA        2.8140    0.5920    0.0340 hc        1 673      0.058700
     43 HAN         5.4950    1.4470   -1.5980 hc        1 673      0.082200
     44 HANA        6.0590    2.3900   -0.1560 hc        1 673      0.082200
     45 HAO         8.4720    1.7680   -0.6860 hx        1 673      0.106700
     46 HAOA        7.8970    0.8240   -2.1470 hx        1 673      0.106700
     47 HAP         6.4190   -0.6600   -0.6390 h1        1 673      0.052700
     48 HAPA        7.1440    0.2700    0.7660 h1        1 673      0.052700
     49 HNAQ        7.4900    3.7510   -1.7200 hn        1 673      0.450300
     50 HAW         9.4920    2.1530   -3.2140 hx        1 673      0.107700
     51 HAQ2        7.0500    2.8790   -3.0620 hn        1 673      0.450300
@<TRIPOS>BOND
     1    1    4 2   
     2    1   24 1   
     3    1   25 1   
     4    2   23 1   
     5    2   26 1   
     6    2   27 1   
     7    2   28 1   
     8    3   23 1   
     9    3   29 1   
    10    3   30 1   
    11    3   31 1   
    12    4   13 1   
    13    4   32 1   
    14    5    6 ar  
    15    5    7 ar  
    16    5   33 1   
    17    6    8 ar  
    18    6   34 1   
    19    7    9 ar  
    20    7   35 1   
    21    8   19 ar  
    22    8   36 1   
    23    9   19 ar  
    24    9   37 1   
    25   10   11 ar  
    26   10   20 ar  
    27   10   38 1   
    28   11   22 ar  
    29   11   39 1   
    30   12   20 ar  
    31   12   21 ar  
    32   12   40 1   
    33   13   21 1   
    34   13   41 1   
    35   13   42 1   
    36   14   15 1   
    37   14   16 1   
    38   14   43 1   
    39   14   44 1   
    40   15   17 1   
    41   15   45 1   
    42   15   46 1   
    43   16   18 1   
    44   16   47 1   
    45   16   48 1   
    46   17   23 1   
    47   17   49 1   
    48   17   51 1   
    49   18   22 1   
    50   19   20 1   
    51   21   22 ar  
    52   23   50 1   
@<TRIPOS>SUBSTRUCTURE
     1 673         1 TEMP              0 ****  ****    0 ROOT
