@<TRIPOS>MOLECULE
673
   50    43     1     0     0
SMALL
bcc


@<TRIPOS>ATOM
      1 CAA        -1.0870   -1.5610   -3.3070 c1        1 673     -0.148167
      2 CAB        -2.4970   -5.0300    1.8730 c3        1 673     -0.228500
      3 CAC        -0.3640   -6.2960    2.1700 c3        1 673     -0.228500
      4 CAD        -0.9060   -0.4710   -2.5400 c1        1 673     -0.148167
      5 CAE         1.8290    6.7100   -3.2980 c1        1 673     -0.148167
      6 CAF         0.4700    6.4590   -3.1200 c1        1 673     -0.148167
      7 CAG         2.7750    5.8700   -2.7200 c1        1 673     -0.148167
      8 CAH         0.0610    5.3740   -2.3670 c1        1 673     -0.148167
      9 CAI         2.3630    4.7740   -1.9590 c1        1 673     -0.104500
     10 CAJ         0.3360    3.4860    0.3200 c1        1 673     -0.104500
     11 CAK         0.0560    2.3510    1.0650 c1        1 673     -0.201000
     12 CAL         0.5680    2.1220   -1.6680 c1        1 673     -0.091000
     13 CAM         0.2700   -0.3970   -1.5800 c2        1 673     -0.094000
     14 CAN         0.6240   -1.7840    2.6910 c3        1 673     -0.165000
     15 CAO        -0.4650   -2.7900    2.9750 c3        1 673     -0.075000
     16 CAP         0.0020   -0.4530    2.2690 c3        1 673     -0.021000
     17 NAQ        -0.3910   -3.8620    2.0200 n3        1 673     -0.300000
     18 OAR         0.1780   -0.2760    0.8830 os        1 673     -0.218000
     19 CAS         1.0150    4.5230   -1.7810 c1        1 673     -0.049000
     20 CAT         0.5930    3.3790   -1.0490 c1        1 673     -0.049000
     21 CAU         0.2830    0.9720   -0.9120 c2        1 673     -0.089000
     22 CAV         0.0300    1.0820    0.4400 c2        1 673      0.088000
     23 CAW        -1.1250   -5.0010    2.5150 c3        1 673     -0.025000
     24 HAA        -0.4560   -2.3180   -3.2500 DU        1 673      0.110000
     25 HAAA       -1.8330   -1.6000   -3.9150 ha        1 673      0.126333
     26 HAB        -2.4020   -5.0280    0.8810 hc        1 673      0.077500
     27 HABA       -3.0100   -4.2290    2.1580 hc        1 673      0.077500
     28 HABB       -2.9830   -5.8570    2.1600 hc        1 673      0.077500
     29 HAC        -0.1820   -6.3240    1.2030 hc        1 673      0.077500
     30 HACA        0.4600   -6.3160    2.6470 hc        1 673      0.077500
     31 HACB       -0.8880   -7.0420    2.4150 hc        1 673      0.077500
     32 HAD        -1.5510    0.2960   -2.6000 ha        1 673      0.126333
     33 HAE         2.1110    7.4560   -3.8170 ha        1 673      0.126333
     34 HAF        -0.2110    7.0650   -3.5360 ha        1 673      0.126333
     35 HAG         3.7440    6.0500   -2.8490 ha        1 673      0.126333
     36 HAH        -0.8730    5.2010   -2.2440 ha        1 673      0.126333
     37 HAI         3.0170    4.1940   -1.5600 ha        1 673      0.135000
     38 HAJ         0.3540    4.3750    0.7600 ha        1 673      0.135000
     39 HAK        -0.1300    2.4300    2.0480 ha        1 673      0.138000
     40 HAL         0.7510    2.0430   -2.6620 ha        1 673      0.138000
     41 HAM         0.1820   -1.0830   -0.9060 ha        1 673      0.101500
     42 HAMA        1.1060   -0.5270   -2.0730 ha        1 673      0.101500
     43 HAN         1.1560   -1.6520    3.4910 hc        1 673      0.099500
     44 HANA        1.2090   -2.1260    1.9540 hc        1 673      0.099500
     45 HAO        -0.3460   -3.1490    3.8800 h1        1 673      0.076500
     46 HAOA       -1.3510   -2.3490    2.9080 h1        1 673      0.076500
     47 HAP         0.4420    0.2820    2.7520 h1        1 673      0.081500
     48 HAPA       -0.9560   -0.4560    2.4810 h1        1 673      0.081500
     49 HNAQ       -0.7540   -3.5890    1.2360 hn        1 673      0.150000
     50 HAW        -1.2260   -4.9280    3.5160 h1        1 673      0.094000
@<TRIPOS>BOND
     1    1    4 1   
     2    1   25 1   
     3    2   23 1   
     4    2   26 1   
     5    2   27 1   
     6    2   28 1   
     7    3   23 1   
     8    3   29 1   
     9    3   30 1   
    10    3   31 1   
    11    4   32 1   
    12    5    7 1   
    13    5   33 1   
    14    6    8 1   
    15    6   34 1   
    16    7   35 1   
    17    8   36 1   
    18    9   19 1   
    19    9   37 1   
    20   10   20 1   
    21   10   38 1   
    22   11   22 1   
    23   11   39 1   
    24   12   21 1   
    25   12   40 1   
    26   13   21 1   
    27   13   41 1   
    28   13   42 1   
    29   14   15 1   
    30   14   16 1   
    31   14   43 1   
    32   14   44 1   
    33   15   17 1   
    34   15   45 1   
    35   15   46 1   
    36   16   18 1   
    37   16   47 1   
    38   16   48 1   
    39   17   23 1   
    40   17   49 1   
    41   18   22 1   
    42   21   22 1   
    43   23   50 1   
@<TRIPOS>SUBSTRUCTURE
     1 673         1 TEMP              0 ****  ****    0 ROOT
