@<TRIPOS>MOLECULE
675
   38    40     1     0     0
SMALL
bcc


@<TRIPOS>ATOM
      1 N18         0.2000    1.1950    0.1550 n2        1 675     -0.676100
      2 C17         1.2040    0.4460   -0.0130 ce        1 675      0.636800
      3 N19         1.8100   -0.4760    1.0580 n4        1 675     -0.892600
      4 C12         1.9710    0.3120   -1.2730 ca        1 675     -0.220900
      5 C11         3.3550    0.6360   -1.2800 ca        1 675     -0.150000
      6 C10         4.0710    0.5290   -2.4450 ca        1 675     -0.069000
      7 C2          3.4430    0.0970   -3.6480 ca        1 675     -0.020000
      8 C1          4.1750   -0.0370   -4.8560 ca        1 675     -0.069000
      9 C6          3.5390   -0.4450   -6.0110 ca        1 675     -0.106600
     10 C5          2.1540   -0.7430   -6.0040 ca        1 675     -0.090000
     11 C4          1.4270   -0.6260   -4.8420 ca        1 675     -0.111000
     12 C3          2.0550   -0.2040   -3.6400 ca        1 675     -0.043000
     13 C13         1.3250   -0.0820   -2.4260 ca        1 675     -0.024000
     14 C23         4.3640   -0.6170   -7.2540 c         1 675      0.667700
     15 O36         5.4750   -1.1740   -7.1810 o         1 675     -0.569100
     16 N24         3.8110   -0.1280   -8.4210 n         1 675     -0.456100
     17 C25         4.4070   -0.1300   -9.6990 ca        1 675      0.046600
     18 C30         5.5150   -0.9370  -10.0260 ca        1 675     -0.159000
     19 C29         6.0390   -0.9070  -11.3170 ca        1 675     -0.103500
     20 C28         5.4800   -0.0910  -12.2970 ca        1 675     -0.140000
     21 C27         4.3820    0.7090  -11.9820 ca        1 675     -0.103500
     22 C26         3.8440    0.6990  -10.7000 ca        1 675     -0.159000
     23 H18        -0.3170    1.2650    1.0030 hn        1 675      0.463400
     24 H191        2.8220   -0.3130    1.0930 hn        1 675      0.457467
     25 H192        1.4130   -0.3260    1.9860 hn        1 675      0.457467
     26 H11         3.8410    1.0150   -0.3690 ha        1 675      0.132000
     27 H10         5.1440    0.7840   -2.4710 ha        1 675      0.164000
     28 H1          5.2580    0.1730   -4.8640 ha        1 675      0.173000
     29 H5          1.6640   -1.0880   -6.9300 ha        1 675      0.161000
     30 H4          0.3510   -0.8590   -4.8290 ha        1 675      0.151000
     31 H13         0.2450   -0.3010   -2.4330 ha        1 675      0.157000
     32 H24         2.9580    0.3810   -8.3470 hn        1 675      0.318500
     33 H30         5.9800   -1.5910   -9.2710 ha        1 675      0.148500
     34 H29         6.9060   -1.5420  -11.5580 ha        1 675      0.140500
     35 H28         5.9010   -0.0750  -13.3130 ha        1 675      0.142000
     36 H27         3.9350    1.3570  -12.7510 ha        1 675      0.140500
     37 H26         2.9780    1.3410  -10.4760 ha        1 675      0.148500
     38 H193        1.6510   -1.4480    0.7760 hn        1 675      0.457467
@<TRIPOS>BOND
     1    1    2 2   
     2    1   23 1   
     3    2    3 1   
     4    2    4 1   
     5    3   24 1   
     6    3   25 1   
     7    3   38 1   
     8    4    5 ar  
     9    4   13 ar  
    10    5    6 ar  
    11    5   26 1   
    12    6    7 ar  
    13    6   27 1   
    14    7    8 ar  
    15    7   12 ar  
    16    8    9 ar  
    17    8   28 1   
    18    9   10 ar  
    19    9   14 1   
    20   10   11 ar  
    21   10   29 1   
    22   11   12 ar  
    23   11   30 1   
    24   12   13 ar  
    25   13   31 1   
    26   14   15 2   
    27   14   16 1   
    28   16   17 1   
    29   16   32 1   
    30   17   18 ar  
    31   17   22 ar  
    32   18   19 ar  
    33   18   33 1   
    34   19   20 ar  
    35   19   34 1   
    36   20   21 ar  
    37   20   35 1   
    38   21   22 ar  
    39   21   36 1   
    40   22   37 1   
@<TRIPOS>SUBSTRUCTURE
     1 675         1 TEMP              0 ****  ****    0 ROOT
