@<TRIPOS>MOLECULE
675
   38    40     1     0     0
SMALL
bcc


@<TRIPOS>ATOM
      1 N18         0.1940    1.1730    0.1590 n2        1 675     -0.676100
      2 C17         1.2070    0.4370   -0.0110 ce        1 675      0.636800
      3 N19         1.8260   -0.4760    1.0610 nz        1 675     -0.892600
      4 C12         1.9730    0.3110   -1.2710 ca        1 675     -0.220900
      5 C11         3.3530    0.6540   -1.2810 ca        1 675     -0.150000
      6 C10         4.0690    0.5540   -2.4470 ca        1 675     -0.069000
      7 C2          3.4450    0.1110   -3.6480 ca        1 675     -0.020000
      8 C1          4.1760   -0.0150   -4.8570 ca        1 675     -0.069000
      9 C6          3.5440   -0.4330   -6.0100 ca        1 675     -0.106600
     10 C5          2.1630   -0.7490   -6.0010 ca        1 675     -0.090000
     11 C4          1.4370   -0.6390   -4.8380 ca        1 675     -0.111000
     12 C3          2.0610   -0.2080   -3.6370 ca        1 675     -0.043000
     13 C13         1.3310   -0.0930   -2.4230 ca        1 675     -0.024000
     14 C23         4.3700   -0.5970   -7.2540 c         1 675      0.667700
     15 O36         5.4890   -1.1380   -7.1820 o         1 675     -0.569100
     16 N24         3.8090   -0.1180   -8.4210 ns        1 675     -0.456100
     17 C25         4.4020   -0.1150   -9.7010 ca        1 675      0.046600
     18 C30         5.5220   -0.9060  -10.0270 ca        1 675     -0.159000
     19 C29         6.0430   -0.8720  -11.3190 ca        1 675     -0.103500
     20 C28         5.4700   -0.0670  -12.3000 ca        1 675     -0.140000
     21 C27         4.3610    0.7170  -11.9850 ca        1 675     -0.103500
     22 C26         3.8250    0.7020  -10.7030 ca        1 675     -0.159000
     23 H18        -0.3230    1.2380    1.0080 hn        1 675      0.463400
     24 H191        1.4300   -0.3290    1.9900 hn        1 675      0.457467
     25 H192        1.6780   -1.4500    0.7810 hn        1 675      0.457467
     26 H11         3.8350    1.0400   -0.3710 ha        1 675      0.132000
     27 H10         5.1380    0.8230   -2.4750 ha        1 675      0.164000
     28 H1          5.2570    0.2090   -4.8670 ha        1 675      0.173000
     29 H5          1.6770   -1.1030   -6.9250 ha        1 675      0.161000
     30 H4          0.3630   -0.8860   -4.8220 ha        1 675      0.151000
     31 H13         0.2540   -0.3260   -2.4280 ha        1 675      0.157000
     32 H24         2.9480    0.3790   -8.3470 hn        1 675      0.318500
     33 H30         5.9980   -1.5510   -9.2710 ha        1 675      0.148500
     34 H29         6.9190   -1.4940  -11.5590 ha        1 675      0.140500
     35 H28         5.8890   -0.0490  -13.3170 ha        1 675      0.142000
     36 H27         3.9020    1.3560  -12.7560 ha        1 675      0.140500
     37 H26         2.9500    1.3320  -10.4800 ha        1 675      0.148500
     38 H193        2.8370   -0.3000    1.0940 hn        1 675      0.457467
@<TRIPOS>BOND
     1    1    2 2   
     2    1   23 1   
     3    2    3 1   
     4    2    4 1   
     5    3   24 1   
     6    3   25 1   
     7    3   38 1   
     8    4    5 ar  
     9    4   13 ar  
    10    5    6 ar  
    11    5   26 1   
    12    6    7 ar  
    13    6   27 1   
    14    7    8 ar  
    15    7   12 ar  
    16    8    9 ar  
    17    8   28 1   
    18    9   10 ar  
    19    9   14 1   
    20   10   11 ar  
    21   10   29 1   
    22   11   12 ar  
    23   11   30 1   
    24   12   13 ar  
    25   13   31 1   
    26   14   15 2   
    27   14   16 1   
    28   16   17 1   
    29   16   32 1   
    30   17   18 ar  
    31   17   22 ar  
    32   18   19 ar  
    33   18   33 1   
    34   19   20 ar  
    35   19   34 1   
    36   20   21 ar  
    37   20   35 1   
    38   21   22 ar  
    39   21   36 1   
    40   22   37 1   
@<TRIPOS>SUBSTRUCTURE
     1 675         1 TEMP              0 ****  ****    0 ROOT
