@<TRIPOS>MOLECULE
675
   39    41     1     0     0
SMALL
bcc


@<TRIPOS>ATOM
      1 N18         1.8380   -2.2760   -0.1850 n2        1 675     -0.658100
      2 C17         2.1330   -1.0550   -0.3330 ce        1 675      0.613800
      3 N19         2.1560   -0.0040    0.7770 n4        1 675     -0.884600
      4 C12         2.5030   -0.4530   -1.6420 ca        1 675     -0.178900
      5 C11         3.7830    0.1430   -1.7980 ca        1 675     -0.125000
      6 C10         4.1560    0.6490   -3.0190 ca        1 675     -0.068000
      7 C2          3.2720    0.5790   -4.1330 ca        1 675     -0.031000
      8 C1          3.6410    1.1010   -5.4020 ca        1 675     -0.015000
      9 C6          2.7690    1.0040   -6.4730 ca        1 675     -0.161600
     10 C5          1.4930    0.4020   -6.3130 ca        1 675     -0.110000
     11 C4          1.1190   -0.1000   -5.0910 ca        1 675     -0.078000
     12 C3          1.9990   -0.0270   -3.9750 ca        1 675     -0.018000
     13 C13         1.6280   -0.5480   -2.7040 ca        1 675     -0.037000
     14 C23         3.1840    1.6100   -7.7480 c         1 675      0.568700
     15 O36         3.7910    2.6580   -7.9080 o         1 675     -0.399100
     16 N24         2.8330    0.8570   -9.0180 n4        1 675     -0.536200
     17 C25         3.9630    0.0520   -9.5000 ca        1 675     -0.072400
     18 C30         3.8840   -1.3520   -9.4640 ca        1 675     -0.100000
     19 C29         4.9470   -2.1000   -9.9650 ca        1 675     -0.100500
     20 C28         6.0740   -1.4660  -10.4930 ca        1 675     -0.062000
     21 C27         6.1460   -0.0720  -10.5200 ca        1 675     -0.100500
     22 C26         5.0960    0.6990  -10.0260 ca        1 675     -0.100000
     23 H18         1.5840   -2.7030    0.6800 hn        1 675      0.478400
     24 H191        1.3730    0.6430    0.6370 hn        1 675      0.464800
     25 H192        3.0320    0.5270    0.7180 hn        1 675      0.464800
     26 H11         4.4930    0.1660   -0.9570 ha        1 675      0.150000
     27 H10         5.1500    1.1100   -3.1550 ha        1 675      0.174000
     28 H1          4.6260    1.5870   -5.5160 ha        1 675      0.178000
     29 H5          0.7780    0.3650   -7.1500 ha        1 675      0.147000
     30 H4          0.1260   -0.5630   -4.9570 ha        1 675      0.172000
     31 H13         0.6440   -1.0360   -2.5970 ha        1 675      0.171000
     32 H24         2.5960    1.5410   -9.7540 hn        1 675      0.466800
     33 H30         3.0000   -1.8710   -9.0610 ha        1 675      0.160000
     34 H29         4.8890   -3.2020   -9.9490 ha        1 675      0.177500
     35 H28         6.9080   -2.0690  -10.8940 ha        1 675      0.179000
     36 H27         7.0350    0.4290  -10.9400 ha        1 675      0.177500
     37 H26         5.1650    1.8010  -10.0520 ha        1 675      0.160000
     38 H193        2.0820   -0.4170    1.7110 hn        1 675      0.464800
     39 H242        2.0270    0.2440   -8.8560 hn        1 675      0.466800
@<TRIPOS>BOND
     1    1    2 2   
     2    1   23 1   
     3    2    3 1   
     4    2    4 1   
     5    3   24 1   
     6    3   25 1   
     7    3   38 1   
     8    4    5 ar  
     9    4   13 ar  
    10    5    6 ar  
    11    5   26 1   
    12    6    7 ar  
    13    6   27 1   
    14    7    8 ar  
    15    7   12 ar  
    16    8    9 ar  
    17    8   28 1   
    18    9   10 ar  
    19    9   14 1   
    20   10   11 ar  
    21   10   29 1   
    22   11   12 ar  
    23   11   30 1   
    24   12   13 ar  
    25   13   31 1   
    26   14   15 2   
    27   14   16 1   
    28   16   17 1   
    29   16   32 1   
    30   16   39 1   
    31   17   18 ar  
    32   17   22 ar  
    33   18   19 ar  
    34   18   33 1   
    35   19   20 ar  
    36   19   34 1   
    37   20   21 ar  
    38   20   35 1   
    39   21   22 ar  
    40   21   36 1   
    41   22   37 1   
@<TRIPOS>SUBSTRUCTURE
     1 675         1 TEMP              0 ****  ****    0 ROOT
