@<TRIPOS>MOLECULE
675
   37    31     1     0     0
SMALL
bcc


@<TRIPOS>ATOM
      1 N18        -3.2400   -1.1180    5.4540 n1        1 675     -0.291000
      2 C17        -3.8610   -0.9930    4.3110 c1        1 675      0.125000
      3 N19        -5.2790   -0.9480    4.2750 n2        1 675     -0.397000
      4 C12        -3.0680   -0.8960    3.0250 c2        1 675     -0.043000
      5 C11        -2.7590   -2.1300    2.4610 c2        1 675     -0.092000
      6 C10        -2.0040   -2.1920    1.2960 c1        1 675     -0.121000
      7 C2         -1.5520   -1.0070    0.6860 c1        1 675     -0.034000
      8 C1         -0.7990   -1.0680   -0.5010 c1        1 675     -0.103000
      9 C6         -0.3640    0.1030   -1.1090 c1        1 675     -0.116000
     10 C5         -0.6730    1.3370   -0.5450 c1        1 675     -0.091000
     11 C4         -1.4160    1.3990    0.6270 c1        1 675     -0.103000
     12 C3         -1.8570    0.2130    1.2440 c1        1 675     -0.034000
     13 C13        -2.6220    0.2750    2.4240 c1        1 675     -0.098000
     14 C23         0.8390    0.6690   -1.8330 c2        1 675      0.352000
     15 O36         0.8210    1.8150   -2.2360 o         1 675     -0.341000
     16 N24         2.0100   -0.1160   -1.9830 n         1 675     -0.323000
     17 C25         3.1590    0.4360   -2.6050 c2        1 675      0.075000
     18 C30         4.2770    0.7440   -1.8450 c2        1 675     -0.184000
     19 C29         5.4180    1.2360   -2.4590 c1        1 675     -0.104000
     20 C28         5.4420    1.4200   -3.8320 c1        1 675     -0.131000
     21 C27         4.3240    1.1120   -4.5920 c1        1 675     -0.131000
     22 C26         3.1830    0.6200   -3.9790 c1        1 675     -0.154000
     23 H18        -3.7190   -1.1760    6.2320 DU        1 675      0.141000
     24 H191       -5.7590   -1.0410    5.0470 hn        1 675      0.196000
     25 H192       -5.7120   -0.8210    3.4800 hn        1 675      0.196000
     26 H11        -3.0700   -2.9510    2.8840 ha        1 675      0.152000
     27 H10        -1.7880   -3.0570    0.9000 ha        1 675      0.138000
     28 H1         -0.5820   -1.9330   -0.8970 ha        1 675      0.140500
     29 H5         -0.3670    2.1580   -0.9720 ha        1 675      0.156000
     30 H4         -1.6330    2.2640    1.0220 ha        1 675      0.140500
     31 H13        -2.8250    1.1390    2.8300 ha        1 675      0.149000
     32 H24         2.0280   -0.9720   -1.6690 hn        1 675      0.233000
     33 H30         4.2600    0.6140   -0.8780 ha        1 675      0.128000
     34 H29         6.2050    1.4530   -1.9240 ha        1 675      0.131000
     35 H28         6.2450    1.7660   -4.2650 ha        1 675      0.133500
     36 H27         4.3410    1.2420   -5.5600 ha        1 675      0.133500
     37 H26         2.3960    0.4030   -4.5140 ha        1 675      0.172000
@<TRIPOS>BOND
     1    1    2 1   
     2    2    4 1   
     3    3   24 1   
     4    3   25 1   
     5    4    5 1   
     6    4   13 1   
     7    5    6 1   
     8    5   26 1   
     9    6   27 1   
    10    7    8 1   
    11    7   12 1   
    12    8   28 1   
    13    9   10 1   
    14    9   14 1   
    15   10   29 1   
    16   11   12 1   
    17   11   30 1   
    18   13   31 1   
    19   14   15 1   
    20   14   16 1   
    21   16   17 1   
    22   16   32 1   
    23   17   18 1   
    24   17   22 1   
    25   18   19 1   
    26   18   33 1   
    27   19   34 1   
    28   20   21 1   
    29   20   35 1   
    30   21   36 1   
    31   22   37 1   
@<TRIPOS>SUBSTRUCTURE
     1 675         1 TEMP              0 ****  ****    0 ROOT
