@<TRIPOS>MOLECULE
675
   37    39     1     0     0
SMALL
bcc


@<TRIPOS>ATOM
      1 N18        -1.5110    0.8620    6.4310 n2        1 675     -0.831100
      2 C17        -0.4130    0.3110    6.0040 ce        1 675      0.636800
      3 N19         0.5460   -0.2140    6.8940 nh        1 675     -0.892800
      4 C12        -0.0190    0.2370    4.5590 ca        1 675     -0.181900
      5 C11         1.2590    0.7020    4.1530 ca        1 675     -0.102000
      6 C10         1.6200    0.6570    2.8290 ca        1 675     -0.113000
      7 C2          0.7240    0.1440    1.8510 ca        1 675     -0.040000
      8 C1          1.0790    0.0850    0.4760 ca        1 675     -0.057000
      9 C6          0.1880   -0.4080   -0.4520 ca        1 675     -0.143600
     10 C5         -1.0860   -0.8830   -0.0440 ca        1 675     -0.113000
     11 C4         -1.4450   -0.8410    1.2800 ca        1 675     -0.116000
     12 C3         -0.5520   -0.3210    2.2570 ca        1 675     -0.029000
     13 C13        -0.9070   -0.2610    3.6320 ca        1 675     -0.104000
     14 C23         0.6070   -0.4640   -1.8870 c         1 675      0.679700
     15 O36         1.7520   -0.8360   -2.2040 o         1 675     -0.582100
     16 N24        -0.3500   -0.0650   -2.8090 n         1 675     -0.468100
     17 C25        -0.2130    0.0020   -4.2060 ca        1 675      0.067600
     18 C30         0.8880   -0.5420   -4.9010 ca        1 675     -0.168500
     19 C29         0.9480   -0.4530   -6.2890 ca        1 675     -0.104500
     20 C28        -0.0670    0.1670   -7.0130 ca        1 675     -0.156000
     21 C27        -1.1600    0.7060   -6.3360 ca        1 675     -0.104500
     22 C26        -1.2420    0.6310   -4.9510 ca        1 675     -0.168500
     23 H18        -2.0610    1.2890    5.7170 hn        1 675      0.395400
     24 H191        0.2410   -0.3210    7.8380 hn        1 675      0.400800
     25 H192        1.0190   -1.0130    6.5360 hn        1 675      0.400800
     26 H11         1.9500    1.1020    4.9110 ha        1 675      0.155000
     27 H10         2.6080    1.0170    2.5030 ha        1 675      0.143000
     28 H1          2.0780    0.4290    0.1610 ha        1 675      0.157000
     29 H5         -1.7750   -1.3060   -0.7910 ha        1 675      0.140000
     30 H4         -2.4280   -1.2130    1.6070 ha        1 675      0.140000
     31 H13        -1.9020   -0.6230    3.9370 ha        1 675      0.142000
     32 H24        -1.2090    0.2850   -2.4450 hn        1 675      0.319500
     33 H30         1.7080   -1.0380   -4.3560 ha        1 675      0.150000
     34 H29         1.8150   -0.8820   -6.8160 ha        1 675      0.133000
     35 H28        -0.0090    0.2310   -8.1090 ha        1 675      0.133000
     36 H27        -1.9680    1.1980   -6.8990 ha        1 675      0.133000
     37 H26        -2.1140    1.0670   -4.4410 ha        1 675      0.150000
@<TRIPOS>BOND
     1    1    2 2   
     2    1   23 1   
     3    2    3 1   
     4    2    4 1   
     5    3   24 1   
     6    3   25 1   
     7    4    5 ar  
     8    4   13 ar  
     9    5    6 ar  
    10    5   26 1   
    11    6    7 ar  
    12    6   27 1   
    13    7    8 ar  
    14    7   12 ar  
    15    8    9 ar  
    16    8   28 1   
    17    9   10 ar  
    18    9   14 1   
    19   10   11 ar  
    20   10   29 1   
    21   11   12 ar  
    22   11   30 1   
    23   12   13 ar  
    24   13   31 1   
    25   14   15 2   
    26   14   16 1   
    27   16   17 1   
    28   16   32 1   
    29   17   18 ar  
    30   17   22 ar  
    31   18   19 ar  
    32   18   33 1   
    33   19   20 ar  
    34   19   34 1   
    35   20   21 ar  
    36   20   35 1   
    37   21   22 ar  
    38   21   36 1   
    39   22   37 1   
@<TRIPOS>SUBSTRUCTURE
     1 675         1 TEMP              0 ****  ****    0 ROOT
