@<TRIPOS>MOLECULE
676
   54    57     1     0     0
SMALL
bcc


@<TRIPOS>ATOM
      1 O21        -0.8700    0.7020    0.6210 o         1 676     -0.467100
      2 C19        -0.3470   -0.0760   -0.1670 c         1 676      0.582100
      3 N20         1.1050   -0.4000    0.1100 n4        1 676     -0.704800
      4 C22         1.5770   -0.0720    1.5140 c3        1 676      0.192800
      5 C24         2.6550   -1.0370    1.9060 ca        1 676     -0.228300
      6 C29         2.4030   -1.9680    2.9210 ca        1 676     -0.103500
      7 C28         3.4080   -2.8540    3.3120 ca        1 676     -0.105500
      8 C27         4.6570   -2.8170    2.6900 ca        1 676     -0.053000
      9 C26         4.9060   -1.8910    1.6720 ca        1 676     -0.105500
     10 C25         3.9100   -1.0020    1.2790 ca        1 676     -0.103500
     11 C23         2.1330    1.3630    1.6610 c3        1 676      0.080800
     12 N30         1.1080    2.4350    1.7470 n4        1 676     -0.841600
     13 C11        -0.9890   -0.7450   -1.3510 c3        1 676     -0.176400
     14 C6         -0.6480   -0.0900   -2.7110 c3        1 676      0.044000
     15 N5          0.7600   -0.1400   -3.0030 na        1 676     -0.112100
     16 C1          1.4740   -0.9360   -3.8870 cc        1 676     -0.049300
     17 C7         -1.1520    1.3880   -2.7450 c3        1 676      0.052000
     18 N8         -0.3530    2.2430   -1.8970 n         1 676     -0.570900
     19 C9          1.0240    2.0620   -1.8440 c         1 676      0.736100
     20 O10         1.7000    2.7170   -1.0120 o         1 676     -0.709500
     21 C4          1.5910    0.9450   -2.6070 cc        1 676     -0.325900
     22 C2          2.8480    0.7800   -3.2100 cd        1 676     -0.019000
     23 C3          2.7810   -0.4140   -4.0110 cd        1 676     -0.094000
     24 C12         3.8510   -0.9710   -4.8060 ca        1 676      0.016000
     25 C14         4.9370   -0.1710   -5.1840 ca        1 676     -0.272300
     26 C16         5.9670   -0.7610   -5.9620 ca        1 676      0.640500
     27 F18         7.0240   -0.0020   -6.3300 f         1 676     -0.195200
     28 N17         5.9550   -2.0670   -6.3640 nb        1 676     -0.650000
     29 C15         4.8960   -2.8000   -5.9900 ca        1 676      0.445200
     30 C13         3.8260   -2.3120   -5.2150 ca        1 676     -0.265300
     31 H20         1.2470   -1.4120   -0.0350 hn        1 676      0.484800
     32 H111       -2.1070   -0.6670   -1.2040 hc        1 676      0.132200
     33 H112       -0.7240   -1.8370   -1.3740 hc        1 676      0.132200
     34 H22         0.6800   -0.2110    2.1960 hx        1 676      0.123700
     35 H231        2.8330    1.6280    0.8100 hx        1 676      0.152700
     36 H232        2.7340    1.3730    2.6250 hx        1 676      0.152700
     37 H29         1.4230   -2.0050    3.4240 ha        1 676      0.140000
     38 H25         4.1200   -0.2700    0.4830 ha        1 676      0.140000
     39 H28         3.2120   -3.5830    4.1180 ha        1 676      0.178000
     40 H27         5.4520   -3.5180    3.0040 ha        1 676      0.182000
     41 H26         5.8950   -1.8630    1.1830 ha        1 676      0.178000
     42 H301        0.7440    2.6630    0.8050 hn        1 676      0.477800
     43 H302        0.3220    2.1520    2.3430 hn        1 676      0.477800
     44 H6         -1.2200   -0.6700   -3.5000 h1        1 676      0.137700
     45 H71C       -2.2170    1.4180   -2.3770 h1        1 676      0.102700
     46 H72C       -1.1390    1.7420   -3.8180 h1        1 676      0.102700
     47 H1          1.0320   -1.8190   -4.3620 h4        1 676      0.206000
     48 H8         -0.7170    3.1550   -1.7150 hn        1 676      0.351500
     49 H2          3.7110    1.4390   -3.0990 ha        1 676      0.195000
     50 H14         5.0040    0.8900   -4.9140 ha        1 676      0.159000
     51 H13         2.9970   -2.9780   -4.9490 ha        1 676      0.140000
     52 H15         4.9090   -3.8530   -6.3380 h4        1 676      0.052100
     53 H202        1.7100    0.0940   -0.5720 hn        1 676      0.484800
     54 H303        1.5400    3.2850    2.1330 hn        1 676      0.477800
@<TRIPOS>BOND
     1    1    2 2   
     2    2    3 1   
     3    2   13 1   
     4    3    4 1   
     5    3   31 1   
     6    3   53 1   
     7    4    5 1   
     8    4   11 1   
     9    4   34 1   
    10    5    6 ar  
    11    5   10 ar  
    12    6    7 ar  
    13    6   37 1   
    14    7    8 ar  
    15    7   39 1   
    16    8    9 ar  
    17    8   40 1   
    18    9   10 ar  
    19    9   41 1   
    20   10   38 1   
    21   11   12 1   
    22   11   35 1   
    23   11   36 1   
    24   12   42 1   
    25   12   43 1   
    26   12   54 1   
    27   13   14 1   
    28   13   32 1   
    29   13   33 1   
    30   14   15 1   
    31   14   17 1   
    32   14   44 1   
    33   15   16 1   
    34   15   21 1   
    35   16   23 2   
    36   16   47 1   
    37   17   18 1   
    38   17   45 1   
    39   17   46 1   
    40   18   19 1   
    41   18   48 1   
    42   19   20 2   
    43   19   21 1   
    44   21   22 2   
    45   22   23 1   
    46   22   49 1   
    47   23   24 1   
    48   24   25 ar  
    49   24   30 ar  
    50   25   26 ar  
    51   25   50 1   
    52   26   27 1   
    53   26   28 ar  
    54   28   29 ar  
    55   29   30 ar  
    56   29   52 1   
    57   30   51 1   
@<TRIPOS>SUBSTRUCTURE
     1 676         1 TEMP              0 ****  ****    0 ROOT
