@<TRIPOS>MOLECULE
676
   52    55     1     0     0
SMALL
bcc


@<TRIPOS>ATOM
      1 O21         2.2430    0.2050    2.0530 o         1 676     -0.630100
      2 C19         2.1490    0.0040    0.8220 c         1 676      0.666100
      3 N20         3.2570   -0.2680    0.0470 n         1 676     -0.538900
      4 C22         4.5960   -0.1140    0.5770 c3        1 676      0.140000
      5 C24         5.5840   -0.9920   -0.1490 ca        1 676     -0.099300
      6 C29         6.2890   -1.9680    0.5620 ca        1 676     -0.118000
      7 C28         7.2140   -2.7800   -0.0930 ca        1 676     -0.127500
      8 C27         7.4350   -2.6260   -1.4620 ca        1 676     -0.121000
      9 C26         6.7290   -1.6570   -2.1750 ca        1 676     -0.127500
     10 C25         5.8060   -0.8420   -1.5220 ca        1 676     -0.118000
     11 C23         5.1240    1.3510    0.5310 c3        1 676      0.138800
     12 N30         4.1980    2.3110    1.0780 n3        1 676     -0.933800
     13 C11         0.7930   -0.0350    0.1380 c3        1 676     -0.172400
     14 C6         -0.1380    1.0100    0.7780 c3        1 676      0.046000
     15 N5         -1.5240    0.8100    0.4220 na        1 676     -0.046100
     16 C1         -2.4250   -0.1110    0.9140 cc        1 676     -0.087300
     17 C7          0.3260    2.4460    0.3850 c3        1 676      0.080000
     18 N8         -0.1260    2.8790   -0.9070 n         1 676     -0.575900
     19 C9         -1.4130    2.5870   -1.3540 c         1 676      0.734100
     20 O10        -1.8840    3.1690   -2.3480 o         1 676     -0.621500
     21 C4         -2.1350    1.5300   -0.6250 cc        1 676     -0.191900
     22 C2         -3.4460    1.0620   -0.7760 cd        1 676     -0.078000
     23 C3         -3.6390    0.0210    0.1990 cd        1 676     -0.151000
     24 C12        -4.8380   -0.7440    0.4140 ca        1 676      0.078000
     25 C14        -5.8670   -0.7430   -0.5400 ca        1 676     -0.274300
     26 C16        -7.0270   -1.5140   -0.2820 ca        1 676      0.613500
     27 F18        -8.0280   -1.5200   -1.1980 f         1 676     -0.224200
     28 N17        -7.2080   -2.2640    0.8440 nb        1 676     -0.694000
     29 C15        -6.2030   -2.2430    1.7360 ca        1 676      0.425200
     30 C13        -5.0150   -1.5120    1.5770 ca        1 676     -0.273300
     31 H20         3.1660   -0.2630   -0.9420 hn        1 676      0.312500
     32 H111        0.8710    0.1540   -0.9640 hc        1 676      0.083200
     33 H112        0.3790   -1.0690    0.2830 hc        1 676      0.083200
     34 H22         4.5510   -0.4260    1.6670 h1        1 676      0.086700
     35 H231        6.1200    1.3410    1.0630 h1        1 676      0.037200
     36 H232        5.3190    1.6430   -0.5400 h1        1 676      0.037200
     37 H29         6.1130   -2.0990    1.6410 ha        1 676      0.133500
     38 H25         5.2580   -0.0760   -2.0910 ha        1 676      0.133500
     39 H28         7.7680   -3.5440    0.4710 ha        1 676      0.136000
     40 H27         8.1640   -3.2680   -1.9780 ha        1 676      0.136000
     41 H26         6.9010   -1.5350   -3.2550 ha        1 676      0.136000
     42 H301        3.7690    1.9680    1.9170 hn        1 676      0.361800
     43 H302        4.6680    3.1730    1.2710 hn        1 676      0.361800
     44 H6         -0.0430    0.9190    1.9040 h1        1 676      0.104700
     45 H71C       -0.0410    3.1530    1.1860 h1        1 676      0.065700
     46 H72C        1.4540    2.4570    0.4010 h1        1 676      0.065700
     47 H1         -2.1660   -0.7910    1.7280 h4        1 676      0.177000
     48 H8          0.3430    3.6550   -1.3150 hn        1 676      0.326500
     49 H2         -4.1750    1.4330   -1.4940 ha        1 676      0.175000
     50 H14        -5.7880   -0.1670   -1.4700 ha        1 676      0.161000
     51 H13        -4.2430   -1.5400    2.3570 ha        1 676      0.143000
     52 H15        -6.3700   -2.8560    2.6410 h4        1 676      0.027100
@<TRIPOS>BOND
     1    1    2 2   
     2    2    3 1   
     3    2   13 1   
     4    3    4 1   
     5    3   31 1   
     6    4    5 1   
     7    4   11 1   
     8    4   34 1   
     9    5    6 ar  
    10    5   10 ar  
    11    6    7 ar  
    12    6   37 1   
    13    7    8 ar  
    14    7   39 1   
    15    8    9 ar  
    16    8   40 1   
    17    9   10 ar  
    18    9   41 1   
    19   10   38 1   
    20   11   12 1   
    21   11   35 1   
    22   11   36 1   
    23   12   42 1   
    24   12   43 1   
    25   13   14 1   
    26   13   32 1   
    27   13   33 1   
    28   14   15 1   
    29   14   17 1   
    30   14   44 1   
    31   15   16 1   
    32   15   21 1   
    33   16   23 2   
    34   16   47 1   
    35   17   18 1   
    36   17   45 1   
    37   17   46 1   
    38   18   19 1   
    39   18   48 1   
    40   19   20 2   
    41   19   21 1   
    42   21   22 2   
    43   22   23 1   
    44   22   49 1   
    45   23   24 1   
    46   24   25 ar  
    47   24   30 ar  
    48   25   26 ar  
    49   25   50 1   
    50   26   27 1   
    51   26   28 ar  
    52   28   29 ar  
    53   29   30 ar  
    54   29   52 1   
    55   30   51 1   
@<TRIPOS>SUBSTRUCTURE
     1 676         1 TEMP              0 ****  ****    0 ROOT
