@<TRIPOS>MOLECULE
676
   52    47     1     0     0
SMALL
bcc


@<TRIPOS>ATOM
      1 O21        -1.1710    1.7820    1.5270 o         1 676     -0.374000
      2 C19        -0.0130    1.4150    1.5620 c1        1 676      0.306000
      3 N20         0.5510    0.9360    2.7910 n2        1 676     -0.368000
      4 C22        -0.3020    0.4400    3.8230 c3        1 676      0.053000
      5 C24        -0.4780   -1.0390    3.6570 c2        1 676     -0.111000
      6 C29        -1.7470   -1.5720    3.5110 c1        1 676     -0.109000
      7 C28        -1.9070   -2.9310    3.3060 c1        1 676     -0.126000
      8 C27        -0.7960   -3.7600    3.2460 c1        1 676     -0.126000
      9 C26         0.4740   -3.2270    3.3910 c1        1 676     -0.130000
     10 C25         0.6340   -1.8670    3.5970 c2        1 676     -0.130000
     11 C23         0.3220    0.7280    5.1800 c3        1 676     -0.080000
     12 N30        -0.6910    1.2040    6.0820 n3        1 676     -0.347000
     13 C11         0.8590    1.5190    0.3120 c3        1 676     -0.208000
     14 C6          0.0560    2.2400   -0.8290 c3        1 676      0.030000
     15 N5          0.1520    1.3910   -2.0770 n3        1 676     -0.115000
     16 C1         -0.3630    0.1850   -2.4570 c1        1 676     -0.065000
     17 C7          0.5410    3.5660   -0.9340 c3        1 676     -0.031000
     18 N8          1.6450    3.7620   -1.7380 n         1 676     -0.385000
     19 C9          1.5930    3.2960   -2.9780 c2        1 676      0.371000
     20 O10         1.7760    4.0420   -3.9130 o         1 676     -0.346000
     21 C4          0.8500    1.9440   -3.1960 c2        1 676     -0.147000
     22 C2          0.7460    1.0580   -4.2420 c1        1 676     -0.079000
     23 C3         -0.0020   -0.0400   -3.8050 c1        1 676     -0.149000
     24 C12        -0.2540   -1.3120   -4.5920 c1        1 676      0.077000
     25 C14        -1.3100   -1.3850   -5.4520 c2        1 676     -0.219000
     26 C16        -1.5350   -2.5460   -6.1770 c1        1 676      0.145000
     27 F18        -2.5680   -2.6160   -7.0240 f         1 676     -0.086000
     28 N17        -0.7030   -3.6120   -6.0300 n2        1 676     -0.166000
     29 C15         0.3540   -3.5400   -5.1710 c1        1 676     -0.040000
     30 C13         0.5800   -2.3810   -4.4460 c1        1 676     -0.198000
     31 H20         1.4530    0.9850    2.9290 hn        1 676      0.223000
     32 H111        1.1120    0.6200    0.0150 hc        1 676      0.123500
     33 H112        1.6690    2.0360    0.5190 hc        1 676      0.123500
     34 H22        -1.1720    0.8790    3.7650 h1        1 676      0.151000
     35 H231        1.0160    1.4090    5.0820 h1        1 676      0.070500
     36 H232        0.7200   -0.0960    5.5400 h1        1 676      0.070500
     37 H29        -2.5320   -0.9880    3.5540 ha        1 676      0.145000
     38 H25         1.5320   -1.4900    3.7000 ha        1 676      0.126000
     39 H28        -2.7990   -3.3060    3.2030 ha        1 676      0.136500
     40 H27        -0.9080   -4.7160    3.1010 ha        1 676      0.136500
     41 H26         1.2560   -3.8100    3.3490 ha        1 676      0.134000
     42 H301       -0.8040    0.5980    6.7620 hn        1 676      0.151500
     43 H302       -0.4330    2.0140    6.4330 hn        1 676      0.151500
     44 H6         -0.8800    2.2810   -0.5620 h1        1 676      0.142000
     45 H71C        0.7660    3.8770   -0.0320 h1        1 676      0.104500
     46 H72C       -0.1880    4.1280   -1.2790 h1        1 676      0.104500
     47 H1         -0.8880   -0.4160   -1.8960 DU        1 676      0.175500
     48 H8          2.2710    4.3870   -1.5100 hn        1 676      0.239000
     49 H2          1.1280    1.1740   -5.1320 DU        1 676      0.175500
     50 H14        -1.9000   -0.6140   -5.5680 ha        1 676      0.152000
     51 H13         1.3360   -2.3300   -3.8320 ha        1 676      0.152000
     52 H15         0.9500   -4.3040   -5.0670 ha        1 676      0.166000
@<TRIPOS>BOND
     1    1    2 1   
     2    2   13 1   
     3    3    4 1   
     4    3   31 1   
     5    4    5 1   
     6    4   11 1   
     7    4   34 1   
     8    5    6 1   
     9    5   10 1   
    10    6   37 1   
    11    7    8 1   
    12    7   39 1   
    13    8   40 1   
    14    9   10 1   
    15    9   41 1   
    16   10   38 1   
    17   11   12 1   
    18   11   35 1   
    19   11   36 1   
    20   12   42 1   
    21   12   43 1   
    22   13   14 1   
    23   13   32 1   
    24   13   33 1   
    25   14   15 1   
    26   14   17 1   
    27   14   44 1   
    28   15   16 1   
    29   15   21 1   
    30   16   23 1   
    31   17   18 1   
    32   17   45 1   
    33   17   46 1   
    34   18   19 1   
    35   18   48 1   
    36   19   20 1   
    37   19   21 1   
    38   21   22 1   
    39   22   23 1   
    40   24   25 1   
    41   24   30 1   
    42   25   26 1   
    43   25   50 1   
    44   26   28 1   
    45   28   29 1   
    46   29   52 1   
    47   30   51 1   
@<TRIPOS>SUBSTRUCTURE
     1 676         1 TEMP              0 ****  ****    0 ROOT
