@<TRIPOS>MOLECULE
676
   54    57     1     0     0
SMALL
bcc


@<TRIPOS>ATOM
      1 O21        -0.8830    0.7250    0.5920 o         1 676     -0.467100
      2 C19        -0.3590   -0.0580   -0.1910 c         1 676      0.582100
      3 N20         1.0890   -0.3910    0.0990 n4        1 676     -0.704800
      4 C22         1.5510   -0.0650    1.5060 c3        1 676      0.192800
      5 C24         2.6190   -1.0360    1.9090 ca        1 676     -0.228300
      6 C29         2.3520   -1.9650    2.9230 ca        1 676     -0.103500
      7 C28         3.3470   -2.8570    3.3230 ca        1 676     -0.105500
      8 C27         4.6020   -2.8300    2.7120 ca        1 676     -0.053000
      9 C26         4.8650   -1.9070    1.6940 ca        1 676     -0.105500
     10 C25         3.8790   -1.0110    1.2920 ca        1 676     -0.103500
     11 C23         2.1160    1.3660    1.6570 c3        1 676      0.080800
     12 N30         1.0970    2.4460    1.7320 n4        1 676     -0.841600
     13 C11        -0.9960   -0.7230   -1.3780 c3        1 676     -0.176400
     14 C6         -0.6400   -0.0730   -2.7370 c3        1 676      0.044000
     15 N5          0.7710   -0.1330   -3.0180 na        1 676     -0.112100
     16 C1          1.4860   -0.9350   -3.8940 cc        1 676     -0.049300
     17 C7         -1.1330    1.4080   -2.7770 c3        1 676      0.052000
     18 N8         -0.3350    2.2590   -1.9230 n         1 676     -0.570900
     19 C9          1.0410    2.0690   -1.8590 c         1 676      0.736100
     20 O10         1.7150    2.7190   -1.0230 o         1 676     -0.709500
     21 C4          1.6060    0.9460   -2.6160 cc        1 676     -0.325900
     22 C2          2.8660    0.7710   -3.2090 cd        1 676     -0.019000
     23 C3          2.7970   -0.4230   -4.0090 cd        1 676     -0.094000
     24 C12         3.8690   -0.9890   -4.7940 ca        1 676      0.016000
     25 C14         4.9650   -0.1980   -5.1640 ca        1 676     -0.272300
     26 C16         5.9970   -0.7960   -5.9330 ca        1 676      0.640500
     27 F18         7.0620   -0.0450   -6.2920 f         1 676     -0.195200
     28 N17         5.9770   -2.1020   -6.3350 nb        1 676     -0.650000
     29 C15         4.9100   -2.8260   -5.9690 ca        1 676      0.445200
     30 C13         3.8380   -2.3290   -5.2040 ca        1 676     -0.265300
     31 H20         1.2240   -1.4050   -0.0440 hn        1 676      0.484800
     32 H111       -0.7390   -1.8180   -1.3980 hc        1 676      0.132200
     33 H112       -2.1150   -0.6380   -1.2400 hc        1 676      0.132200
     34 H22         0.6470   -0.1970    2.1820 hx        1 676      0.123700
     35 H231        2.7080    1.3740    2.6250 hx        1 676      0.152700
     36 H232        2.8250    1.6260    0.8100 hx        1 676      0.152700
     37 H29         1.3680   -1.9940    3.4170 ha        1 676      0.140000
     38 H25         4.1000   -0.2830    0.4970 ha        1 676      0.140000
     39 H28         3.1400   -3.5840    4.1280 ha        1 676      0.178000
     40 H27         5.3890   -3.5360    3.0320 ha        1 676      0.182000
     41 H26         5.8580   -1.8860    1.2130 ha        1 676      0.178000
     42 H301        0.3050    2.1700    2.3220 hn        1 676      0.477800
     43 H302        1.5320    3.2930    2.1200 hn        1 676      0.477800
     44 H6         -1.2090   -0.6500   -3.5300 h1        1 676      0.137700
     45 H71C       -2.2000    1.4470   -2.4170 h1        1 676      0.102700
     46 H72C       -1.1090    1.7610   -3.8500 h1        1 676      0.102700
     47 H1          1.0410   -1.8160   -4.3720 h4        1 676      0.206000
     48 H8         -0.6930    3.1740   -1.7460 hn        1 676      0.351500
     49 H2          3.7330    1.4250   -3.0910 ha        1 676      0.195000
     50 H14         5.0380    0.8640   -4.8930 ha        1 676      0.159000
     51 H13         3.0010   -2.9890   -4.9440 ha        1 676      0.140000
     52 H15         4.9170   -3.8790   -6.3170 h4        1 676      0.052100
     53 H202        1.7020    0.0970   -0.5790 hn        1 676      0.484800
     54 H303        0.7430    2.6750    0.7860 hn        1 676      0.477800
@<TRIPOS>BOND
     1    1    2 2   
     2    2    3 1   
     3    2   13 1   
     4    3    4 1   
     5    3   31 1   
     6    3   53 1   
     7    4    5 1   
     8    4   11 1   
     9    4   34 1   
    10    5    6 ar  
    11    5   10 ar  
    12    6    7 ar  
    13    6   37 1   
    14    7    8 ar  
    15    7   39 1   
    16    8    9 ar  
    17    8   40 1   
    18    9   10 ar  
    19    9   41 1   
    20   10   38 1   
    21   11   12 1   
    22   11   35 1   
    23   11   36 1   
    24   12   42 1   
    25   12   43 1   
    26   12   54 1   
    27   13   14 1   
    28   13   32 1   
    29   13   33 1   
    30   14   15 1   
    31   14   17 1   
    32   14   44 1   
    33   15   16 1   
    34   15   21 1   
    35   16   23 2   
    36   16   47 1   
    37   17   18 1   
    38   17   45 1   
    39   17   46 1   
    40   18   19 1   
    41   18   48 1   
    42   19   20 2   
    43   19   21 1   
    44   21   22 2   
    45   22   23 1   
    46   22   49 1   
    47   23   24 1   
    48   24   25 ar  
    49   24   30 ar  
    50   25   26 ar  
    51   25   50 1   
    52   26   27 1   
    53   26   28 ar  
    54   28   29 ar  
    55   29   30 ar  
    56   29   52 1   
    57   30   51 1   
@<TRIPOS>SUBSTRUCTURE
     1 676         1 TEMP              0 ****  ****    0 ROOT
