@<TRIPOS>MOLECULE
676
   54    57     1     0     0
SMALL
bcc


@<TRIPOS>ATOM
      1 O21        -0.8320    0.8570    0.5950 o         1 676     -0.467100
      2 C19        -0.3420    0.0490   -0.1850 c         1 676      0.582100
      3 N20         1.0910   -0.3440    0.1040 ny        1 676     -0.704800
      4 C22         1.5680   -0.0310    1.5100 c3        1 676      0.192800
      5 C24         2.5960   -1.0450    1.9150 ca        1 676     -0.228300
      6 C29         2.2910   -1.9580    2.9330 ca        1 676     -0.103500
      7 C28         3.2480   -2.8890    3.3350 ca        1 676     -0.105500
      8 C27         4.5020   -2.9170    2.7220 ca        1 676     -0.053000
      9 C26         4.8030   -2.0090    1.7010 ca        1 676     -0.105500
     10 C25         3.8550   -1.0750    1.2960 ca        1 676     -0.103500
     11 C23         2.1930    1.3760    1.6530 c3        1 676      0.080800
     12 N30         1.2210    2.4970    1.7250 nz        1 676     -0.841600
     13 C11        -1.0080   -0.5940   -1.3700 c3        1 676     -0.176400
     14 C6         -0.6270    0.0360   -2.7310 c3        1 676      0.044000
     15 N5          0.7800   -0.0840   -3.0130 na        1 676     -0.112100
     16 C1          1.4600   -0.9200   -3.8870 cc        1 676     -0.049300
     17 C7         -1.0570    1.5360   -2.7760 c3        1 676      0.052000
     18 N8         -0.2230    2.3560   -1.9280 ns        1 676     -0.570900
     19 C9          1.1430    2.1080   -1.8630 c         1 676      0.736100
     20 O10         1.8460    2.7330   -1.0310 o         1 676     -0.710500
     21 C4          1.6600    0.9600   -2.6170 cc        1 676     -0.325900
     22 C2          2.9110    0.7310   -3.2110 cd        1 676     -0.019000
     23 C3          2.7920   -0.4630   -4.0060 cd        1 676     -0.094000
     24 C12         3.8370   -1.0760   -4.7900 ca        1 676      0.016000
     25 C14         4.9650   -0.3330   -5.1650 ca        1 676     -0.272300
     26 C16         5.9690   -0.9770   -5.9330 ca        1 676      0.640500
     27 F18         7.0650   -0.2730   -6.2960 f         1 676     -0.195200
     28 N17         5.8950   -2.2830   -6.3290 nb        1 676     -0.650000
     29 C15         4.7990   -2.9610   -5.9590 ca        1 676      0.445200
     30 C13         3.7490   -2.4160   -5.1940 ca        1 676     -0.265300
     31 H20         1.7230    0.1160   -0.5760 hn        1 676      0.484800
     32 H111       -0.7960   -1.6980   -1.3850 hc        1 676      0.132200
     33 H112       -2.1220   -0.4610   -1.2310 hc        1 676      0.132200
     34 H22         0.6610   -0.1220    2.1860 hx        1 676      0.123700
     35 H231        2.9110    1.6020    0.8050 hx        1 676      0.152700
     36 H232        2.7870    1.3620    2.6200 hx        1 676      0.152700
     37 H29         1.3070   -1.9440    3.4280 ha        1 676      0.140000
     38 H25         4.1050   -0.3590    0.4980 ha        1 676      0.140000
     39 H28         3.0120   -3.6040    4.1430 ha        1 676      0.178000
     40 H27         5.2600   -3.6540    3.0450 ha        1 676      0.182000
     41 H26         5.7960   -2.0320    1.2190 ha        1 676      0.178000
     42 H301        0.4180    2.2570    2.3180 hn        1 676      0.477800
     43 H302        1.6920    3.3280    2.1100 hn        1 676      0.477800
     44 H6         -1.2210   -0.5200   -3.5210 h1        1 676      0.137700
     45 H71C       -2.1210    1.6210   -2.4160 h1        1 676      0.102700
     46 H72C       -1.0200    1.8830   -3.8510 h1        1 676      0.102700
     47 H1          0.9780   -1.7820   -4.3610 h4        1 676      0.206000
     48 H8         -0.5430    3.2860   -1.7530 hn        1 676      0.351500
     49 H2          3.8050    1.3470   -3.0970 ha        1 676      0.195000
     50 H14         5.0820    0.7250   -4.8990 ha        1 676      0.159000
     51 H13         2.8860   -3.0390   -4.9310 ha        1 676      0.140000
     52 H15         4.7610   -4.0140   -6.3020 h4        1 676      0.052100
     53 H202        1.1840   -1.3620   -0.0350 hn        1 676      0.484800
     54 H303        0.8750    2.7370    0.7790 hn        1 676      0.477800
@<TRIPOS>BOND
     1    1    2 2   
     2    2    3 1   
     3    2   13 1   
     4    3    4 1   
     5    3   31 1   
     6    3   53 1   
     7    4    5 1   
     8    4   11 1   
     9    4   34 1   
    10    5    6 ar  
    11    5   10 ar  
    12    6    7 ar  
    13    6   37 1   
    14    7    8 ar  
    15    7   39 1   
    16    8    9 ar  
    17    8   40 1   
    18    9   10 ar  
    19    9   41 1   
    20   10   38 1   
    21   11   12 1   
    22   11   35 1   
    23   11   36 1   
    24   12   42 1   
    25   12   43 1   
    26   12   54 1   
    27   13   14 1   
    28   13   32 1   
    29   13   33 1   
    30   14   15 1   
    31   14   17 1   
    32   14   44 1   
    33   15   16 1   
    34   15   21 1   
    35   16   23 2   
    36   16   47 1   
    37   17   18 1   
    38   17   45 1   
    39   17   46 1   
    40   18   19 1   
    41   18   48 1   
    42   19   20 2   
    43   19   21 1   
    44   21   22 2   
    45   22   23 1   
    46   22   49 1   
    47   23   24 1   
    48   24   25 ar  
    49   24   30 ar  
    50   25   26 ar  
    51   25   50 1   
    52   26   27 1   
    53   26   28 ar  
    54   28   29 ar  
    55   29   30 ar  
    56   29   52 1   
    57   30   51 1   
@<TRIPOS>SUBSTRUCTURE
     1 676         1 TEMP              0 ****  ****    0 ROOT
