@<TRIPOS>MOLECULE
677
   44    47     1     0     0
SMALL
bcc


@<TRIPOS>ATOM
      1 F27        -0.0630   -0.2040    0.2860 f         1 677     -0.082900
      2 C6          1.2730   -0.1320    0.1530 ca        1 677      0.157900
      3 C1          2.0670    0.3210    1.2180 ca        1 677     -0.164000
      4 C2          3.4580    0.3890    1.0630 ca        1 677      0.096900
      5 F22         4.2120    0.8560    2.0940 f         1 677     -0.151900
      6 C5          1.8940   -0.5100   -1.0720 ca        1 677      0.109900
      7 F21         1.1410   -0.9330   -2.1070 f         1 677     -0.088900
      8 C4          3.2920   -0.4490   -1.1960 ca        1 677     -0.110000
      9 C3          4.0910   -0.0120   -0.1400 ca        1 677     -0.175300
     10 C9          5.5830   -0.0270   -0.2080 c3        1 677     -0.026400
     11 C10         6.1230   -1.1170   -1.1320 c3        1 677     -0.085700
     12 C14         6.1610    1.3330   -0.6640 c3        1 677      0.100500
     13 N23         5.5530    2.4730    0.0980 n4        1 677     -0.837600
     14 C13         7.7090    1.3380   -0.4750 c3        1 677      0.044300
     15 N12         8.2900    0.1940   -1.0930 na        1 677     -0.194300
     16 C11         7.6120   -1.0690   -1.2050 cc        1 677      0.385800
     17 N18         8.4450   -2.0820   -1.4640 nd        1 677     -0.487100
     18 C29         9.6600   -0.0880   -1.2180 ca        1 677     -0.010200
     19 C23        10.8060    0.7100   -1.1850 ca        1 677     -0.163000
     20 C22        12.0220    0.0830   -1.4240 ca        1 677      0.005000
     21 C19         9.7420   -1.5140   -1.4860 ca        1 677      0.039400
     22 C20        10.9880   -2.0980   -1.7310 ca        1 677      0.063000
     23 C21        12.1270   -1.2960   -1.6900 ca        1 677     -0.378500
     24 S24        13.6500   -1.9610   -2.0310 sy        1 677      1.396300
     25 O26        13.4830   -3.0640   -2.8720 o         1 677     -0.644300
     26 O25        14.5100   -0.9320   -2.4300 o         1 677     -0.644300
     27 C27        14.0810   -2.4880   -0.4880 c3        1 677     -0.369300
     28 H1          1.5960    0.6080    2.1740 ha        1 677      0.195000
     29 H4          3.7360   -0.7740   -2.1520 ha        1 677      0.177000
     30 H9          5.9760   -0.2410    0.8330 hc        1 677      0.099700
     31 H10         5.7900   -2.1210   -0.7480 hc        1 677      0.103700
     32 H10A        5.7250   -0.9980   -2.1760 hc        1 677      0.103700
     33 H14         5.9120    1.5000   -1.7560 hx        1 677      0.128700
     34 HN23        4.5390    2.4840   -0.0700 hn        1 677      0.467133
     35 HN2A        5.9650    3.3610   -0.2010 hn        1 677      0.467133
     36 H13         8.1490    2.2640   -0.9490 h1        1 677      0.069700
     37 H13A        7.9470    1.3570    0.6310 h1        1 677      0.069700
     38 H23        10.7530    1.7900   -0.9930 ha        1 677      0.144000
     39 H22        12.9470    0.6920   -1.4270 ha        1 677      0.173000
     40 H20        11.0630   -3.1750   -1.9760 ha        1 677      0.185000
     41 H27        13.3780   -3.2460   -0.0640 h1        1 677      0.121033
     42 H27A       14.1530   -1.6630    0.2610 h1        1 677      0.121033
     43 H27B       15.0890   -2.9810   -0.4980 h1        1 677      0.121033
     44 H233        5.7080    2.3420    1.1060 hn        1 677      0.467133
@<TRIPOS>BOND
     1    1    2 1   
     2    2    3 ar  
     3    2    6 ar  
     4    3    4 ar  
     5    3   28 1   
     6    4    5 1   
     7    4    9 ar  
     8    6    7 1   
     9    6    8 ar  
    10    8    9 ar  
    11    8   29 1   
    12    9   10 1   
    13   10   11 1   
    14   10   12 1   
    15   10   30 1   
    16   11   16 1   
    17   11   31 1   
    18   11   32 1   
    19   12   13 1   
    20   12   14 1   
    21   12   33 1   
    22   13   34 1   
    23   13   35 1   
    24   13   44 1   
    25   14   15 1   
    26   14   36 1   
    27   14   37 1   
    28   15   16 1   
    29   15   18 1   
    30   16   17 2   
    31   17   21 1   
    32   18   19 ar  
    33   18   21 ar  
    34   19   20 ar  
    35   19   38 1   
    36   20   23 ar  
    37   20   39 1   
    38   21   22 ar  
    39   22   23 ar  
    40   22   40 1   
    41   23   24 1   
    42   24   25 2   
    43   24   26 2   
    44   24   27 1   
    45   27   41 1   
    46   27   42 1   
    47   27   43 1   
@<TRIPOS>SUBSTRUCTURE
     1 677         1 TEMP              0 ****  ****    0 ROOT
