@<TRIPOS>MOLECULE
677
   44    47     1     0     0
SMALL
bcc


@<TRIPOS>ATOM
      1 F27        -0.0650   -0.2000    0.2710 f         1 677     -0.082900
      2 C6          1.2720   -0.1290    0.1410 ca        1 677      0.157900
      3 C1          2.0640    0.3100    1.2130 ca        1 677     -0.164000
      4 C2          3.4550    0.3770    1.0610 ca        1 677      0.096900
      5 F22         4.2080    0.8310    2.0990 f         1 677     -0.151900
      6 C5          1.8940   -0.4940   -1.0860 ca        1 677      0.109900
      7 F21         1.1430   -0.9030   -2.1280 f         1 677     -0.088900
      8 C4          3.2920   -0.4340   -1.2070 ca        1 677     -0.110000
      9 C3          4.0900   -0.0110   -0.1450 ca        1 677     -0.175300
     10 C9          5.5830   -0.0290   -0.2100 c3        1 677     -0.026400
     11 C10         6.1220   -1.1090   -1.1450 c3        1 677     -0.085700
     12 C14         6.1650    1.3360   -0.6490 c3        1 677      0.100500
     13 N23         5.5570    2.4680    0.1250 n4        1 677     -0.837600
     14 C13         7.7120    1.3350   -0.4570 c3        1 677      0.044300
     15 N12         8.2920    0.1970   -1.0870 na        1 677     -0.194300
     16 C11         7.6110   -1.0630   -1.2140 cc        1 677      0.385800
     17 N18         8.4430   -2.0750   -1.4840 nd        1 677     -0.487100
     18 C29         9.6620   -0.0870   -1.2120 ca        1 677     -0.010200
     19 C23        10.8090    0.7090   -1.1680 ca        1 677     -0.163000
     20 C22        12.0240    0.0830   -1.4110 ca        1 677      0.005000
     21 C19         9.7420   -1.5090   -1.4960 ca        1 677      0.039400
     22 C20        10.9860   -2.0930   -1.7450 ca        1 677      0.063000
     23 C21        12.1270   -1.2940   -1.6930 ca        1 677     -0.378500
     24 S24        13.6490   -1.9580   -2.0390 sy        1 677      1.396300
     25 O26        13.4820   -3.0520   -2.8920 o         1 677     -0.644300
     26 O25        14.5110   -0.9260   -2.4250 o         1 677     -0.644300
     27 C27        14.0770   -2.5020   -0.5010 c3        1 677     -0.369300
     28 H1          1.5920    0.5870    2.1710 ha        1 677      0.195000
     29 H4          3.7380   -0.7490   -2.1660 ha        1 677      0.177000
     30 H9          5.9730   -0.2550    0.8290 hc        1 677      0.099700
     31 H10         5.7870   -2.1170   -0.7730 hc        1 677      0.103700
     32 H10A        5.7270   -0.9770   -2.1890 hc        1 677      0.103700
     33 H14         5.9180    1.5160   -1.7400 hx        1 677      0.128700
     34 HN23        4.5430    2.4830   -0.0440 hn        1 677      0.467133
     35 HN2A        5.7100    2.3250    1.1320 hn        1 677      0.467133
     36 H13         7.9480    1.3410    0.6500 h1        1 677      0.069700
     37 H13A        8.1540    2.2660   -0.9190 h1        1 677      0.069700
     38 H23        10.7580    1.7870   -0.9630 ha        1 677      0.144000
     39 H22        12.9510    0.6890   -1.4060 ha        1 677      0.173000
     40 H20        11.0600   -3.1670   -2.0020 ha        1 677      0.185000
     41 H27        15.0860   -2.9930   -0.5140 h1        1 677      0.121033
     42 H27A       14.1460   -1.6860    0.2580 h1        1 677      0.121033
     43 H27B       13.3730   -3.2660   -0.0870 h1        1 677      0.121033
     44 H233        5.9710    3.3580   -0.1630 hn        1 677      0.467133
@<TRIPOS>BOND
     1    1    2 1   
     2    2    3 ar  
     3    2    6 ar  
     4    3    4 ar  
     5    3   28 1   
     6    4    5 1   
     7    4    9 ar  
     8    6    7 1   
     9    6    8 ar  
    10    8    9 ar  
    11    8   29 1   
    12    9   10 1   
    13   10   11 1   
    14   10   12 1   
    15   10   30 1   
    16   11   16 1   
    17   11   31 1   
    18   11   32 1   
    19   12   13 1   
    20   12   14 1   
    21   12   33 1   
    22   13   34 1   
    23   13   35 1   
    24   13   44 1   
    25   14   15 1   
    26   14   36 1   
    27   14   37 1   
    28   15   16 1   
    29   15   18 1   
    30   16   17 2   
    31   17   21 1   
    32   18   19 ar  
    33   18   21 ar  
    34   19   20 ar  
    35   19   38 1   
    36   20   23 ar  
    37   20   39 1   
    38   21   22 ar  
    39   22   23 ar  
    40   22   40 1   
    41   23   24 1   
    42   24   25 2   
    43   24   26 2   
    44   24   27 1   
    45   27   41 1   
    46   27   42 1   
    47   27   43 1   
@<TRIPOS>SUBSTRUCTURE
     1 677         1 TEMP              0 ****  ****    0 ROOT
