@<TRIPOS>MOLECULE
677
   43    40     1     0     0
SMALL
bcc


@<TRIPOS>ATOM
      1 F27        -7.7470    0.5360    1.2120 f         1 677     -0.082000
      2 C6         -6.4230    0.5130    1.2350 c2        1 677      0.090000
      3 C1         -5.7550    0.5150    2.4390 c2        1 677     -0.181000
      4 C2         -4.3620    0.5300    2.4600 c1        1 677      0.108000
      5 F22        -3.7070    0.4910    3.6300 f         1 677     -0.098000
      6 C5         -5.7020    0.5260    0.0290 c1        1 677      0.050000
      7 F21        -6.3460    0.3720   -1.1270 f         1 677     -0.085000
      8 C4         -4.3080    0.5420    0.0500 c1        1 677     -0.108000
      9 C3         -3.6390    0.5440    1.2460 c2        1 677     -0.081000
     10 C9         -1.9970    0.4420    1.2620 c3        1 677     -0.069000
     11 C10        -1.6280   -0.7980    0.7320 c3        1 677     -0.095000
     12 C14        -1.4660    1.6510    0.5650 c3        1 677     -0.027000
     13 N23        -1.8590    2.8540    1.3720 n3        1 677     -0.336000
     14 C13        -0.0300    1.7040    0.3510 c3        1 677     -0.058000
     15 N12         0.6880    0.3360    0.0390 n3        1 677     -0.190000
     16 C11        -0.1150   -0.9110    0.1450 c2        1 677      0.019000
     17 N18         0.6760   -1.9510   -0.2240 n2        1 677     -0.115000
     18 C29         1.9420   -0.0120   -0.3950 c1        1 677      0.036000
     19 C23         3.1000    0.7460   -0.6410 c1        1 677     -0.086500
     20 C22         4.2900    0.1040   -1.0610 c1        1 677     -0.086500
     21 C19         1.9730   -1.4260   -0.5690 c1        1 677     -0.104000
     22 C20         3.1550   -2.0540   -0.9850 c1        1 677      0.057000
     23 C21         4.3160   -1.2850   -1.2310 c1        1 677     -0.861000
     24 S24         5.8920   -2.0290   -1.4790 s4        1 677      2.081800
     25 O26         6.9150   -1.3560   -0.7070 o         1 677     -0.546900
     26 O25         5.9400   -3.3230   -0.9250 o         1 677     -0.546900
     27 C27         6.2930   -2.0550   -3.1820 c2        1 677     -0.935000
     28 H1         -6.2750    0.3880    3.3070 ha        1 677      0.173000
     29 H4         -3.8210    0.5520   -0.7660 ha        1 677      0.159000
     30 H9         -1.6980    0.4710    2.1980 hc        1 677      0.118000
     31 H10        -1.7250   -1.4610    1.4260 hc        1 677      0.124500
     32 H10A       -2.2580   -1.0200   -0.0000 hc        1 677      0.124500
     33 H14        -1.9250    1.7140   -0.3530 h1        1 677      0.114000
     34 HN23       -2.2700    3.4830    0.8110 hn        1 677      0.157000
     35 HN2A       -1.1150    3.2230    1.7510 hn        1 677      0.157000
     36 H13         0.1380    2.3060   -0.3940 h1        1 677      0.096500
     37 H13A        0.3890    2.0950    1.1660 h1        1 677      0.096500
     38 H23         3.0840    1.6820   -0.5280 ha        1 677      0.151000
     39 H22         5.1120    0.6420   -1.2350 ha        1 677      0.151000
     40 H20         3.1800   -3.0630   -1.1080 ha        1 677      0.171000
     41 H27         6.4400   -1.1530   -3.4910 ha        1 677      0.152000
     42 H27A        7.1220   -2.5940   -3.3210 ha        1 677      0.152000
     43 H27B        5.5280   -2.4700   -3.7010 ha        1 677      0.152000
@<TRIPOS>BOND
     1    1    2 1   
     2    2    3 1   
     3    2    6 1   
     4    3    4 1   
     5    3   28 1   
     6    4    9 1   
     7    6    7 1   
     8    8    9 1   
     9    8   29 1   
    10    9   10 1   
    11   10   11 1   
    12   10   12 1   
    13   10   30 1   
    14   11   16 1   
    15   11   31 1   
    16   11   32 1   
    17   12   13 1   
    18   12   14 1   
    19   12   33 1   
    20   13   34 1   
    21   13   35 1   
    22   14   15 1   
    23   14   36 1   
    24   14   37 1   
    25   15   16 1   
    26   15   18 1   
    27   16   17 1   
    28   17   21 1   
    29   18   21 1   
    30   19   20 1   
    31   19   38 1   
    32   20   39 1   
    33   22   23 1   
    34   22   40 1   
    35   23   24 1   
    36   24   25 1   
    37   24   26 1   
    38   27   41 1   
    39   27   42 1   
    40   27   43 1   
@<TRIPOS>SUBSTRUCTURE
     1 677         1 TEMP              0 ****  ****    0 ROOT
