@<TRIPOS>MOLECULE
677
   44    47     1     0     0
SMALL
bcc


@<TRIPOS>ATOM
      1 F27        -0.0640   -0.2060    0.2800 f         1 677     -0.082900
      2 C6          1.2730   -0.1340    0.1480 ca        1 677      0.157900
      3 C1          2.0660    0.3100    1.2170 ca        1 677     -0.164000
      4 C2          3.4570    0.3790    1.0630 ca        1 677      0.096900
      5 F22         4.2100    0.8380    2.0990 f         1 677     -0.151900
      6 C5          1.8940   -0.5040   -1.0790 ca        1 677      0.109900
      7 F21         1.1430   -0.9180   -2.1180 f         1 677     -0.088900
      8 C4          3.2920   -0.4430   -1.2010 ca        1 677     -0.110000
      9 C3          4.0900   -0.0130   -0.1420 ca        1 677     -0.175300
     10 C9          5.5830   -0.0290   -0.2090 c3        1 677     -0.027400
     11 C10         6.1230   -1.1130   -1.1390 c3        1 677     -0.085700
     12 C14         6.1620    1.3340   -0.6540 c3        1 677      0.100500
     13 N23         5.5540    2.4680    0.1150 nz        1 677     -0.837600
     14 C13         7.7100    1.3360   -0.4640 c3        1 677      0.044300
     15 N12         8.2910    0.1970   -1.0900 na        1 677     -0.194300
     16 C11         7.6120   -1.0650   -1.2110 cc        1 677      0.385800
     17 N18         8.4440   -2.0770   -1.4770 nd        1 677     -0.487100
     18 C29         9.6610   -0.0860   -1.2150 ca        1 677     -0.010200
     19 C23        10.8070    0.7120   -1.1750 ca        1 677     -0.163000
     20 C22        12.0230    0.0860   -1.4180 ca        1 677      0.005000
     21 C19         9.7430   -1.5100   -1.4930 ca        1 677      0.039400
     22 C20        10.9880   -2.0930   -1.7410 ca        1 677      0.063000
     23 C21        12.1280   -1.2910   -1.6940 ca        1 677     -0.378500
     24 S24        13.6500   -1.9550   -2.0380 sy        1 677      1.396300
     25 O26        13.4840   -3.0530   -2.8870 o         1 677     -0.644300
     26 O25        14.5110   -0.9240   -2.4290 o         1 677     -0.644300
     27 C27        14.0800   -2.4940   -0.4980 c3        1 677     -0.369300
     28 H1          1.5950    0.5910    2.1750 ha        1 677      0.195000
     29 H4          3.7370   -0.7610   -2.1590 ha        1 677      0.177000
     30 H9          5.9750   -0.2510    0.8310 hc        1 677      0.099700
     31 H10         5.7260   -0.9860   -2.1840 hc        1 677      0.103700
     32 H10A        5.7890   -2.1200   -0.7630 hc        1 677      0.103700
     33 H14         5.9140    1.5090   -1.7450 hx        1 677      0.128700
     34 HN23        5.9670    3.3580   -0.1770 hn        1 677      0.467133
     35 HN2A        5.7090    2.3300    1.1230 hn        1 677      0.467133
     36 H13         7.9470    1.3470    0.6420 h1        1 677      0.069700
     37 H13A        8.1500    2.2660   -0.9310 h1        1 677      0.069700
     38 H23        10.7550    1.7900   -0.9760 ha        1 677      0.144000
     39 H22        12.9490    0.6940   -1.4160 ha        1 677      0.173000
     40 H20        11.0630   -3.1670   -1.9930 ha        1 677      0.185000
     41 H27        13.3760   -3.2550   -0.0800 h1        1 677      0.121033
     42 H27A       15.0880   -2.9850   -0.5110 h1        1 677      0.121033
     43 H27B       14.1500   -1.6740    0.2580 h1        1 677      0.121033
     44 H233        4.5400    2.4810   -0.0530 hn        1 677      0.467133
@<TRIPOS>BOND
     1    1    2 1   
     2    2    3 ar  
     3    2    6 ar  
     4    3    4 ar  
     5    3   28 1   
     6    4    5 1   
     7    4    9 ar  
     8    6    7 1   
     9    6    8 ar  
    10    8    9 ar  
    11    8   29 1   
    12    9   10 1   
    13   10   11 1   
    14   10   12 1   
    15   10   30 1   
    16   11   16 1   
    17   11   31 1   
    18   11   32 1   
    19   12   13 1   
    20   12   14 1   
    21   12   33 1   
    22   13   34 1   
    23   13   35 1   
    24   13   44 1   
    25   14   15 1   
    26   14   36 1   
    27   14   37 1   
    28   15   16 1   
    29   15   18 1   
    30   16   17 2   
    31   17   21 1   
    32   18   19 ar  
    33   18   21 ar  
    34   19   20 ar  
    35   19   38 1   
    36   20   23 ar  
    37   20   39 1   
    38   21   22 ar  
    39   22   23 ar  
    40   22   40 1   
    41   23   24 1   
    42   24   25 2   
    43   24   26 2   
    44   24   27 1   
    45   27   41 1   
    46   27   42 1   
    47   27   43 1   
@<TRIPOS>SUBSTRUCTURE
     1 677         1 TEMP              0 ****  ****    0 ROOT
