@<TRIPOS>MOLECULE
677
   43    46     1     0     0
SMALL
bcc


@<TRIPOS>ATOM
      1 F27        -7.5820    0.9250   -0.3070 f         1 677     -0.112900
      2 C6         -6.2760    0.5820   -0.2990 ca        1 677      0.127900
      3 C1         -5.7660   -0.2770   -1.2800 ca        1 677     -0.184000
      4 C2         -4.4050   -0.6290   -1.2630 ca        1 677      0.151900
      5 F22        -3.9400   -1.4590   -2.2250 f         1 677     -0.122900
      6 C5         -5.4110    1.0920    0.7080 ca        1 677      0.082900
      7 F21        -5.8940    1.9210    1.6600 f         1 677     -0.116900
      8 C4         -4.0570    0.7290    0.7070 ca        1 677     -0.127000
      9 C3         -3.5390   -0.1280   -0.2650 ca        1 677     -0.115300
     10 C9         -2.0900   -0.4990   -0.2560 c3        1 677     -0.028400
     11 C10        -1.2410    0.7440   -0.5220 c3        1 677     -0.090700
     12 C14        -1.6730   -1.1570    1.0820 c3        1 677      0.174500
     13 N23        -2.5170   -2.2780    1.4490 n3        1 677     -0.917800
     14 C13        -0.2000   -1.6540    0.9550 c3        1 677      0.043300
     15 N12         0.6590   -0.6400    0.4230 na        1 677     -0.166300
     16 C11         0.2160    0.4770   -0.3410 cc        1 677      0.417800
     17 N18         1.2340    1.2270   -0.8030 nd        1 677     -0.544100
     18 C29         2.0500   -0.5950    0.4250 ca        1 677     -0.008200
     19 C23         3.0380   -1.4090    0.9980 ca        1 677     -0.157000
     20 C22         4.3560   -1.0420    0.7990 ca        1 677     -0.016000
     21 C19         2.4070    0.5900   -0.3440 ca        1 677      0.034400
     22 C20         3.7530    0.9190   -0.5100 ca        1 677      0.057000
     23 C21         4.7300    0.0980    0.0530 ca        1 677     -0.417500
     24 S24         6.3510    0.4710   -0.1160 sy        1 677      1.401300
     25 O26         6.5170    1.8500   -0.3060 o         1 677     -0.660300
     26 O25         7.0980   -0.1350    0.9070 o         1 677     -0.660300
     27 C27         6.6860   -0.3240   -1.5750 c3        1 677     -0.356300
     28 H1         -6.4290   -0.6740   -2.0640 ha        1 677      0.176000
     29 H4         -3.3990    1.1390    1.4910 ha        1 677      0.161000
     30 H9         -1.8980   -1.2460   -1.0800 hc        1 677      0.093700
     31 H10        -1.4250    1.1020   -1.5700 hc        1 677      0.083700
     32 H10A       -1.5350    1.5720    0.1790 hc        1 677      0.083700
     33 H14        -1.6910   -0.3460    1.8750 h1        1 677      0.027700
     34 HN23       -2.4010   -2.5000    2.4170 hn        1 677      0.366300
     35 HN2A       -3.4780   -2.0830    1.2550 hn        1 677      0.366300
     36 H13         0.1810   -1.9560    1.9710 h1        1 677      0.069200
     37 H13A       -0.1660   -2.5600    0.2800 h1        1 677      0.069200
     38 H23         2.7720   -2.2970    1.5860 ha        1 677      0.146000
     39 H22         5.1590   -1.6530    1.2540 ha        1 677      0.158000
     40 H20         4.0400    1.8290   -1.0690 ha        1 677      0.170000
     41 H27         6.0880    0.0690   -2.4330 h1        1 677      0.112700
     42 H27A        7.7610   -0.2020   -1.8610 h1        1 677      0.112700
     43 H27B        6.4960   -1.4230   -1.5280 h1        1 677      0.112700
@<TRIPOS>BOND
     1    1    2 1   
     2    2    3 ar  
     3    2    6 ar  
     4    3    4 ar  
     5    3   28 1   
     6    4    5 1   
     7    4    9 ar  
     8    6    7 1   
     9    6    8 ar  
    10    8    9 ar  
    11    8   29 1   
    12    9   10 1   
    13   10   11 1   
    14   10   12 1   
    15   10   30 1   
    16   11   16 1   
    17   11   31 1   
    18   11   32 1   
    19   12   13 1   
    20   12   14 1   
    21   12   33 1   
    22   13   34 1   
    23   13   35 1   
    24   14   15 1   
    25   14   36 1   
    26   14   37 1   
    27   15   16 1   
    28   15   18 1   
    29   16   17 2   
    30   17   21 1   
    31   18   19 ar  
    32   18   21 ar  
    33   19   20 ar  
    34   19   38 1   
    35   20   23 ar  
    36   20   39 1   
    37   21   22 ar  
    38   22   23 ar  
    39   22   40 1   
    40   23   24 1   
    41   24   25 2   
    42   24   26 2   
    43   24   27 1   
    44   27   41 1   
    45   27   42 1   
    46   27   43 1   
@<TRIPOS>SUBSTRUCTURE
     1 677         1 TEMP              0 ****  ****    0 ROOT
