@<TRIPOS>MOLECULE
678
   37    39     1     0     0
SMALL
bcc


@<TRIPOS>ATOM
      1 C1          5.3230    0.1140   -0.0910 ca        1 678     -0.292900
      2 C2          5.0750    1.4900   -0.3340 ca        1 678     -0.108000
      3 C3          3.7980    2.0150   -0.2840 ca        1 678     -0.168000
      4 C4          2.7270    1.1540    0.0020 ca        1 678      0.068000
      5 C5          2.9620   -0.2860    0.2560 ca        1 678     -0.024000
      6 C6          4.2540   -0.7680    0.2040 ca        1 678     -0.135000
      7 C7          6.6760   -0.3960   -0.1420 ce        1 678      0.509400
      8 N1          7.0350   -1.4570    0.6450 nh        1 678     -0.521100
      9 N2          7.6010    0.1830   -0.9700 nh        1 678     -0.505200
     10 N3          1.3830    1.3850    0.1050 na        1 678     -0.215600
     11 CN4         1.6940   -0.8660    0.5060 cc        1 678     -0.312000
     12 C8          0.7070    0.1610    0.4110 cc        1 678      0.160900
     13 C1'        -0.6920    0.0920    0.5530 cd        1 678     -0.317200
     14 C2'        -1.4720    1.2800    0.5170 cd        1 678     -0.047000
     15 C3'        -2.8430    1.2670    0.5230 cc        1 678     -0.148200
     16 CV'        -3.6320    2.5240    0.4830 c3        1 678     -0.142200
     17 CW'        -3.0190    3.6550   -0.3650 c         1 678      0.914600
     18 OX'        -1.8570    4.0870   -0.0910 o         1 678     -0.858800
     19 OY'        -3.7310    4.1470   -1.2860 o         1 678     -0.858800
     20 C4'        -3.5060    0.0080    0.5950 cc        1 678     -0.018000
     21 C5'        -2.8090   -1.1620    0.6910 cd        1 678     -0.197500
     22 C6'        -1.3440   -1.2020    0.7030 c         1 678      0.600500
     23 O6'        -0.7050   -2.2760    0.8240 o         1 678     -0.670100
     24 BR5'       -3.7870   -2.7730    0.8100 br        1 678     -0.153700
     25 HC2         5.9090    2.1820   -0.5200 ha        1 678      0.104000
     26 HC3         3.6240    3.0870   -0.4580 ha        1 678      0.145000
     27 HC6         4.4180   -1.8460    0.3420 ha        1 678      0.120000
     28 HH11        7.8910   -1.9410    0.5290 hn        1 678      0.299950
     29 HH12        6.3330   -1.8640    1.2240 hn        1 678      0.299950
     30 HH21        7.3100    0.9510   -1.5310 hn        1 678      0.299950
     31 HH22        8.5600   -0.0560   -0.9510 hn        1 678      0.299950
     32 HN3         0.9230    2.2520   -0.0490 hn        1 678      0.334700
     33 HCN4        1.4630   -1.9060    0.7250 ha        1 678      0.195000
     34 HC2'       -0.9930    2.2770    0.4800 ha        1 678      0.165000
     35 H31B       -3.7370    2.9170    1.5300 hc        1 678      0.028200
     36 H31A       -4.6620    2.3140    0.0920 hc        1 678      0.028200
     37 HC4'       -4.6090    0.0110    0.5740 ha        1 678      0.120000
@<TRIPOS>BOND
     1    1    2 ar  
     2    1    6 ar  
     3    1    7 1   
     4    2    3 ar  
     5    2   25 1   
     6    3    4 ar  
     7    3   26 1   
     8    4    5 ar  
     9    4   10 2   
    10    5    6 ar  
    11    5   11 2   
    12    6   27 1   
    13    7    8 2   
    14    7    9 1   
    15    8   28 1   
    16    8   29 1   
    17    9   30 1   
    18    9   31 1   
    19   10   12 1   
    20   10   32 1   
    21   11   12 1   
    22   11   33 1   
    23   12   13 2   
    24   13   14 1   
    25   13   22 1   
    26   14   15 2   
    27   14   34 1   
    28   15   16 1   
    29   15   20 1   
    30   16   17 1   
    31   16   35 1   
    32   16   36 1   
    33   17   18 1   
    34   17   19 1   
    35   20   21 2   
    36   20   37 1   
    37   21   22 1   
    38   21   24 1   
    39   22   23 2   
@<TRIPOS>SUBSTRUCTURE
     1 678         1 TEMP              0 ****  ****    0 ROOT
