@<TRIPOS>MOLECULE
678
   37    28     1     0     0
SMALL
bcc


@<TRIPOS>ATOM
      1 C1          0.0630   -0.3930   -3.9190 c1        1 678     -0.213000
      2 C2          1.4630   -0.3790   -3.8720 c1        1 678     -0.140000
      3 C3          2.1090   -0.3450   -2.6580 c1        1 678     -0.140000
      4 C4          1.3680   -0.3260   -1.4660 c1        1 678      0.011500
      5 C5         -0.0090   -0.3400   -1.5090 c1        1 678      0.011500
      6 C6         -0.6690   -0.3740   -2.7380 c1        1 678     -0.113000
      7 C7         -0.7650   -0.4800   -5.2610 c2        1 678      0.339000
      8 N1         -1.1120    0.7080   -5.9620 n3        1 678     -0.370000
      9 N2         -1.1430   -1.6840   -5.7460 n2        1 678     -0.358000
     10 N3          1.7530   -0.2940   -0.1450 n1        1 678     -0.182000
     11 CN4        -0.4700   -0.3190   -0.2160 c1        1 678     -0.314000
     12 C8          0.6260   -0.2900    0.6260 c2        1 678      0.191000
     13 C1'         0.3860   -0.3080    2.0450 c1        1 678     -0.302000
     14 C2'         0.4230    0.8670    2.7660 c1        1 678     -0.012000
     15 C3'         0.1530    0.8510    4.1500 c1        1 678     -0.153000
     16 CV'         0.2160    2.1370    4.9480 c2        1 678     -0.174000
     17 CW'        -1.1920    2.5730    5.3220 c2        1 678      0.332000
     18 OX'        -2.1490    2.4420    4.4720 o         1 678     -0.592000
     19 OY'        -1.4410    2.9370    6.4830 o         1 678     -0.592000
     20 C4'        -0.1520   -0.3610    4.7900 c2        1 678     -0.010000
     21 C5'        -0.1880   -1.5580    4.0500 c1        1 678     -0.315000
     22 C6'         0.0740   -1.5420    2.7000 c1        1 678      0.317000
     23 O6'         0.1310   -2.7900    1.9610 o         1 678     -0.490000
     24 BR5'       -0.6140   -3.2150    4.9150 br        1 678     -0.029000
     25 HC2         1.9460   -0.3930   -4.6420 ha        1 678      0.120000
     26 HC3         3.0480   -0.3350   -2.6270 ha        1 678      0.120000
     27 HC6        -1.6490   -0.3830   -2.7670 ha        1 678      0.127000
     28 HH11       -0.6960    1.5300   -5.7290 hn        1 678      0.250500
     29 HH12       -1.7590    0.6950   -6.5970 hn        1 678      0.250500
     30 HH21       -0.9310   -2.4730   -5.3130 DU        1 678      0.255000
     31 HH22       -1.6060   -1.7230   -6.5000 hn        1 678      0.234000
     32 HN3         2.6060   -0.2780    0.1610 DU        1 678      0.255000
     33 HCN4       -1.4510   -0.3210    0.0740 DU        1 678      0.255000
     34 HC2'        0.6190    1.7400    2.3010 ha        1 678      0.180000
     35 H31B        0.6190    2.7990    4.4310 ha        1 678      0.065500
     36 H31A        0.7290    1.9960    5.7430 ha        1 678      0.065500
     37 HC4'       -0.3350   -0.3730    5.7290 ha        1 678      0.119000
@<TRIPOS>BOND
     1    1    6 1   
     2    1    7 1   
     3    2    3 1   
     4    2   25 1   
     5    3   26 1   
     6    4    5 1   
     7    6   27 1   
     8    7    8 1   
     9    7    9 1   
    10    8   28 1   
    11    8   29 1   
    12    9   31 1   
    13   10   12 1   
    14   11   12 1   
    15   12   13 1   
    16   13   22 1   
    17   14   15 1   
    18   14   34 1   
    19   15   20 1   
    20   16   17 1   
    21   16   35 1   
    22   16   36 1   
    23   17   18 1   
    24   17   19 1   
    25   20   21 1   
    26   20   37 1   
    27   21   24 1   
    28   22   23 1   
@<TRIPOS>SUBSTRUCTURE
     1 678         1 TEMP              0 ****  ****    0 ROOT
