@<TRIPOS>MOLECULE
678
   37    39     1     0     0
SMALL
bcc


@<TRIPOS>ATOM
      1 C1          0.0950    0.0620    0.0540 ca        1 678     -0.292900
      2 C2          1.4540   -0.3310    0.1540 ca        1 678     -0.108000
      3 C3          2.0580   -0.5440    1.3790 ca        1 678     -0.168000
      4 C4          1.3020   -0.3510    2.5450 ca        1 678      0.068000
      5 C5         -0.1190    0.0610    2.4650 ca        1 678     -0.024000
      6 C6         -0.6860    0.2560    1.2220 ca        1 678     -0.135000
      7 C7         -0.5060    0.2650   -1.2470 ce        1 678      0.509400
      8 N1         -1.8410    0.0250   -1.4270 nh        1 678     -0.521100
      9 N2          0.2600    0.6900   -2.3000 nh        1 678     -0.505200
     10 N3          1.6290   -0.4740    3.8670 na        1 678     -0.215600
     11 CN4        -0.5850    0.1710    3.7980 cc        1 678     -0.312000
     12 C8          0.4910   -0.1570    4.6760 cc        1 678      0.160900
     13 C1'         0.5430   -0.1760    6.0830 cd        1 678     -0.317200
     14 C2'         1.7110   -0.6390    6.7480 cd        1 678     -0.047000
     15 C3'         1.8690   -0.5640    8.1070 cc        1 678     -0.148200
     16 CV'         3.1010   -1.0550    8.7750 c3        1 678     -0.142200
     17 CW'         4.4040   -0.8450    7.9800 c         1 678      0.914600
     18 OX'         4.5200   -1.3470    6.8190 o         1 678     -0.858800
     19 OY'         5.3380   -0.2090    8.5460 o         1 678     -0.858800
     20 C4'         0.8030   -0.0230    8.8820 cc        1 678     -0.018000
     21 C5'        -0.3660    0.3830    8.3040 cd        1 678     -0.197500
     22 C6'        -0.5900    0.3120    6.8580 c         1 678      0.600500
     23 O6'        -1.6770    0.6550    6.3310 o         1 678     -0.670100
     24 BR5'       -1.7260    1.0590    9.4260 br        1 678     -0.153700
     25 HC2         2.0460   -0.5240   -0.7520 ha        1 678      0.104000
     26 HC3         3.1080   -0.8640    1.4390 ha        1 678      0.145000
     27 HC6        -1.7230    0.6120    1.1680 ha        1 678      0.120000
     28 HH11       -2.3700   -0.2690   -0.6350 hn        1 678      0.299950
     29 HH12       -2.3260    0.3000   -2.2450 hn        1 678      0.299950
     30 HH21        1.2260    0.8580   -2.1380 hn        1 678      0.299950
     31 HH22       -0.0820    0.7290   -3.2280 hn        1 678      0.299950
     32 HN3         2.5250   -0.7050    4.2310 hn        1 678      0.334700
     33 HCN4       -1.5760    0.4590    4.1410 ha        1 678      0.195000
     34 HC2'        2.5520   -1.0830    6.1810 ha        1 678      0.165000
     35 H31B        2.9990   -2.1590    8.9540 hc        1 678      0.028200
     36 H31A        3.2170   -0.5560    9.7720 hc        1 678      0.028200
     37 HC4'        0.9530    0.0530    9.9730 ha        1 678      0.120000
@<TRIPOS>BOND
     1    1    2 ar  
     2    1    6 ar  
     3    1    7 1   
     4    2    3 ar  
     5    2   25 1   
     6    3    4 ar  
     7    3   26 1   
     8    4    5 ar  
     9    4   10 2   
    10    5    6 ar  
    11    5   11 2   
    12    6   27 1   
    13    7    8 2   
    14    7    9 1   
    15    8   28 1   
    16    8   29 1   
    17    9   30 1   
    18    9   31 1   
    19   10   12 1   
    20   10   32 1   
    21   11   12 1   
    22   11   33 1   
    23   12   13 2   
    24   13   14 1   
    25   13   22 1   
    26   14   15 2   
    27   14   34 1   
    28   15   16 1   
    29   15   20 1   
    30   16   17 1   
    31   16   35 1   
    32   16   36 1   
    33   17   18 1   
    34   17   19 1   
    35   20   21 2   
    36   20   37 1   
    37   21   22 1   
    38   21   24 1   
    39   22   23 2   
@<TRIPOS>SUBSTRUCTURE
     1 678         1 TEMP              0 ****  ****    0 ROOT
