@<TRIPOS>MOLECULE
679
   34    30     1     0     0
SMALL
bcc


@<TRIPOS>ATOM
      1 C1          1.9340    2.3880   -0.0810 c1        1 679     -0.121000
      2 C2          3.3130    2.5270   -0.1760 c1        1 679     -0.131500
      3 C3          4.0470    1.6490   -0.9620 c1        1 679     -0.131500
      4 C4          3.4030    0.6320   -1.6540 c1        1 679     -0.054000
      5 C5          2.0230    0.4930   -1.5600 c1        1 679     -0.146000
      6 C6          1.2890    1.3700   -0.7740 c1        1 679      0.040000
      7 CL7         4.3270   -0.4790   -2.6310 cl        1 679     -0.022000
      8 C8         -0.2450    1.2990   -0.7760 c2        1 679     -0.317000
      9 C9         -0.5060    1.1110    0.0700 c1        1 679      0.123000
     10 C10        -0.7310    2.3060    0.7910 c1        1 679      0.338000
     11 C11        -1.0610    2.8670   -1.2900 c2        1 679      0.382000
     12 O12        -2.2550    2.8960   -1.5140 o         1 679     -0.335000
     13 O13        -1.0940    2.4210    1.9380 o         1 679     -0.278000
     14 N14        -0.7750    3.4750   -0.4360 n         1 679     -0.412000
     15 N15         0.0120   -0.0510    0.7430 n3        1 679     -0.196000
     16 C16        -0.8420   -1.2000    0.9660 c2        1 679     -0.011000
     17 C17        -0.9870   -1.7190    2.2490 c2        1 679     -0.132000
     18 C18        -1.7220   -2.8820    2.4500 c1        1 679     -0.134000
     19 C19        -2.3120   -3.5260    1.3710 c1        1 679     -0.035000
     20 C20        -2.1670   -3.0080    0.0890 c1        1 679     -0.060000
     21 C21        -1.4310   -1.8430   -0.1130 c1        1 679     -0.119000
     22 CL2        -3.2640   -4.9690    1.6290 cl        1 679     -0.018000
     23 C23        -2.8050   -3.7150   -1.0890 c2        1 679      0.367000
     24 O24        -3.8350   -3.2340   -1.6290 o         1 679     -0.538500
     25 O25        -2.3510   -4.8250   -1.4760 o         1 679     -0.538500
     26 HC1         1.4170    3.0080    0.4740 ha        1 679      0.150000
     27 HC2         3.7700    3.2060    0.3490 ha        1 679      0.134000
     28 HC3         5.0160    1.7460   -1.0280 ha        1 679      0.134000
     29 HC5         1.5750   -0.2150   -2.0420 ha        1 679      0.149000
     30 H14        -0.9480    4.3620   -0.3050 hn        1 679      0.255000
     31 H15         0.8440   -0.0400    1.0790 hn        1 679      0.252000
     32 H17        -0.5280   -1.2920    3.0050 ha        1 679      0.130000
     33 H18        -1.8240   -3.2460    3.3490 ha        1 679      0.131000
     34 H21        -1.2890   -1.5080   -1.0170 ha        1 679      0.146000
@<TRIPOS>BOND
     1    1    6 1   
     2    1   26 1   
     3    2    3 1   
     4    2   27 1   
     5    3   28 1   
     6    4    5 1   
     7    4    7 1   
     8    5   29 1   
     9    6    8 1   
    10    8    9 1   
    11    8   11 1   
    12    9   15 1   
    13   10   13 1   
    14   10   14 1   
    15   11   12 1   
    16   11   14 1   
    17   14   30 1   
    18   15   16 1   
    19   15   31 1   
    20   16   17 1   
    21   16   21 1   
    22   17   18 1   
    23   17   32 1   
    24   18   33 1   
    25   19   20 1   
    26   19   22 1   
    27   20   23 1   
    28   21   34 1   
    29   23   24 1   
    30   23   25 1   
@<TRIPOS>SUBSTRUCTURE
     1 679         1 TEMP              0 ****  ****    0 ROOT
