@<TRIPOS>MOLECULE
679
   34    36     1     0     0
SMALL
bcc


@<TRIPOS>ATOM
      1 C1         -0.0260   -0.1570   -0.2390 ca        1 679     -0.119000
      2 C2          1.3480   -0.2250   -0.4380 ca        1 679     -0.120000
      3 C3          2.2270   -0.1360    0.6420 ca        1 679     -0.140000
      4 C4          1.7060    0.0400    1.9250 ca        1 679      0.024400
      5 C5          0.3270    0.1130    2.1410 ca        1 679     -0.146000
      6 C6         -0.5560   -0.0030    1.0550 ca        1 679      0.026200
      7 Cl7         2.7670    0.1740    3.2520 cl        1 679     -0.106400
      8 C8         -1.9810    0.0460    1.2460 cc        1 679     -0.319400
      9 C9         -2.7440   -0.5060    2.2810 cd        1 679      0.181800
     10 C10        -4.2120   -0.1300    2.0060 c         1 679      0.699700
     11 C11        -2.8920    0.7110    0.2820 c         1 679      0.743700
     12 O12        -2.6520    1.2880   -0.7840 o         1 679     -0.609500
     13 O13        -5.2140   -0.3630    2.6810 o         1 679     -0.553500
     14 N14        -4.2150    0.5780    0.7940 ns        1 679     -0.632500
     15 N15        -2.2930   -1.2330    3.3180 nu        1 679     -0.562400
     16 C16        -3.0470   -1.8890    4.3260 ca        1 679      0.067600
     17 C17        -4.0160   -1.2110    5.0890 ca        1 679     -0.130000
     18 C18        -4.6670   -1.8780    6.1210 ca        1 679     -0.135000
     19 C19        -4.3560   -3.2100    6.4120 ca        1 679      0.043400
     20 C20        -3.3930   -3.9000    5.6670 ca        1 679     -0.080600
     21 C21        -2.7450   -3.2340    4.6250 ca        1 679     -0.121000
     22 Cl2        -5.1780   -3.9680    7.6960 cl        1 679     -0.097400
     23 C23        -2.9980   -5.3570    5.9430 c         1 679      0.918200
     24 O24        -3.6750   -6.2530    5.3770 o         1 679     -0.804300
     25 O25        -2.0010   -5.5420    6.6880 o         1 679     -0.804300
     26 HC1        -0.7160   -0.2070   -1.0970 ha        1 679      0.152000
     27 HC2         1.7480   -0.3510   -1.4550 ha        1 679      0.131000
     28 HC3         3.3130   -0.2000    0.4830 ha        1 679      0.139000
     29 HC5        -0.0550    0.2960    3.1560 ha        1 679      0.148000
     30 H14        -5.0260    0.9330    0.3610 hn        1 679      0.341500
     31 H15        -1.3320   -1.5170    3.2690 hn        1 679      0.454800
     32 H17        -4.2810   -0.1680    4.8640 ha        1 679      0.132000
     33 H18        -5.4300   -1.3450    6.7080 ha        1 679      0.131000
     34 H21        -1.9880   -3.7890    4.0490 ha        1 679      0.147000
@<TRIPOS>BOND
     1    1    2 ar  
     2    1    6 ar  
     3    1   26 1   
     4    2    3 ar  
     5    2   27 1   
     6    3    4 ar  
     7    3   28 1   
     8    4    5 ar  
     9    4    7 1   
    10    5    6 ar  
    11    5   29 1   
    12    6    8 1   
    13    8    9 2   
    14    8   11 1   
    15    9   10 1   
    16    9   15 1   
    17   10   13 2   
    18   10   14 1   
    19   11   12 2   
    20   11   14 1   
    21   14   30 1   
    22   15   16 1   
    23   15   31 1   
    24   16   17 ar  
    25   16   21 ar  
    26   17   18 ar  
    27   17   32 1   
    28   18   19 ar  
    29   18   33 1   
    30   19   20 ar  
    31   19   22 1   
    32   20   21 ar  
    33   20   23 1   
    34   21   34 1   
    35   23   24 1   
    36   23   25 1   
@<TRIPOS>SUBSTRUCTURE
     1 679         1 TEMP              0 ****  ****    0 ROOT
