@<TRIPOS>MOLECULE
679
   35    37     1     0     0
SMALL
bcc


@<TRIPOS>ATOM
      1 C1          0.0740    0.0840    0.3290 ca        1 679     -0.074000
      2 C2          1.4450   -0.1210    0.4450 ca        1 679     -0.128000
      3 C3          1.9710   -0.7920    1.5480 ca        1 679     -0.076000
      4 C4          1.1130   -1.2590    2.5530 ca        1 679      0.003400
      5 C5         -0.2680   -1.0640    2.4420 ca        1 679     -0.100000
      6 C6         -0.7990   -0.4050    1.3200 ca        1 679     -0.130800
      7 CL7         1.7260   -2.0580    3.9020 cl        1 679      0.014600
      8 C8         -2.2140   -0.2100    1.1820 cc        1 679      0.074600
      9 C9         -3.2780   -0.9970    1.5350 cd        1 679     -0.174200
     10 C10        -4.5760   -0.3180    1.1200 c         1 679      0.721700
     11 C11        -2.7990    1.0340    0.4980 c         1 679      0.698700
     12 O12        -2.1950    1.9860    0.0150 o         1 679     -0.507500
     13 O13        -5.7120   -0.7670    1.2670 o         1 679     -0.552500
     14 N14        -4.2060    0.8900    0.5110 n         1 679     -0.602500
     15 N15        -3.3190   -2.2900    2.1670 n4        1 679     -0.463200
     16 C16        -3.4180   -2.2560    3.6370 ca        1 679     -0.103400
     17 C17        -4.4790   -1.5810    4.2630 ca        1 679     -0.117000
     18 C18        -4.5460   -1.5890    5.6500 ca        1 679     -0.134000
     19 C19        -3.5790   -2.2640    6.4150 ca        1 679      0.082400
     20 C20        -2.5370   -2.9590    5.7850 ca        1 679     -0.100600
     21 C21        -2.4570   -2.9450    4.3910 ca        1 679     -0.097000
     22 CL2        -3.7050   -2.1920    8.0960 cl        1 679     -0.023400
     23 C23        -1.4150   -3.7560    6.5000 c         1 679      0.922200
     24 O24        -0.2630   -3.5560    6.0370 o         1 679     -0.776800
     25 O25        -1.7530   -4.5480    7.4050 o         1 679     -0.776800
     26 HC1        -0.3290    0.6350   -0.5360 ha        1 679      0.157000
     27 HC2         2.1210    0.2580   -0.3380 ha        1 679      0.154000
     28 HC3         3.0590   -0.9470    1.6360 ha        1 679      0.164000
     29 HC5        -0.9220   -1.3920    3.2690 ha        1 679      0.170000
     30 H14        -4.8460    1.5630    0.1640 hn        1 679      0.372500
     31 H15        -2.4670   -2.8130    1.9120 hn        1 679      0.463800
     32 H17        -5.2500   -1.0580    3.6750 ha        1 679      0.147000
     33 H18        -5.3730   -1.0580    6.1500 ha        1 679      0.157000
     34 H21        -1.6050   -3.4830    3.9340 ha        1 679      0.173000
     35 H152       -4.1510   -2.7850    1.8090 hn        1 679      0.463800
@<TRIPOS>BOND
     1    1    2 ar  
     2    1    6 ar  
     3    1   26 1   
     4    2    3 ar  
     5    2   27 1   
     6    3    4 ar  
     7    3   28 1   
     8    4    5 ar  
     9    4    7 1   
    10    5    6 ar  
    11    5   29 1   
    12    6    8 1   
    13    8    9 2   
    14    8   11 1   
    15    9   10 1   
    16    9   15 1   
    17   10   13 2   
    18   10   14 1   
    19   11   12 2   
    20   11   14 1   
    21   14   30 1   
    22   15   16 1   
    23   15   31 1   
    24   15   35 1   
    25   16   17 ar  
    26   16   21 ar  
    27   17   18 ar  
    28   17   32 1   
    29   18   19 ar  
    30   18   33 1   
    31   19   20 ar  
    32   19   22 1   
    33   20   21 ar  
    34   20   23 1   
    35   21   34 1   
    36   23   24 1   
    37   23   25 1   
@<TRIPOS>SUBSTRUCTURE
     1 679         1 TEMP              0 ****  ****    0 ROOT
