@<TRIPOS>MOLECULE
679
   34    36     1     0     0
SMALL
bcc


@<TRIPOS>ATOM
      1 C1          0.1820   -1.2920   -4.2740 ca        1 679     -0.119000
      2 C2          1.3660   -1.5170   -4.9690 ca        1 679     -0.120000
      3 C3          2.5290   -0.8240   -4.6340 ca        1 679     -0.140000
      4 C4          2.4830    0.1140   -3.6010 ca        1 679      0.024400
      5 C5          1.3010    0.3540   -2.8960 ca        1 679     -0.146000
      6 C6          0.1390   -0.3640   -3.2170 ca        1 679      0.026200
      7 CL7         3.8890    0.9870   -3.1960 cl        1 679     -0.106400
      8 C8         -1.0880   -0.1570   -2.4950 cc        1 679     -0.319400
      9 C9         -1.2720    0.0620   -1.1250 cd        1 679      0.181800
     10 C10        -2.7830    0.2480   -0.8980 c         1 679      0.699700
     11 C11        -2.4170   -0.1810   -3.1570 c         1 679      0.743700
     12 O12        -2.7230   -0.3790   -4.3380 o         1 679     -0.609500
     13 O13        -3.3860    0.5090    0.1420 o         1 679     -0.553500
     14 N14        -3.3920    0.0730   -2.1500 n         1 679     -0.632500
     15 N15        -0.3170    0.0980   -0.1790 nh        1 679     -0.562400
     16 C16        -0.4770    0.2160    1.2270 ca        1 679      0.067600
     17 C17        -1.2330    1.2530    1.8030 ca        1 679     -0.130000
     18 C18        -1.2880    1.3750    3.1880 ca        1 679     -0.135000
     19 C19        -0.5890    0.4820    4.0070 ca        1 679      0.043400
     20 C20         0.1720   -0.5530    3.4510 ca        1 679     -0.080600
     21 C21         0.2210   -0.6810    2.0620 ca        1 679     -0.121000
     22 CL2        -0.6860    0.6900    5.6930 cl        1 679     -0.097400
     23 C23         0.9710   -1.5570    4.2930 c         1 679      0.918200
     24 O24         0.3670   -2.5870    4.6860 o         1 679     -0.804300
     25 O25         2.1840   -1.2880    4.4940 o         1 679     -0.804300
     26 HC1        -0.7390   -1.8270   -4.5550 ha        1 679      0.152000
     27 HC2         1.3870   -2.2500   -5.7890 ha        1 679      0.131000
     28 HC3         3.4650   -1.0110   -5.1790 ha        1 679      0.139000
     29 HC5         1.2820    1.1300   -2.1150 ha        1 679      0.148000
     30 H14        -4.3640    0.1220   -2.3060 hn        1 679      0.341500
     31 H15         0.5990   -0.1930   -0.4690 hn        1 679      0.454800
     32 H17        -1.8000    1.9540    1.1740 ha        1 679      0.132000
     33 H18        -1.8890    2.1820    3.6320 ha        1 679      0.131000
     34 H21         0.8260   -1.4990    1.6400 ha        1 679      0.147000
@<TRIPOS>BOND
     1    1    2 ar  
     2    1    6 ar  
     3    1   26 1   
     4    2    3 ar  
     5    2   27 1   
     6    3    4 ar  
     7    3   28 1   
     8    4    5 ar  
     9    4    7 1   
    10    5    6 ar  
    11    5   29 1   
    12    6    8 1   
    13    8    9 2   
    14    8   11 1   
    15    9   10 1   
    16    9   15 1   
    17   10   13 2   
    18   10   14 1   
    19   11   12 2   
    20   11   14 1   
    21   14   30 1   
    22   15   16 1   
    23   15   31 1   
    24   16   17 ar  
    25   16   21 ar  
    26   17   18 ar  
    27   17   32 1   
    28   18   19 ar  
    29   18   33 1   
    30   19   20 ar  
    31   19   22 1   
    32   20   21 ar  
    33   20   23 1   
    34   21   34 1   
    35   23   24 1   
    36   23   25 1   
@<TRIPOS>SUBSTRUCTURE
     1 679         1 TEMP              0 ****  ****    0 ROOT
