@<TRIPOS>MOLECULE
679
   34    36     1     0     0
SMALL
bcc


@<TRIPOS>ATOM
      1 C1         -0.0280   -0.1610   -0.2420 ca        1 679     -0.119000
      2 C2          1.3480   -0.2110   -0.4340 ca        1 679     -0.120000
      3 C3          2.2210   -0.0980    0.6490 ca        1 679     -0.140000
      4 C4          1.6910    0.0840    1.9280 ca        1 679      0.024400
      5 C5          0.3100    0.1390    2.1360 ca        1 679     -0.146000
      6 C6         -0.5660   -0.0010    1.0480 ca        1 679      0.026200
      7 CL7         2.7440    0.2480    3.2570 cl        1 679     -0.106400
      8 C8         -1.9920    0.0280    1.2320 cc        1 679     -0.319400
      9 C9         -2.7520   -0.5230    2.2690 cd        1 679      0.181800
     10 C10        -4.2240   -0.1720    1.9840 c         1 679      0.699700
     11 C11        -2.9090    0.6690    0.2570 c         1 679      0.743700
     12 O12        -2.6720    1.2380   -0.8150 o         1 679     -0.609500
     13 O13        -5.2260   -0.4130    2.6570 o         1 679     -0.553500
     14 N14        -4.2310    0.5220    0.7650 n         1 679     -0.632500
     15 N15        -2.2960   -1.2320    3.3160 nh        1 679     -0.562400
     16 C16        -3.0450   -1.8890    4.3280 ca        1 679      0.067600
     17 C17        -4.0270   -1.2170    5.0790 ca        1 679     -0.130000
     18 C18        -4.6730   -1.8820    6.1160 ca        1 679     -0.135000
     19 C19        -4.3440   -3.2070    6.4220 ca        1 679      0.043400
     20 C20        -3.3660   -3.8900    5.6890 ca        1 679     -0.080600
     21 C21        -2.7240   -3.2260    4.6430 ca        1 679     -0.121000
     22 CL2        -5.1600   -3.9620    7.7100 cl        1 679     -0.097400
     23 C23        -2.9520   -5.3380    5.9830 c         1 679      0.918200
     24 O24        -3.6110   -6.2500    5.4220 o         1 679     -0.804300
     25 O25        -1.9570   -5.5000    6.7370 o         1 679     -0.804300
     26 HC1        -0.7130   -0.2310   -1.1020 ha        1 679      0.152000
     27 HC2         1.7550   -0.3420   -1.4470 ha        1 679      0.131000
     28 HC3         3.3080   -0.1470    0.4950 ha        1 679      0.139000
     29 HC5        -0.0790    0.3270    3.1480 ha        1 679      0.148000
     30 H14        -5.0460    0.8610    0.3240 hn        1 679      0.341500
     31 H15        -1.3300   -1.5030    3.2750 hn        1 679      0.454800
     32 H17        -4.3060   -0.1810    4.8420 ha        1 679      0.132000
     33 H18        -5.4460   -1.3540    6.6930 ha        1 679      0.131000
     34 H21        -1.9560   -3.7760    4.0770 ha        1 679      0.147000
@<TRIPOS>BOND
     1    1    2 ar  
     2    1    6 ar  
     3    1   26 1   
     4    2    3 ar  
     5    2   27 1   
     6    3    4 ar  
     7    3   28 1   
     8    4    5 ar  
     9    4    7 1   
    10    5    6 ar  
    11    5   29 1   
    12    6    8 1   
    13    8    9 2   
    14    8   11 1   
    15    9   10 1   
    16    9   15 1   
    17   10   13 2   
    18   10   14 1   
    19   11   12 2   
    20   11   14 1   
    21   14   30 1   
    22   15   16 1   
    23   15   31 1   
    24   16   17 ar  
    25   16   21 ar  
    26   17   18 ar  
    27   17   32 1   
    28   18   19 ar  
    29   18   33 1   
    30   19   20 ar  
    31   19   22 1   
    32   20   21 ar  
    33   20   23 1   
    34   21   34 1   
    35   23   24 1   
    36   23   25 1   
@<TRIPOS>SUBSTRUCTURE
     1 679         1 TEMP              0 ****  ****    0 ROOT
