@<TRIPOS>MOLECULE
67Z
   58    60     1     0     0
SMALL
bcc


@<TRIPOS>ATOM
      1 CAB         1.6390   -1.5420   -0.3150 c3        1 67Z      0.104700
      2 OAU         2.0630   -0.1770   -0.2800 os        1 67Z     -0.351900
      3 CBA         2.2440    0.3080    1.0100 ca        1 67Z      0.077100
      4 CAK         1.1330    0.7760    1.7220 ca        1 67Z     -0.115000
      5 CAJ         1.3010    1.3670    2.9710 ca        1 67Z     -0.188000
      6 CAZ         2.5910    1.4820    3.5030 ca        1 67Z      0.111100
      7 OAT         2.8840    2.0500    4.7290 os        1 67Z     -0.328900
      8 CAA         1.7740    2.5280    5.4790 c3        1 67Z      0.113700
      9 CAL         3.7100    1.0110    2.7930 ca        1 67Z     -0.133000
     10 CBB         3.5420    0.4160    1.5440 ca        1 67Z     -0.066300
     11 CBC         4.7280   -0.0810    0.7560 c3        1 67Z      0.148000
     12 CAP         5.5880    1.1120    0.2710 c3        1 67Z     -0.085400
     13 CAM         6.9200    1.0150    1.0050 c3        1 67Z     -0.091400
     14 CAQ         6.9200   -0.3420    1.7280 c3        1 67Z      0.086000
     15 NBD         5.6190   -0.9500    1.5300 n         1 67Z     -0.461800
     16 C           5.3800   -2.3010    1.6710 c         1 67Z      0.637100
     17 O           4.3430   -2.8270    1.2100 o         1 67Z     -0.628100
     18 CA          6.3750   -3.1300    2.5020 c3        1 67Z      0.002000
     19 N           6.2470   -4.5510    2.3220 n         1 67Z     -0.512900
     20 CAV         7.1970   -5.1980    1.4880 c         1 67Z      0.727100
     21 OAD         8.2940   -4.6430    1.2290 o         1 67Z     -0.645100
     22 NAS         6.8860   -6.4710    0.9690 n         1 67Z     -0.522900
     23 CAO         7.9570   -7.2810    0.4360 c3        1 67Z      0.126300
     24 CAY         8.6750   -8.1360    1.4380 ca        1 67Z     -0.180300
     25 CAH         8.4600   -9.5150    1.4880 ca        1 67Z     -0.076000
     26 CAF         9.1480  -10.3090    2.3970 ca        1 67Z     -0.197000
     27 CAX        10.0720   -9.7300    3.2990 ca        1 67Z      0.148600
     28 NAC        10.6970  -10.5060    4.2780 nh        1 67Z     -0.822200
     29 CAG        10.2870   -8.3320    3.2360 ca        1 67Z     -0.197000
     30 CAI         9.5940   -7.5550    2.3190 ca        1 67Z     -0.076000
     31 H1          1.5440   -1.7610   -1.4070 h1        1 67Z      0.048367
     32 H2          2.4060   -2.2000    0.1630 h1        1 67Z      0.048367
     33 H3          0.6520   -1.6500    0.1980 h1        1 67Z      0.048367
     34 H4          0.1290    0.6770    1.2830 ha        1 67Z      0.144000
     35 H5          0.4240    1.7330    3.5220 ha        1 67Z      0.138000
     36 H6          1.2440    3.3400    4.9250 h1        1 67Z      0.044033
     37 H7          1.0710    1.6940    5.7190 h1        1 67Z      0.044033
     38 H8          2.2440    2.9290    6.4130 h1        1 67Z      0.044033
     39 H9          4.7120    1.1160    3.2350 ha        1 67Z      0.151000
     40 H10         4.3350   -0.6670   -0.1300 h1        1 67Z      0.092700
     41 H11         5.0760    2.0800    0.4880 hc        1 67Z      0.062200
     42 H12         5.7350    1.0380   -0.8350 hc        1 67Z      0.062200
     43 H13         7.0270    1.8440    1.7470 hc        1 67Z      0.054700
     44 H14         7.7790    1.0760    0.2930 hc        1 67Z      0.054700
     45 H15         7.7360   -1.0000    1.3150 h1        1 67Z      0.048200
     46 H16         7.1030   -0.2080    2.8300 h1        1 67Z      0.048200
     47 H17         6.1480   -2.9070    3.5850 h1        1 67Z      0.093200
     48 H18         7.4370   -2.8170    2.2840 h1        1 67Z      0.093200
     49 H19         5.2960   -4.8490    2.2180 hn        1 67Z      0.306500
     50 H20         6.1810   -6.9870    1.4510 hn        1 67Z      0.294500
     51 H21         8.7040   -6.5980   -0.0640 h1        1 67Z      0.072700
     52 H22         7.4910   -7.9380   -0.3540 h1        1 67Z      0.072700
     53 H23         7.7440   -9.9840    0.7970 ha        1 67Z      0.141000
     54 H24         8.9620  -11.3930    2.4170 ha        1 67Z      0.132500
     55 H25        10.7670  -11.4740    4.0580 hn        1 67Z      0.391300
     56 H26        11.5410  -10.1190    4.6370 hn        1 67Z      0.391300
     57 H27        11.0020   -7.8520    3.9210 ha        1 67Z      0.132500
     58 H28         9.7620   -6.4650    2.2770 ha        1 67Z      0.141000
@<TRIPOS>BOND
     1    1    2 1   
     2    1   31 1   
     3    1   32 1   
     4    1   33 1   
     5    2    3 1   
     6    3    4 ar  
     7    3   10 ar  
     8    4    5 ar  
     9    4   34 1   
    10    5    6 ar  
    11    5   35 1   
    12    6    7 1   
    13    6    9 ar  
    14    7    8 1   
    15    8   36 1   
    16    8   37 1   
    17    8   38 1   
    18    9   10 ar  
    19    9   39 1   
    20   10   11 1   
    21   11   12 1   
    22   11   15 1   
    23   11   40 1   
    24   12   13 1   
    25   12   41 1   
    26   12   42 1   
    27   13   14 1   
    28   13   43 1   
    29   13   44 1   
    30   14   15 1   
    31   14   45 1   
    32   14   46 1   
    33   15   16 1   
    34   16   17 2   
    35   16   18 1   
    36   18   19 1   
    37   18   47 1   
    38   18   48 1   
    39   19   20 1   
    40   19   49 1   
    41   20   21 2   
    42   20   22 1   
    43   22   23 1   
    44   22   50 1   
    45   23   24 1   
    46   23   51 1   
    47   23   52 1   
    48   24   25 ar  
    49   24   30 ar  
    50   25   26 ar  
    51   25   53 1   
    52   26   27 ar  
    53   26   54 1   
    54   27   28 1   
    55   27   29 ar  
    56   28   55 1   
    57   28   56 1   
    58   29   30 ar  
    59   29   57 1   
    60   30   58 1   
@<TRIPOS>SUBSTRUCTURE
     1 67Z         1 TEMP              0 ****  ****    0 ROOT
