@<TRIPOS>MOLECULE
67Z
   60    62     1     0     0
SMALL
bcc


@<TRIPOS>ATOM
      1 CAB         1.5430   -3.5090    1.3100 c3        1 67Z      0.111700
      2 OAU         2.7910   -2.8220    1.2180 os        1 67Z     -0.349900
      3 CBA         2.9600   -1.7620    2.0910 ca        1 67Z      0.113100
      4 CAK         2.2410   -1.6300    3.2870 ca        1 67Z     -0.153000
      5 CAJ         2.4950   -0.5630    4.1420 ca        1 67Z     -0.143000
      6 CAZ         3.4700    0.3830    3.7970 ca        1 67Z      0.107100
      7 OAT         3.8340    1.4560    4.5820 os        1 67Z     -0.330900
      8 CAA         2.9600    1.7680    5.6660 c3        1 67Z      0.108700
      9 CAL         4.1790    0.2670    2.5900 ca        1 67Z     -0.136000
     10 CBB         3.9330   -0.8050    1.7330 ca        1 67Z     -0.129300
     11 CBC         4.6540   -0.9170    0.4190 c3        1 67Z      0.162000
     12 CAP         4.2190    0.2060   -0.5520 c3        1 67Z     -0.089400
     13 CAM         5.4310    1.0980   -0.7930 c3        1 67Z     -0.087400
     14 CAQ         6.6150    0.4490   -0.0610 c3        1 67Z      0.065000
     15 NBD         6.1250   -0.7850    0.5430 n         1 67Z     -0.380800
     16 C           6.9090   -1.7010    1.1310 c         1 67Z      0.655100
     17 O           6.5250   -2.8070    1.6010 o         1 67Z     -0.704100
     18 CA          8.4240   -1.3900    1.2490 c3        1 67Z      0.004800
     19 N           9.1100   -2.3900    2.1330 ny        1 67Z     -0.636800
     20 CAV         9.4210   -3.6690    1.3970 c         1 67Z      0.494100
     21 OAD        10.4630   -3.7140    0.7580 o         1 67Z     -0.344100
     22 NAS         8.5100   -4.8140    1.5270 ny        1 67Z     -0.686800
     23 CAO         8.7760   -5.6800    2.8120 c3        1 67Z      0.239100
     24 CAY         8.1500   -6.9720    2.6170 ca        1 67Z     -0.317300
     25 CAH         8.8920   -8.0610    2.0970 ca        1 67Z     -0.009500
     26 CAF         8.3380   -9.3100    1.9810 ca        1 67Z     -0.225000
     27 CAX         6.9790   -9.5490    2.3860 ca        1 67Z      0.298600
     28 NAC         6.4270  -10.7760    2.2870 nv        1 67Z     -0.799200
     29 CAG         6.2300   -8.4340    2.8980 ca        1 67Z     -0.225000
     30 CAI         6.8060   -7.1940    3.0050 ca        1 67Z     -0.009500
     31 H1          0.6880   -2.7910    1.3090 h1        1 67Z      0.054367
     32 H2          1.5280   -4.1450    0.3890 h1        1 67Z      0.054367
     33 H3          1.5240   -4.1440    2.2280 h1        1 67Z      0.054367
     34 H4          1.4690   -2.3660    3.5560 ha        1 67Z      0.156000
     35 H5          1.9220   -0.4660    5.0770 ha        1 67Z      0.160000
     36 H6          1.9130    1.9090    5.3060 h1        1 67Z      0.056700
     37 H7          3.0090    0.9680    6.4430 h1        1 67Z      0.056700
     38 H8          3.3770    2.7300    6.0620 h1        1 67Z      0.056700
     39 H9          4.9080    1.0460    2.3240 ha        1 67Z      0.142000
     40 H10         4.4490   -1.9350   -0.0320 h1        1 67Z      0.108700
     41 H11         3.3730    0.7910   -0.1090 hc        1 67Z      0.087700
     42 H12         3.8600   -0.2490   -1.5090 hc        1 67Z      0.087700
     43 H13         5.6540    1.1860   -1.8860 hc        1 67Z      0.083700
     44 H14         5.2550    2.1280   -0.3950 hc        1 67Z      0.083700
     45 H15         7.0050    1.1330    0.7440 h1        1 67Z      0.057700
     46 H16         7.4510    0.2170   -0.7760 h1        1 67Z      0.057700
     47 H17         8.5700   -0.3710    1.7210 hx        1 67Z      0.146200
     48 H18         8.9110   -1.3980    0.2310 hx        1 67Z      0.146200
     49 H19         8.4930   -2.5760    2.9440 hn        1 67Z      0.496300
     50 H20         7.5110   -4.5160    1.5280 hn        1 67Z      0.499800
     51 H21         8.3260   -5.0890    3.6560 hx        1 67Z      0.098200
     52 H22         9.8950   -5.7450    2.9080 hx        1 67Z      0.098200
     53 H23         9.9430   -7.9070    1.7990 ha        1 67Z      0.144000
     54 H24         8.9410  -10.1450    1.5870 ha        1 67Z      0.170000
     55 H25         6.9580  -11.5460    1.9490 hn        1 67Z      0.465300
     56 H26         5.4940  -10.9390    2.5860 hn        1 67Z      0.465300
     57 H27         5.1860   -8.5850    3.2190 ha        1 67Z      0.170000
     58 H28         6.2150   -6.3570    3.4160 ha        1 67Z      0.144000
     59 H29        10.0060   -1.9870    2.4580 hn        1 67Z      0.496300
     60 HAS2        8.6530   -5.4290    0.7050 hn        1 67Z      0.499800
@<TRIPOS>BOND
     1    1    2 1   
     2    1   31 1   
     3    1   32 1   
     4    1   33 1   
     5    2    3 1   
     6    3    4 ar  
     7    3   10 ar  
     8    4    5 ar  
     9    4   34 1   
    10    5    6 ar  
    11    5   35 1   
    12    6    7 1   
    13    6    9 ar  
    14    7    8 1   
    15    8   36 1   
    16    8   37 1   
    17    8   38 1   
    18    9   10 ar  
    19    9   39 1   
    20   10   11 1   
    21   11   12 1   
    22   11   15 1   
    23   11   40 1   
    24   12   13 1   
    25   12   41 1   
    26   12   42 1   
    27   13   14 1   
    28   13   43 1   
    29   13   44 1   
    30   14   15 1   
    31   14   45 1   
    32   14   46 1   
    33   15   16 1   
    34   16   17 2   
    35   16   18 1   
    36   18   19 1   
    37   18   47 1   
    38   18   48 1   
    39   19   20 1   
    40   19   49 1   
    41   19   59 1   
    42   20   21 2   
    43   20   22 1   
    44   22   23 1   
    45   22   50 1   
    46   22   60 1   
    47   23   24 1   
    48   23   51 1   
    49   23   52 1   
    50   24   25 ar  
    51   24   30 ar  
    52   25   26 ar  
    53   25   53 1   
    54   26   27 ar  
    55   26   54 1   
    56   27   28 1   
    57   27   29 ar  
    58   28   55 1   
    59   28   56 1   
    60   29   30 ar  
    61   29   57 1   
    62   30   58 1   
@<TRIPOS>SUBSTRUCTURE
     1 67Z         1 TEMP              0 ****  ****    0 ROOT
