@<TRIPOS>MOLECULE
680
   20    18     1     0     0
SMALL
bcc


@<TRIPOS>ATOM
      1 O3         -2.9570    0.8980    1.8400 o         1 680     -0.518200
      2 N3         -1.5980    0.9220    1.9520 no        1 680      0.877400
      3 O2         -1.0860    1.0500    3.0350 o         1 680     -0.518200
      4 C2         -0.7660    0.8460    0.7550 c2        1 680     -0.442000
      5 C1         -0.1660   -0.4330    0.3520 c1        1 680      0.313000
      6 N2         -0.4480   -1.6160    1.0900 n2        1 680     -0.280000
      7 C5          0.3880   -2.7690    0.9330 c3        1 680     -0.073000
      8 N1          0.6850   -0.4960   -0.8170 n2        1 680     -0.337000
      9 C4          0.9130    0.6990   -1.6200 c1        1 680      0.312000
     10 N5          1.6170    0.6040   -2.7910 n2        1 680     -0.359000
     11 N4          0.2820    1.9890   -1.2340 n         1 680     -0.355000
     12 C3         -0.5300    2.0630   -0.0650 c2        1 680      0.385000
     13 O1         -1.0460    3.1070    0.2440 o         1 680     -0.301000
     14 HN2        -1.1270   -1.6210    1.7120 hn        1 680      0.284000
     15 H51         0.3350   -3.0810    0.0210 h1        1 680      0.092000
     16 H52         1.2960   -2.5370    1.1400 h1        1 680      0.092000
     17 H53         0.0820   -3.4890    1.5490 h1        1 680      0.092000
     18 HN51        2.0130   -0.1890   -3.0240 hn        1 680      0.242000
     19 HN52        1.6850    1.3040   -3.3250 hn        1 680      0.242000
     20 HN4         0.4280    2.7500   -1.7470 hn        1 680      0.254000
@<TRIPOS>BOND
     1    1    2 2   
     2    2    3 2   
     3    2    4 1   
     4    4    5 1   
     5    4   12 1   
     6    5    8 1   
     7    6    7 1   
     8    6   14 1   
     9    7   15 1   
    10    7   16 1   
    11    7   17 1   
    12    8    9 1   
    13    9   11 1   
    14   10   18 1   
    15   10   19 1   
    16   11   12 1   
    17   11   20 1   
    18   12   13 1   
@<TRIPOS>SUBSTRUCTURE
     1 680         1 TEMP              0 ****  ****    0 ROOT
