@<TRIPOS>MOLECULE
680
   20    20     1     0     0
SMALL
bcc


@<TRIPOS>ATOM
      1 O3          0.0390   -0.0050    0.1360 o         1 680     -0.236500
      2 N3          1.2520    0.0030    0.0700 no        1 680      0.341100
      3 O2          1.9110    0.0190    1.0740 o         1 680     -0.236500
      4 C2          1.9130   -0.0070   -1.2240 cc        1 680     -0.488300
      5 C1          1.2340    0.1390   -2.4820 cd        1 680      0.535600
      6 N2         -0.1200    0.2780   -2.5760 nh        1 680     -0.725000
      7 C5         -0.8220    0.4380   -3.8150 c3        1 680      0.203100
      8 N1          1.9450    0.1490   -3.6790 nd        1 680     -0.765300
      9 C4          3.2970    0.0430   -3.6480 cc        1 680      0.758800
     10 N5          3.9920    0.1600   -4.8500 nh        1 680     -0.920800
     11 N4          4.0200   -0.1410   -2.4700 n         1 680     -0.515400
     12 C3          3.3630   -0.1700   -1.2080 c         1 680      0.746700
     13 O1          4.0960   -0.3440   -0.2250 o         1 680     -0.576500
     14 HN2        -0.6660    0.2450   -1.7370 hn        1 680      0.488800
     15 H51        -0.6710   -0.4550   -4.4790 h1        1 680      0.052700
     16 H52        -0.4640    1.3520   -4.3610 h1        1 680      0.052700
     17 H53        -1.9160    0.5480   -3.5910 h1        1 680      0.052700
     18 HN51        3.4610    0.1840   -5.6900 hn        1 680      0.446800
     19 HN52        4.9210   -0.1800   -4.9040 hn        1 680      0.446800
     20 HN4         5.0150   -0.2050   -2.4690 hn        1 680      0.340500
@<TRIPOS>BOND
     1    1    2 1   
     2    2    3 1   
     3    2    4 1   
     4    4    5 2   
     5    4   12 1   
     6    5    6 1   
     7    5    8 1   
     8    6    7 1   
     9    6   14 1   
    10    7   15 1   
    11    7   16 1   
    12    7   17 1   
    13    8    9 2   
    14    9   10 1   
    15    9   11 1   
    16   10   18 1   
    17   10   19 1   
    18   11   12 1   
    19   11   20 1   
    20   12   13 2   
@<TRIPOS>SUBSTRUCTURE
     1 680         1 TEMP              0 ****  ****    0 ROOT
