@<TRIPOS>MOLECULE
680
   20    20     1     0     0
SMALL
bcc


@<TRIPOS>ATOM
      1 O3          2.6990    0.8100    0.1050 o         1 680     -0.236500
      2 N3          2.0940   -0.2380   -0.0060 no        1 680      0.341100
      3 O2          2.6950   -1.2700   -0.1340 o         1 680     -0.236500
      4 C2          0.6410   -0.2480    0.0130 cc        1 680     -0.488300
      5 C1         -0.1780    0.9320   -0.0050 cd        1 680      0.535600
      6 N2          0.3460    2.1920   -0.0180 nh        1 680     -0.725000
      7 C5         -0.4470    3.3850   -0.0500 c3        1 680      0.203100
      8 N1         -1.5670    0.8350   -0.0150 nd        1 680     -0.765300
      9 C4         -2.1470   -0.3910   -0.0310 cc        1 680      0.758800
     10 N5         -3.5330   -0.4600   -0.1450 nh        1 680     -0.920800
     11 N4         -1.4180   -1.5780    0.0260 n         1 680     -0.515400
     12 C3          0.0050   -1.5610    0.0460 c         1 680      0.746700
     13 O1          0.5540   -2.6690    0.1020 o         1 680     -0.576500
     14 HN2         1.3410    2.2990    0.0190 hn        1 680      0.488800
     15 H51        -1.1020    3.4050   -0.9620 h1        1 680      0.052700
     16 H52        -1.1010    3.4560    0.8600 h1        1 680      0.052700
     17 H53         0.2440    4.2690   -0.0750 h1        1 680      0.052700
     18 HN51       -3.9970   -1.2960    0.1140 hn        1 680      0.446800
     19 HN52       -4.0450    0.3900   -0.0780 hn        1 680      0.446800
     20 HN4        -1.8640   -2.4700    0.0010 hn        1 680      0.340500
@<TRIPOS>BOND
     1    1    2 1   
     2    2    3 1   
     3    2    4 1   
     4    4    5 2   
     5    4   12 1   
     6    5    6 1   
     7    5    8 1   
     8    6    7 1   
     9    6   14 1   
    10    7   15 1   
    11    7   16 1   
    12    7   17 1   
    13    8    9 2   
    14    9   10 1   
    15    9   11 1   
    16   10   18 1   
    17   10   19 1   
    18   11   12 1   
    19   11   20 1   
    20   12   13 2   
@<TRIPOS>SUBSTRUCTURE
     1 680         1 TEMP              0 ****  ****    0 ROOT
