@<TRIPOS>MOLECULE
681
   65    67     1     0     0
SMALL
bcc


@<TRIPOS>ATOM
      1 C1          1.7060    1.2230    1.4550 c3        1 681      0.126800
      2 O1          1.7110    2.4580    2.1560 oh        1 681     -0.611800
      3 C2          2.7190    0.3060    2.0490 cc        1 681      0.338700
      4 N1          4.0640    0.2710    1.9870 nd        1 681     -0.387000
      5 O2          2.2760   -0.7060    2.9060 os        1 681     -0.358800
      6 N2          4.5140   -0.7080    2.7470 nd        1 681     -0.345000
      7 C3          3.4620   -1.3310    3.3320 cc        1 681      0.536700
      8 C4          3.3740   -2.4860    4.2830 c3        1 681     -0.076300
      9 C5          1.9190   -2.7910    4.6060 c3        1 681     -0.097433
     10 C6          4.0280   -3.6990    3.6300 c3        1 681     -0.097433
     11 C7          4.1250   -2.1150    5.5580 c3        1 681     -0.097433
     12 CVA         1.9970    1.6180   -0.0180 c3        1 681      0.135500
     13 CVB         1.6720    0.5140   -1.0400 c3        1 681     -0.078700
     14 CV1         2.4210   -0.7770   -0.8110 c3        1 681     -0.109100
     15 CV2         0.1750    0.2630   -1.0540 c3        1 681     -0.109100
     16 NV          3.4120    2.1270   -0.1500 n4        1 681     -0.659800
     17 COG         3.6450    3.0280   -1.3170 c         1 681      0.525100
     18 OCG         2.6950    3.5590   -1.8690 o         1 681     -0.389100
     19 CAG         5.1100    3.2110   -1.7360 c3        1 681      0.012000
     20 N2X         5.5470    4.5850   -1.6010 n         1 681     -0.362300
     21 C1X         6.1230    5.3100   -2.6570 cc        1 681      0.670500
     22 N1X         6.4900    6.6030   -2.5220 nd        1 681     -0.595300
     23 C2X         6.3590    7.2250   -1.3310 cd        1 681      0.263600
     24 C3X         5.8470    6.5770   -0.2030 cc        1 681     -0.314200
     25 C4X         5.3850    5.1950   -0.3290 c         1 681      0.719700
     26 O1X         4.8470    4.5500    0.5990 o         1 681     -0.674500
     27 N3X         5.7370    7.2050    1.0970 n4        1 681     -0.667400
     28 C5X         6.3600    4.6550   -3.9600 ca        1 681     -0.236900
     29 C6X         5.8770    5.2630   -5.1280 ca        1 681     -0.080000
     30 C7X         6.1620    4.6890   -6.3670 ca        1 681     -0.119000
     31 C8X         6.9420    3.5360   -6.4460 ca        1 681     -0.056000
     32 C9X         7.4400    2.9440   -5.2790 ca        1 681     -0.119000
     33 C0X         7.1520    3.4970   -4.0370 ca        1 681     -0.080000
     34 H11         0.6870    0.7370    1.4940 h1        1 681      0.124700
     35 HO1         1.3560    2.3000    3.0430 ho        1 681      0.456000
     36 H51         1.8700   -3.6530    5.3150 hc        1 681      0.058922
     37 H52         1.3580   -3.0570    3.6790 hc        1 681      0.058922
     38 H53         1.4290   -1.9070    5.0820 hc        1 681      0.058922
     39 H61         3.4950   -3.9750    2.6890 hc        1 681      0.058922
     40 H62         5.1010   -3.4930    3.3970 hc        1 681      0.058922
     41 H63         3.9760   -4.5640    4.3350 hc        1 681      0.058922
     42 H71         3.6640   -1.2210    6.0410 hc        1 681      0.058922
     43 H72         4.0740   -2.9730    6.2730 hc        1 681      0.058922
     44 H73         5.1980   -1.8990    5.3360 hc        1 681      0.058922
     45 HVA1        1.3210    2.5070   -0.2390 hx        1 681      0.136700
     46 HVB1        1.9530    0.9180   -2.0580 hc        1 681      0.062700
     47 HV11        2.1300   -1.5190   -1.5980 hc        1 681      0.061700
     48 HV12        3.5270   -0.6350   -0.8690 hc        1 681      0.061700
     49 HV13        2.1670   -1.2180    0.1840 hc        1 681      0.061700
     50 HV21       -0.3950    1.2210   -1.1130 hc        1 681      0.061700
     51 HV22       -0.0840   -0.3550   -1.9500 hc        1 681      0.061700
     52 HV23       -0.1510   -0.2990   -0.1450 hc        1 681      0.061700
     53 HNV1        3.6450    2.6660    0.7100 hn        1 681      0.493300
     54 HAG1        5.7970    2.5570   -1.1230 h1        1 681      0.134700
     55 HAG2        5.1670    2.8890   -2.8240 h1        1 681      0.134700
     56 H2X1        6.7030    8.2840   -1.3220 h4        1 681      0.215000
     57 H3X1        6.6730    7.4300    1.4590 hn        1 681      0.474800
     58 H3X2        5.2710    6.5530    1.7500 hn        1 681      0.474800
     59 H6X1        5.2820    6.1890   -5.0750 ha        1 681      0.149500
     60 H7X1        5.7780    5.1620   -7.2880 ha        1 681      0.172000
     61 H8X1        7.1790    3.0940   -7.4290 ha        1 681      0.174000
     62 H9X1        8.0760    2.0460   -5.3470 ha        1 681      0.172000
     63 H0X1        7.5790    3.0490   -3.1260 ha        1 681      0.149500
     64 HV2         4.0540    1.3240   -0.2110 hn        1 681      0.493300
     65 H3X3        5.1830    8.0670    1.0280 hn        1 681      0.474800
@<TRIPOS>BOND
     1    1    2 1   
     2    1    3 1   
     3    1   12 1   
     4    1   34 1   
     5    2   35 1   
     6    3    4 2   
     7    3    5 1   
     8    4    6 1   
     9    5    7 1   
    10    6    7 2   
    11    7    8 1   
    12    8    9 1   
    13    8   10 1   
    14    8   11 1   
    15    9   36 1   
    16    9   37 1   
    17    9   38 1   
    18   10   39 1   
    19   10   40 1   
    20   10   41 1   
    21   11   42 1   
    22   11   43 1   
    23   11   44 1   
    24   12   13 1   
    25   12   16 1   
    26   12   45 1   
    27   13   14 1   
    28   13   15 1   
    29   13   46 1   
    30   14   47 1   
    31   14   48 1   
    32   14   49 1   
    33   15   50 1   
    34   15   51 1   
    35   15   52 1   
    36   16   17 1   
    37   16   53 1   
    38   16   64 1   
    39   17   18 2   
    40   17   19 1   
    41   19   20 1   
    42   19   54 1   
    43   19   55 1   
    44   20   21 1   
    45   20   25 1   
    46   21   22 2   
    47   21   28 1   
    48   22   23 1   
    49   23   24 2   
    50   23   56 1   
    51   24   25 1   
    52   24   27 1   
    53   25   26 2   
    54   27   57 1   
    55   27   58 1   
    56   27   65 1   
    57   28   29 ar  
    58   28   33 ar  
    59   29   30 ar  
    60   29   59 1   
    61   30   31 ar  
    62   30   60 1   
    63   31   32 ar  
    64   31   61 1   
    65   32   33 ar  
    66   32   62 1   
    67   33   63 1   
@<TRIPOS>SUBSTRUCTURE
     1 681         1 TEMP              0 ****  ****    0 ROOT
