@<TRIPOS>MOLECULE
681
   64    66     1     0     0
SMALL
bcc


@<TRIPOS>ATOM
      1 C1          0.8060    1.3580    0.3520 c3        1 681      0.126800
      2 O1          0.8410    2.7740    0.4720 oh        1 681     -0.619800
      3 C2          1.2570    0.7310    1.6250 cc        1 681      0.344700
      4 N1          0.5520    0.2760    2.6780 nd        1 681     -0.287000
      5 O2          2.6280    0.5970    1.8990 os        1 681     -0.424800
      6 N2          1.3870   -0.1540    3.6070 nd        1 681     -0.333000
      7 C3          2.6570    0.0150    3.1830 cc        1 681      0.514700
      8 C4          3.9950   -0.2760    3.7850 c3        1 681     -0.068300
      9 C5          3.8200   -1.0980    5.0540 c3        1 681     -0.097100
     10 C6          4.8330   -1.0480    2.7720 c3        1 681     -0.097100
     11 C7          4.6720    1.0510    4.1080 c3        1 681     -0.097100
     12 CVA         1.6660    1.0430   -0.8970 c3        1 681      0.132500
     13 CVB         1.6200   -0.4290   -1.3460 c3        1 681     -0.074700
     14 CV1         2.1500   -1.4140   -0.3300 c3        1 681     -0.108100
     15 CV2         0.2030   -0.7940   -1.7450 c3        1 681     -0.108100
     16 NV          3.0700    1.5570   -0.7300 ny        1 681     -0.668800
     17 COG         3.8020    1.7710   -2.0220 c         1 681      0.523100
     18 OCG         3.1700    1.7400   -3.0650 o         1 681     -0.407100
     19 CAG         5.3190    1.9540   -1.9240 c3        1 681      0.023000
     20 N2X         5.7510    3.0370   -1.0900 n         1 681     -0.390300
     21 C1X         6.2130    4.2680   -1.6480 cc        1 681      0.488500
     22 N1X         6.7850    5.2070   -0.9210 nd        1 681     -0.523300
     23 C2X         7.0070    4.9940    0.4190 cd        1 681      0.017600
     24 C3X         6.6360    3.8300    1.0790 cc        1 681      0.038800
     25 C4X         5.9100    2.8020    0.2910 c         1 681      0.672700
     26 O1X         5.3940    1.7680    0.7820 o         1 681     -0.702500
     27 N3X         6.9860    3.5260    2.3790 nv        1 681     -0.815600
     28 C5X         6.0200    4.4880   -3.1050 ca        1 681     -0.172900
     29 C6X         4.9510    5.2730   -3.5480 ca        1 681     -0.102500
     30 C7X         4.8030    5.5250   -4.9120 ca        1 681     -0.122500
     31 C8X         5.7220    5.0060   -5.8250 ca        1 681     -0.094000
     32 C9X         6.7960    4.2360   -5.3760 ca        1 681     -0.122500
     33 C0X         6.9520    3.9770   -4.0150 ca        1 681     -0.102500
     34 H11        -0.2470    1.0070    0.1310 h1        1 681      0.121700
     35 HO1         0.1990    3.0320    1.1490 ho        1 681      0.457000
     36 H51         4.8240   -1.3110    5.4950 hc        1 681      0.054811
     37 H52         3.3140   -2.0670    4.8280 hc        1 681      0.054811
     38 H53         3.2090   -0.5410    5.8050 hc        1 681      0.054811
     39 H61         5.8290   -1.2860    3.2190 hc        1 681      0.054811
     40 H62         4.3290   -2.0040    2.4940 hc        1 681      0.054811
     41 H63         4.9880   -0.4330    1.8520 hc        1 681      0.054811
     42 H71         4.7500    1.6690    3.1800 hc        1 681      0.054811
     43 H72         4.0880    1.6120    4.8770 hc        1 681      0.054811
     44 H73         5.6970    0.8580    4.5060 hc        1 681      0.054811
     45 HVA1        1.2100    1.6630   -1.7380 hx        1 681      0.128700
     46 HVB1        2.2600   -0.4990   -2.2770 hc        1 681      0.067700
     47 HV11        1.4640   -1.4900    0.5490 hc        1 681      0.058367
     48 HV12        2.2190   -2.4270   -0.8000 hc        1 681      0.058367
     49 HV13        3.1650   -1.1340    0.0420 hc        1 681      0.058367
     50 HV21       -0.2290   -0.0310   -2.4370 hc        1 681      0.058367
     51 HV22        0.2130   -1.7800   -2.2720 hc        1 681      0.058367
     52 HV23       -0.4590   -0.8900   -0.8500 hc        1 681      0.058367
     53 HNV1        3.0230    2.4570   -0.2260 hn        1 681      0.487300
     54 HAG1        5.6820    2.1090   -2.9870 h1        1 681      0.132200
     55 HAG2        5.7400    0.9780   -1.5300 h1        1 681      0.132200
     56 H2X1        7.5260    5.8270    0.9280 h4        1 681      0.195000
     57 H3X1        7.2500    4.2920    2.9550 hn        1 681      0.429300
     58 H3X2        6.4690    2.7990    2.8200 hn        1 681      0.429300
     59 H6X1        4.2440    5.7090   -2.8270 ha        1 681      0.143000
     60 H7X1        3.9660    6.1470   -5.2660 ha        1 681      0.152500
     61 H8X1        5.6060    5.2140   -6.9010 ha        1 681      0.154000
     62 H9X1        7.5310    3.8420   -6.0960 ha        1 681      0.152500
     63 H0X1        7.8170    3.3970   -3.6590 ha        1 681      0.143000
     64 HV2         3.6210    0.9140   -0.1280 hn        1 681      0.487300
@<TRIPOS>BOND
     1    1    2 1   
     2    1    3 1   
     3    1   12 1   
     4    1   34 1   
     5    2   35 1   
     6    3    4 2   
     7    3    5 1   
     8    4    6 1   
     9    5    7 1   
    10    6    7 2   
    11    7    8 1   
    12    8    9 1   
    13    8   10 1   
    14    8   11 1   
    15    9   36 1   
    16    9   37 1   
    17    9   38 1   
    18   10   39 1   
    19   10   40 1   
    20   10   41 1   
    21   11   42 1   
    22   11   43 1   
    23   11   44 1   
    24   12   13 1   
    25   12   16 1   
    26   12   45 1   
    27   13   14 1   
    28   13   15 1   
    29   13   46 1   
    30   14   47 1   
    31   14   48 1   
    32   14   49 1   
    33   15   50 1   
    34   15   51 1   
    35   15   52 1   
    36   16   17 1   
    37   16   53 1   
    38   16   64 1   
    39   17   18 2   
    40   17   19 1   
    41   19   20 1   
    42   19   54 1   
    43   19   55 1   
    44   20   21 1   
    45   20   25 1   
    46   21   22 2   
    47   21   28 1   
    48   22   23 1   
    49   23   24 2   
    50   23   56 1   
    51   24   25 1   
    52   24   27 1   
    53   25   26 2   
    54   27   57 1   
    55   27   58 1   
    56   28   29 ar  
    57   28   33 ar  
    58   29   30 ar  
    59   29   59 1   
    60   30   31 ar  
    61   30   60 1   
    62   31   32 ar  
    63   31   61 1   
    64   32   33 ar  
    65   32   62 1   
    66   33   63 1   
@<TRIPOS>SUBSTRUCTURE
     1 681         1 TEMP              0 ****  ****    0 ROOT
