@<TRIPOS>MOLECULE
681
   63    58     1     0     0
SMALL
bcc


@<TRIPOS>ATOM
      1 C1         -1.4720   -1.7440    0.0580 c3        1 681      0.103000
      2 O1         -2.2740   -2.5380   -0.8490 oh        1 681     -0.306000
      3 C2         -2.3130   -1.3230    1.2290 c2        1 681     -0.081000
      4 N1         -2.4880   -0.0520    1.6690 n2        1 681     -0.073000
      5 O2         -3.0710   -2.1570    2.0230 os        1 681     -0.131000
      6 N2         -3.3520   -0.0870    2.7340 n2        1 681     -0.086000
      7 C3         -3.7080   -1.3930    2.9470 c1        1 681     -0.021000
      8 C4         -4.6190   -1.9170    4.0860 c2        1 681      0.028000
      9 C5         -4.2590   -1.2030    5.3910 c3        1 681     -0.209667
     10 C6         -6.0800   -1.6450    3.7440 c3        1 681     -0.209667
     11 C7         -4.4090   -3.4300    4.2490 c3        1 681     -0.209667
     12 CVA        -0.9740   -0.5470   -0.6440 c3        1 681      0.040000
     13 CVB        -1.4310   -0.5870   -2.1180 c3        1 681     -0.113000
     14 CV1        -1.4220   -2.0630   -2.6220 c3        1 681     -0.210000
     15 CV2        -2.8390   -0.0250   -2.2280 c3        1 681     -0.210000
     16 NV          0.4810   -0.5210   -0.5830 n         1 681     -0.368000
     17 COG         1.1930    0.7670   -0.5900 c2        1 681      0.285000
     18 OCG         0.5660    1.8070   -0.6040 o         1 681     -0.373000
     19 CAG         2.7300    0.7950   -0.6360 c3        1 681     -0.059000
     20 N2X         3.1920    2.1820   -0.7610 n3        1 681     -0.251000
     21 C1X         4.2510    2.4790   -1.5850 c1        1 681      0.134000
     22 N1X         4.6940    3.7590   -1.6900 n1        1 681     -0.158000
     23 C2X         4.0910    4.7510   -0.9790 c1        1 681     -0.106000
     24 C3X         3.0360    4.4580   -0.1580 c1        1 681     -0.077000
     25 C4X         2.5900    3.1620   -0.0540 c1        1 681      0.311000
     26 O1X         1.6670    2.9020    0.6650 o         1 681     -0.386000
     27 N3X         2.3360    5.5130    0.5160 n3        1 681     -0.299000
     28 C5X         4.8860    1.4450   -2.3270 c1        1 681     -0.071000
     29 C6X         5.7170    0.5350   -1.6810 c1        1 681     -0.116000
     30 C7X         6.3750   -0.4660   -2.4240 c1        1 681     -0.116000
     31 C8X         6.1960   -0.5440   -3.7860 c1        1 681     -0.116000
     32 C9X         5.3570    0.3730   -4.4370 c1        1 681     -0.116000
     33 C0X         4.7050    1.3650   -3.7050 c1        1 681     -0.094000
     34 H11        -0.7140   -2.2750    0.3750 h1        1 681      0.113000
     35 HO1        -2.4920   -3.3080   -0.4550 ho        1 681      0.210000
     36 H51        -3.3070   -1.3040    5.5630 hc        1 681      0.088222
     37 H52        -4.7720   -1.6000    6.1380 hc        1 681      0.088222
     38 H53        -4.4770   -0.2550    5.3150 hc        1 681      0.088222
     39 H61        -6.3190   -2.1280    2.9300 hc        1 681      0.088222
     40 H62        -6.2100   -0.6810    3.6060 hc        1 681      0.088222
     41 H63        -6.6540   -1.9520    4.4880 hc        1 681      0.088222
     42 H71        -4.6590   -3.8850    3.4170 hc        1 681      0.088222
     43 H72        -4.9710   -3.7620    4.9860 hc        1 681      0.088222
     44 H73        -3.4630   -3.6110    4.4480 hc        1 681      0.088222
     45 HVA1       -1.3320    0.2550   -0.2140 h1        1 681      0.144000
     46 HVB1       -0.8290   -0.0570   -2.6570 hc        1 681      0.097000
     47 HV11       -0.5950   -2.5070   -2.3250 hc        1 681      0.079833
     48 HV12       -1.4640   -2.0750   -3.6110 hc        1 681      0.079833
     49 HV13       -2.2010   -2.5420   -2.2540 hc        1 681      0.079833
     50 HV21       -3.4890   -0.7070   -1.9370 hc        1 681      0.079833
     51 HV22       -2.9200    0.7680   -1.6570 hc        1 681      0.079833
     52 HV23       -3.0210    0.2210   -3.1580 hc        1 681      0.079833
     53 HNV1        0.9480   -1.3000   -0.4760 hn        1 681      0.261000
     54 HAG1        3.0840    0.4100    0.1770 h1        1 681      0.142500
     55 HAG2        3.0400    0.2810   -1.3990 h1        1 681      0.142500
     56 H2X1        4.4150    5.6810   -1.0570 ha        1 681      0.172000
     57 H3X1        2.4350    6.3930    0.2330 hn        1 681      0.195500
     58 H3X2        1.8080    5.3220    1.2260 hn        1 681      0.195500
     59 H6X1        5.8450    0.5910   -0.7160 ha        1 681      0.141000
     60 H7X1        6.9600   -1.1060   -1.9700 ha        1 681      0.141000
     61 H8X1        6.6500   -1.2360   -4.2980 ha        1 681      0.141000
     62 H9X1        5.2300    0.3170   -5.4060 ha        1 681      0.141000
     63 H0X1        4.1250    1.9990   -4.1570 ha        1 681      0.155000
@<TRIPOS>BOND
     1    1    2 1   
     2    1    3 1   
     3    1   12 1   
     4    1   34 1   
     5    2   35 1   
     6    3    4 1   
     7    3    5 1   
     8    4    6 1   
     9    5    7 1   
    10    6    7 1   
    11    8    9 1   
    12    8   10 1   
    13    8   11 1   
    14    9   36 1   
    15    9   37 1   
    16    9   38 1   
    17   10   39 1   
    18   10   40 1   
    19   10   41 1   
    20   11   42 1   
    21   11   43 1   
    22   11   44 1   
    23   12   13 1   
    24   12   16 1   
    25   12   45 1   
    26   13   14 1   
    27   13   15 1   
    28   13   46 1   
    29   14   47 1   
    30   14   48 1   
    31   14   49 1   
    32   15   50 1   
    33   15   51 1   
    34   15   52 1   
    35   16   17 1   
    36   16   53 1   
    37   17   18 1   
    38   17   19 1   
    39   19   20 1   
    40   19   54 1   
    41   19   55 1   
    42   20   21 1   
    43   20   25 1   
    44   21   22 1   
    45   23   24 1   
    46   23   56 1   
    47   24   27 1   
    48   25   26 1   
    49   27   57 1   
    50   27   58 1   
    51   28   33 1   
    52   29   30 1   
    53   29   59 1   
    54   30   60 1   
    55   31   32 1   
    56   31   61 1   
    57   32   62 1   
    58   33   63 1   
@<TRIPOS>SUBSTRUCTURE
     1 681         1 TEMP              0 ****  ****    0 ROOT
