@<TRIPOS>MOLECULE
681
   63    65     1     0     0
SMALL
bcc


@<TRIPOS>ATOM
      1 C1          1.6680   -1.9170    1.6660 c3        1 681      0.122800
      2 O1          1.7210   -3.0860    0.8810 oh        1 681     -0.572800
      3 C2          0.2520   -1.5190    1.9350 cc        1 681      0.418700
      4 N1         -0.9000   -1.7200    1.2670 nd        1 681     -0.345000
      5 O2         -0.0110   -0.7640    3.0870 os        1 681     -0.385800
      6 N2         -1.8890   -1.1330    1.9260 nd        1 681     -0.377000
      7 C3         -1.3970   -0.5380    3.0300 cc        1 681      0.479700
      8 C4         -2.0060    0.3230    4.0890 c3        1 681     -0.068300
      9 C5         -1.5320   -0.1420    5.4590 c3        1 681     -0.092433
     10 C6         -1.5540    1.7590    3.8370 c3        1 681     -0.092433
     11 C7         -3.5250    0.2370    4.0140 c3        1 681     -0.092433
     12 CVA         2.4930   -0.7740    0.9930 c3        1 681      0.070700
     13 CVB         3.4070   -0.0560    2.0150 c3        1 681     -0.081700
     14 CV1         2.6590    0.4840    3.2120 c3        1 681     -0.096100
     15 CV2         4.5320   -0.9720    2.4520 c3        1 681     -0.096100
     16 NV          1.6570    0.1370    0.2500 n         1 681     -0.562900
     17 COG         1.9100    0.4730   -1.0580 c         1 681      0.643100
     18 OCG         2.8280   -0.0510   -1.7200 o         1 681     -0.612100
     19 CAG         1.0090    1.5470   -1.7050 c3        1 681      0.010000
     20 N2X        -0.3590    1.1320   -1.8950 n         1 681     -0.360300
     21 C1X        -0.8350    0.6640   -3.1420 cc        1 681      0.509500
     22 N1X        -2.0680    0.2080   -3.3240 nd        1 681     -0.582300
     23 C2X        -2.9410    0.1910   -2.2620 cd        1 681      0.047600
     24 C3X        -2.6180    0.6650   -1.0040 cc        1 681     -0.006200
     25 C4X        -1.2410    1.1850   -0.7970 c         1 681      0.676700
     26 O1X        -0.8460    1.6540    0.2960 o         1 681     -0.684500
     27 N3X        -3.5340    0.7480    0.0480 nh        1 681     -0.774600
     28 C5X         0.0620    0.7160   -4.3290 ca        1 681     -0.151900
     29 C6X         1.2160   -0.0690   -4.4020 ca        1 681     -0.091000
     30 C7X         2.0010   -0.0380   -5.5550 ca        1 681     -0.135000
     31 C8X         1.6350    0.7700   -6.6310 ca        1 681     -0.111000
     32 C9X         0.4810    1.5490   -6.5590 ca        1 681     -0.135000
     33 C0X        -0.3120    1.5220   -5.4120 ca        1 681     -0.091000
     34 H11         2.1530   -2.2130    2.6420 h1        1 681      0.110700
     35 HO1         1.3130   -2.8970    0.0250 ho        1 681      0.424000
     36 H51        -1.9380    0.5370    6.2460 hc        1 681      0.049811
     37 H52        -1.8860   -1.1810    5.6620 hc        1 681      0.049811
     38 H53        -0.4160   -0.1270    5.5090 hc        1 681      0.049811
     39 H61        -0.4470    1.8380    3.9600 hc        1 681      0.049811
     40 H62        -1.8200    2.0750    2.7980 hc        1 681      0.049811
     41 H63        -2.0510    2.4410    4.5660 hc        1 681      0.049811
     42 H71        -3.8650   -0.8190    4.1410 hc        1 681      0.049811
     43 H72        -3.9710    0.8590    4.8270 hc        1 681      0.049811
     44 H73        -3.8920    0.6170    3.0300 hc        1 681      0.049811
     45 HVA1        3.1820   -1.2900    0.2490 h1        1 681      0.106700
     46 HVB1        3.8780    0.8180    1.4770 hc        1 681      0.061700
     47 HV11        3.3490    1.0900    3.8480 hc        1 681      0.040533
     48 HV12        1.8080    1.1340    2.8950 hc        1 681      0.040533
     49 HV13        2.2450   -0.3450    3.8370 hc        1 681      0.040533
     50 HV21        4.1480   -1.8440    3.0330 hc        1 681      0.040533
     51 HV22        5.0920   -1.3570    1.5650 hc        1 681      0.040533
     52 HV23        5.2440   -0.4070    3.1020 hc        1 681      0.040533
     53 HNV1        0.9790    0.6580    0.7630 hn        1 681      0.340500
     54 HAG1        1.0180    2.4650   -1.0460 h1        1 681      0.100200
     55 HAG2        1.4740    1.8060   -2.6990 h1        1 681      0.100200
     56 H2X1       -3.9330   -0.2340   -2.4990 h4        1 681      0.176000
     57 H3X1       -4.0390   -0.1060    0.1830 hn        1 681      0.395300
     58 H3X2       -3.1100    1.0640    0.9000 hn        1 681      0.395300
     59 H6X1        1.5200   -0.6990   -3.5490 ha        1 681      0.152000
     60 H7X1        2.9110   -0.6540   -5.6090 ha        1 681      0.140000
     61 H8X1        2.2560    0.7900   -7.5390 ha        1 681      0.135000
     62 H9X1        0.1890    2.1840   -7.4090 ha        1 681      0.140000
     63 H0X1       -1.2330    2.1220   -5.3620 ha        1 681      0.152000
@<TRIPOS>BOND
     1    1    2 1   
     2    1    3 1   
     3    1   12 1   
     4    1   34 1   
     5    2   35 1   
     6    3    4 2   
     7    3    5 1   
     8    4    6 1   
     9    5    7 1   
    10    6    7 2   
    11    7    8 1   
    12    8    9 1   
    13    8   10 1   
    14    8   11 1   
    15    9   36 1   
    16    9   37 1   
    17    9   38 1   
    18   10   39 1   
    19   10   40 1   
    20   10   41 1   
    21   11   42 1   
    22   11   43 1   
    23   11   44 1   
    24   12   13 1   
    25   12   16 1   
    26   12   45 1   
    27   13   14 1   
    28   13   15 1   
    29   13   46 1   
    30   14   47 1   
    31   14   48 1   
    32   14   49 1   
    33   15   50 1   
    34   15   51 1   
    35   15   52 1   
    36   16   17 1   
    37   16   53 1   
    38   17   18 2   
    39   17   19 1   
    40   19   20 1   
    41   19   54 1   
    42   19   55 1   
    43   20   21 1   
    44   20   25 1   
    45   21   22 2   
    46   21   28 1   
    47   22   23 1   
    48   23   24 2   
    49   23   56 1   
    50   24   25 1   
    51   24   27 1   
    52   25   26 2   
    53   27   57 1   
    54   27   58 1   
    55   28   29 ar  
    56   28   33 ar  
    57   29   30 ar  
    58   29   59 1   
    59   30   31 ar  
    60   30   60 1   
    61   31   32 ar  
    62   31   61 1   
    63   32   33 ar  
    64   32   62 1   
    65   33   63 1   
@<TRIPOS>SUBSTRUCTURE
     1 681         1 TEMP              0 ****  ****    0 ROOT
