@<TRIPOS>MOLECULE
682
   58    55     1     0     0
SMALL
bcc


@<TRIPOS>ATOM
      1 CX          1.2080    0.4540    0.4940 c3        1 682      0.050000
      2 CY         -0.3670    0.5190    0.5490 c3        1 682     -0.011000
      3 CZ          1.7320   -0.9350    0.7430 c2        1 682     -0.372000
      4 OX         -1.6650    1.1870    2.9800 o         1 682     -0.325000
      5 N4         -0.8290    1.8430    0.9380 n         1 682     -0.356000
      6 O5          1.5600    0.9160   -0.8010 oh        1 682     -0.395000
      7 C6         -0.9500    0.1570   -0.8440 c2        1 682      0.093000
      8 C7         -2.1830   -0.6880   -0.9030 c3        1 682     -0.250000
      9 C8         -2.6190   -0.9880   -2.3540 c3        1 682     -0.021000
     10 N9         -3.8100   -1.7940   -2.4190 n3        1 682     -0.361000
     11 C10        -4.4720   -2.1020   -3.6250 cz        1 682      0.405000
     12 N11        -4.0600   -1.5670   -4.8160 n3        1 682     -0.329500
     13 N12        -5.5530   -2.9360   -3.5860 n3        1 682     -0.329500
     14 N13         2.8580   -1.3750    0.1760 n3        1 682      0.122000
     15 C14         3.6040   -2.4670    0.4240 c2        1 682     -0.202000
     16 C15         3.5290   -3.4100    1.4420 c1        1 682     -0.499000
     17 S16         3.6490   -4.3960    2.3650 s         1 682      1.215000
     18 N17        -2.3000    3.5980    3.9850 n4        1 682     -0.097000
     19 C18        -1.6100    3.5820    2.6030 c3        1 682     -0.077000
     20 C19        -1.3400    2.0980    2.1970 c2        1 682      0.306000
     21 C20        -0.3390    4.4600    2.6540 c3        1 682     -0.129000
     22 C21         0.7840    3.8050    3.4270 c3        1 682     -0.243000
     23 C22         0.1060    4.8470    1.2560 c3        1 682     -0.243000
     24 N24        -3.7620    5.1930    5.3870 n4        1 682     -0.113000
     25 O25        -4.0730    4.8810    3.0810 o         1 682     -0.019000
     26 HX          1.2760   -1.5080    1.5650 h4        1 682      0.191000
     27 HY          1.6280    1.1280    1.2990 h1        1 682      0.146000
     28 HN4        -0.7280   -0.2350    1.3150 h1        1 682      0.187000
     29 HO5         2.3120    1.5270   -0.7440 ho        1 682      0.285000
     30 H61         0.1260   -0.3930   -1.7870 DU        1 682      0.223500
     31 H62        -0.9620    1.0330   -1.5530 ha        1 682      0.196000
     32 H71         0.0720   -0.8880   -1.1950 DU        1 682      0.223500
     33 H72        -2.0580   -1.6430   -0.3210 hc        1 682      0.174000
     34 H81        -2.9990   -0.0980   -0.3820 hc        1 682      0.174000
     35 H82        -1.7660   -1.5110   -2.8820 h1        1 682      0.110000
     36 HN9        -2.8120   -0.0040   -2.8770 h1        1 682      0.110000
     37 H11        -3.2750   -0.9620   -4.8770 hn        1 682      0.297500
     38 H121       -4.5640   -1.7520   -5.6640 hn        1 682      0.297500
     39 H122       -6.0680   -3.1560   -4.4200 hn        1 682      0.297500
     40 H14         3.2300   -0.8040   -0.5820 hn        1 682      0.281000
     41 H15         4.4550   -2.6190   -0.2920 h4        1 682      0.246000
     42 H18        -2.3440    4.0170    1.8520 hx        1 682      0.198000
     43 H20        -0.6130    5.4290    3.1720 hc        1 682      0.129000
     44 H211        0.5340    3.6700    4.5070 hc        1 682      0.117167
     45 H212        1.0480    2.8100    2.9940 hc        1 682      0.117167
     46 H213        1.6980    4.4580    3.3780 hc        1 682      0.117167
     47 H221        0.6490    5.8320    1.3080 hc        1 682      0.117167
     48 H222       -0.7550    4.9790    0.5580 hc        1 682      0.117167
     49 H223        0.8320    4.1080    0.8360 hc        1 682      0.117167
     50 H241       -2.9960    5.7920    5.7500 hn        1 682      0.330667
     51 H242       -4.0060    4.4800    6.1010 hn        1 682      0.330667
     52 C23        -3.4220    4.5840    4.0670 c2        1 682      0.262000
     53 H42        -0.4770    2.6090    0.3970 hn        1 682      0.268000
     54 H92        -4.0390   -2.3430   -1.6170 hn        1 682      0.274000
     55 H123       -5.8840   -3.3350   -2.7320 hn        1 682      0.297500
     56 H171       -2.6830    2.6380    4.1660 hn        1 682      0.308500
     57 H243       -4.6050    5.8070    5.2500 hn        1 682      0.330667
     58 H17        -1.5680    3.7860    4.6940 hn        1 682      0.308500
@<TRIPOS>BOND
     1    1    2 1   
     2    1    3 1   
     3    1    6 1   
     4    1   27 1   
     5    2    5 1   
     6    2    7 1   
     7    2   28 1   
     8    3   14 1   
     9    3   26 1   
    10    4   20 1   
    11    5   20 1   
    12    5   53 1   
    13    6   29 1   
    14    7    8 1   
    15    7   31 1   
    16    8    9 1   
    17    8   33 1   
    18    8   34 1   
    19    9   10 1   
    20    9   35 1   
    21    9   36 1   
    22   10   11 1   
    23   10   54 1   
    24   11   12 1   
    25   11   13 1   
    26   12   37 1   
    27   12   38 1   
    28   13   39 1   
    29   13   55 1   
    30   14   15 1   
    31   14   40 1   
    32   15   16 1   
    33   15   41 1   
    34   16   17 1   
    35   18   19 1   
    36   18   52 1   
    37   18   56 1   
    38   18   58 1   
    39   19   20 1   
    40   19   21 1   
    41   19   42 1   
    42   21   22 1   
    43   21   23 1   
    44   21   43 1   
    45   22   44 1   
    46   22   45 1   
    47   22   46 1   
    48   23   47 1   
    49   23   48 1   
    50   23   49 1   
    51   24   50 1   
    52   24   51 1   
    53   24   52 1   
    54   24   57 1   
    55   25   52 1   
@<TRIPOS>SUBSTRUCTURE
     1 682         1 TEMP              0 ****  ****    0 ROOT
