@<TRIPOS>MOLECULE
682
   58    71     1     0     0
SMALL
bcc


@<TRIPOS>ATOM
      1 CX          1.5300    0.0000    0.0000 DU        1 682      0.580000
      2 CY          0.0000    0.0000    0.0000 DU        1 682     -0.499000
      3 CZ          2.0320    0.0000    1.4210 c2        1 682     -0.732000
      4 OX         -0.2650    0.6160    2.6130 o         1 682     -0.367000
      5 N4         -0.4880    1.2840    0.5090 ny        1 682     -0.037000
      6 O5          2.0060   -1.1680   -0.6720 oh        1 682     -0.097000
      7 C6         -0.5100   -0.2090   -1.4280 DU        1 682     -0.096000
      8 C7         -2.0340   -0.3330   -1.4120 DU        1 682      0.010000
      9 C8         -2.5440   -0.5410   -2.8390 DU        1 682     -0.227000
     10 N9         -4.0040   -0.6600   -2.8250 ny        1 682     -0.112000
     11 C10        -4.6900   -0.8540   -4.0000 c3        1 682      0.160000
     12 N11        -4.0420   -0.9330   -5.1280 n2        1 682      0.133000
     13 N12        -6.0600   -0.9660   -3.9860 nz        1 682      0.305000
     14 N13         1.7080   -0.8000    2.4110 n2        1 682      0.804000
     15 C14         2.2460   -0.6680    3.6050 c3        1 682     -0.331000
     16 C15         3.1450    0.3300    3.8010 c2        1 682      0.028000
     17 S16         3.1810    1.0640    2.1720 ss        1 682      0.407000
     18 N17        -1.5570    2.5920    3.7810 ny        1 682      0.600000
     19 C18        -1.2610    2.7400    2.3540 DU        1 682     -0.192000
     20 C19        -0.6350    1.4710    1.8360 c2        1 682      0.278000
     21 C20        -0.2890    3.9060    2.1530 DU        1 682     -0.623000
     22 C21         0.9870    3.6500    2.9570 c3        1 682     -0.307000
     23 C22         0.0600    4.0280    0.6690 c3        1 682     -0.307000
     24 N24        -2.8020    3.1960    5.6610 nz        1 682      0.914000
     25 O25        -3.1620    4.1230    3.6740 o         1 682     -0.077000
     26 HX          0.8130    0.4490    0.6770 DU        1 682      0.112000
     27 HY          0.9520    0.4470   -0.2580 DU        1 682      0.112000
     28 HN4        -0.4290    0.2870    0.5710 DU        1 682      0.102000
     29 HO5         1.2700   -0.6020   -0.5070 DU        1 682      0.199000
     30 H61         0.5380   -0.4540   -1.3040 ha        1 682      0.246500
     31 H62        -0.2230    0.6370   -2.0410 ha        1 682      0.246500
     32 H71        -1.0490   -0.7290   -1.6270 DU        1 682      0.241000
     33 H72        -2.4660    0.5720   -1.0030 ha        1 682      0.157000
     34 H81        -2.4330   -0.8650   -1.8110 DU        1 682      0.130000
     35 H82        -2.2570    0.3040   -3.4520 hx        1 682      0.152000
     36 HN9        -3.1000   -1.0380   -3.0280 DU        1 682      0.138000
     37 H11        -4.1500   -0.5540   -4.2080 DU        1 682     -0.077000
     38 H121       -5.1260   -0.9300   -4.3430 hn        1 682      0.155000
     39 H122       -6.4510   -0.3620   -4.6820 hn        1 682      0.155000
     40 H14         1.4490   -0.7840    2.8800 h1        1 682      0.024000
     41 H15         2.5490   -0.5180    4.1140 DU        1 682      0.197000
     42 H18        -2.1630    3.1130    1.8850 hx        1 682      0.220000
     43 H20        -1.2420    3.4200    1.9810 DU        1 682      0.304000
     44 H211        0.1110    4.2440    2.7250 DU        1 682      0.296000
     45 H212        0.9190    2.6870    3.4470 hc        1 682      0.132250
     46 H213        1.8410    3.6570    2.2910 hc        1 682      0.132250
     47 H221        0.4100    4.1630    1.6850 DU        1 682      0.296000
     48 H222       -0.8060    3.7690    0.0710 hc        1 682      0.132250
     49 H223        0.3580    5.0470    0.4510 hc        1 682      0.132250
     50 H241       -2.2270    3.2200    4.8430 DU        1 682     -0.207000
     51 H242       -2.3360    2.4830    6.1860 hn        1 682      0.128500
     52 C23        -2.5300    3.3320    4.3470 c3        1 682      0.123000
     53 H42         0.1470    1.9860    0.1850 hn        1 682      0.168000
     54 H92        -4.2260   -1.4320   -2.2270 hn        1 682      0.137000
     55 H123       -6.4080   -0.7020   -3.0850 hn        1 682      0.155000
     56 H171       -1.3570    1.6400    4.0150 hn        1 682      0.109500
     57 H243       -3.2250    3.9570    6.1550 hn        1 682      0.128500
     58 H17        -0.9140    3.1850    4.2670 hn        1 682      0.109500
@<TRIPOS>BOND
     1    1    2 1   
     2    1    3 1   
     3    1    6 1   
     4    1   26 1   
     5    1   27 1   
     6    1   29 1   
     7    2    5 1   
     8    2    7 1   
     9    2   26 1   
    10    2   27 1   
    11    2   28 1   
    12    3   14 1   
    13    3   17 1   
    14    4   20 1   
    15    5   20 1   
    16    5   28 1   
    17    5   53 1   
    18    6   29 1   
    19    7    8 1   
    20    7   30 1   
    21    7   31 1   
    22    7   32 1   
    23    8    9 1   
    24    8   32 1   
    25    8   33 1   
    26    8   34 1   
    27    9   10 1   
    28    9   34 1   
    29    9   35 1   
    30    9   36 1   
    31   10   11 1   
    32   10   36 1   
    33   10   54 1   
    34   11   12 1   
    35   11   13 1   
    36   11   37 1   
    37   12   37 1   
    38   13   38 1   
    39   13   39 1   
    40   13   55 1   
    41   14   15 1   
    42   15   16 1   
    43   15   40 1   
    44   15   41 1   
    45   16   17 1   
    46   16   41 1   
    47   18   19 1   
    48   18   52 1   
    49   18   56 1   
    50   18   58 1   
    51   19   20 1   
    52   19   21 1   
    53   19   42 1   
    54   19   43 1   
    55   21   22 1   
    56   21   23 1   
    57   21   43 1   
    58   21   44 1   
    59   21   47 1   
    60   22   44 1   
    61   22   45 1   
    62   22   46 1   
    63   23   47 1   
    64   23   48 1   
    65   23   49 1   
    66   24   50 1   
    67   24   51 1   
    68   24   52 1   
    69   24   57 1   
    70   25   52 1   
    71   50   52 1   
@<TRIPOS>SUBSTRUCTURE
     1 682         1 TEMP              0 ****  ****    0 ROOT
