@<TRIPOS>MOLECULE
682
   53    53     1     0     0
SMALL
bcc


@<TRIPOS>ATOM
      1 CX          0.1390    2.8280   -0.7690 c3        1 682      0.111800
      2 CY          0.6030    1.4610   -0.1700 c3        1 682      0.068700
      3 CZ         -1.3010    3.0960   -0.4530 cc        1 682      0.351700
      4 OX         -0.9650   -0.4080    1.2680 o         1 682     -0.602100
      5 N4         -0.1380    0.3570   -0.7350 n         1 682     -0.558900
      6 O5          0.9690    3.8730   -0.3030 oh        1 682     -0.581800
      7 C6          2.1200    1.3380   -0.3940 c3        1 682     -0.101400
      8 C7          2.7140    0.1920    0.3950 c3        1 682     -0.091400
      9 C8          4.2340    0.1890    0.2220 c3        1 682      0.183800
     10 N9          4.8590   -0.9260    0.9090 nh        1 682     -0.795200
     11 C10         6.2980   -0.9790    0.8960 c2        1 682      0.744100
     12 N11         6.9940   -0.1370    0.1720 n2        1 682     -0.872100
     13 N12         6.8650   -2.0020    1.7330 nh        1 682     -0.933800
     14 N13        -1.7600    3.3920    0.7670 nd        1 682     -0.629000
     15 C14        -3.1250    3.6020    0.7090 cd        1 682      0.339200
     16 C15        -3.6890    3.4650   -0.5530 cc        1 682     -0.255400
     17 S16        -2.5130    3.0740   -1.6730 ss        1 682     -0.073300
     18 N17        -1.0800   -2.9880    0.1700 n         1 682     -0.534900
     19 C18        -1.3190   -1.8390   -0.6810 c3        1 682      0.033700
     20 C19        -0.7900   -0.5760    0.0460 c         1 682      0.662100
     21 C20        -2.7930   -1.6430   -1.1030 c3        1 682     -0.090700
     22 C21        -3.6990   -1.3450    0.0700 c3        1 682     -0.098600
     23 C22        -2.9050   -0.5700   -2.1630 c3        1 682     -0.098600
     24 N24        -1.2670   -5.3940    0.4140 n         1 682     -0.644000
     25 O25        -1.1690   -4.4180   -1.6620 o         1 682     -0.642100
     26 HX          0.2940    2.8350   -1.8860 h1        1 682      0.080700
     27 HY          0.4000    1.4880    0.9440 h1        1 682      0.105700
     28 HN4         0.0610    0.1280   -1.6810 hn        1 682      0.308500
     29 HO5         0.8500    3.9480    0.6540 ho        1 682      0.422000
     30 H61         2.3410    1.2090   -1.4860 hc        1 682      0.060700
     31 H62         2.5970    2.3030   -0.0730 hc        1 682      0.060700
     32 H71         2.4460    0.3020    1.4790 hc        1 682      0.050700
     33 H72         2.2860   -0.7830    0.0420 hc        1 682      0.050700
     34 H81         4.4820    0.0960   -0.8740 h1        1 682      0.055200
     35 H82         4.6370    1.1830    0.5750 h1        1 682      0.055200
     36 HN9         4.4920   -1.0400    1.8350 hn        1 682      0.388800
     37 H11         7.9760   -0.3020    0.1480 hn        1 682      0.390400
     38 H121        6.2380   -2.7300    1.9980 hn        1 682      0.388800
     39 H122        7.7230   -2.3660    1.3790 hn        1 682      0.388800
     40 H14        -3.6570    3.8530    1.6340 h4        1 682      0.047100
     41 H15        -4.7420    3.5910   -0.7890 h4        1 682      0.183000
     42 H17        -1.4030   -2.8740    1.1080 hn        1 682      0.312500
     43 H18        -0.7270   -2.0200   -1.6320 h1        1 682      0.092700
     44 H20        -3.1190   -2.6200   -1.5700 hc        1 682      0.074700
     45 H211       -4.7330   -1.1260   -0.2930 hc        1 682      0.041533
     46 H212       -3.7510   -2.2200    0.7620 hc        1 682      0.041533
     47 H213       -3.3290   -0.4620    0.6470 hc        1 682      0.041533
     48 H221       -2.1670   -0.7470   -2.9820 hc        1 682      0.041533
     49 H222       -3.9310   -0.5840   -2.6040 hc        1 682      0.041533
     50 H223       -2.7260    0.4480   -1.7320 hc        1 682      0.041533
     51 H241       -0.9630   -5.3290    1.3550 hn        1 682      0.303500
     52 H242       -1.0940   -6.2580   -0.0450 hn        1 682      0.303500
     53 C23        -1.1770   -4.2690   -0.4150 c         1 682      0.737100
@<TRIPOS>BOND
     1    1    2 1   
     2    1    3 1   
     3    1    6 1   
     4    1   26 1   
     5    2    5 1   
     6    2    7 1   
     7    2   27 1   
     8    3   14 2   
     9    3   17 1   
    10    4   20 2   
    11    5   20 1   
    12    5   28 1   
    13    6   29 1   
    14    7    8 1   
    15    7   30 1   
    16    7   31 1   
    17    8    9 1   
    18    8   32 1   
    19    8   33 1   
    20    9   10 1   
    21    9   34 1   
    22    9   35 1   
    23   10   11 1   
    24   10   36 1   
    25   11   12 2   
    26   11   13 1   
    27   12   37 1   
    28   13   38 1   
    29   13   39 1   
    30   14   15 1   
    31   15   16 2   
    32   15   40 1   
    33   16   17 1   
    34   16   41 1   
    35   18   19 1   
    36   18   42 1   
    37   18   53 1   
    38   19   20 1   
    39   19   21 1   
    40   19   43 1   
    41   21   22 1   
    42   21   23 1   
    43   21   44 1   
    44   22   45 1   
    45   22   46 1   
    46   22   47 1   
    47   23   48 1   
    48   23   49 1   
    49   23   50 1   
    50   24   51 1   
    51   24   52 1   
    52   24   53 1   
    53   25   53 2   
@<TRIPOS>SUBSTRUCTURE
     1 682         1 TEMP              0 ****  ****    0 ROOT
