@<TRIPOS>MOLECULE
682
   53    50     1     0     0
SMALL
bcc


@<TRIPOS>ATOM
      1 CX          2.1290    0.4050    0.1380 c3        1 682      0.118800
      2 CY          0.6600    0.4520    0.0760 c3        1 682      0.113700
      3 CZ          2.7070    0.6810   -1.2560 c2        1 682      0.249200
      4 OX         -1.2520   -1.5870   -0.6170 o         1 682     -0.619100
      5 N4          0.0980   -0.5550    0.9830 n         1 682     -0.559900
      6 O5          2.5930    1.3950    1.0490 oh        1 682     -0.594800
      7 C6          0.1800    1.8470    0.4960 c3        1 682     -0.091400
      8 C7         -0.6560    2.4760   -0.6580 c3        1 682     -0.096400
      9 C8         -0.6420    4.0020   -0.5170 c3        1 682      0.187800
     10 N9         -1.4910    4.5920   -1.5320 nh        1 682     -0.780000
     11 C10        -1.2270    5.8950   -2.0010 c2        1 682      0.323000
     12 N11        -1.6670    6.9190   -1.3480 n1        1 682     -0.357000
     13 N12        -0.4830    6.0790   -3.1840 nh        1 682     -0.810600
     14 N13         2.5380    0.3300   -2.6290 ne        1 682     -0.438700
     15 C14         3.8970    0.5070   -3.3500 cg        1 682     -0.084000
     16 C15         4.8720    0.9700   -2.3760 c1        1 682     -0.242900
     17 S16         4.1770    1.0950   -1.0500 ss        1 682      0.086700
     18 N17        -1.7690   -2.8730    2.1810 n         1 682     -0.559900
     19 C18        -0.7990   -2.9880    1.1940 c3        1 682      0.039700
     20 C19        -0.7120   -1.6950    0.4330 c         1 682      0.654100
     21 C20        -1.1850   -4.1500    0.2170 c3        1 682     -0.074700
     22 C21         0.0900   -4.8210   -0.3190 c3        1 682     -0.096600
     23 C22        -1.9990   -5.1520    0.9420 c3        1 682     -0.096600
     24 C23        -1.4260   -3.1200    3.5680 c         1 682      0.747100
     25 N24        -2.4220   -2.9260    4.6030 n         1 682     -0.643000
     26 O25        -0.3430   -3.5680    3.8500 o         1 682     -0.658100
     27 HX          2.4230   -0.5060    0.4500 h1        1 682      0.078700
     28 HY          0.3660    0.2670   -0.8390 h1        1 682      0.099700
     29 HN4         0.3120   -0.5370    1.8690 hn        1 682      0.344500
     30 HO5         3.2220    1.0480    1.5700 ho        1 682      0.410000
     31 H61         0.9670    2.4240    0.6870 hc        1 682      0.055200
     32 H62        -0.3620    1.7780    1.2850 hc        1 682      0.055200
     33 H71        -0.2650    2.2190   -1.5260 hc        1 682      0.058200
     34 H72        -1.5740    2.1540   -0.6090 hc        1 682      0.058200
     35 H81         0.2830    4.3340   -0.6250 h1        1 682      0.040200
     36 H82        -0.9790    4.2520    0.3790 h1        1 682      0.040200
     37 HN9        -2.2660    4.1490   -1.8060 hn        1 682      0.399800
     38 H11        -2.1500    6.7990   -0.5840 DU        1 682      0.170667
     39 H121       -0.3660    5.3810   -3.7630 hn        1 682      0.393800
     40 H122       -0.1560    6.9040   -3.3940 hn        1 682      0.393800
     41 H14         4.0700    0.3350   -4.3110 DU        1 682      0.170667
     42 H15         5.8150    1.1670   -2.5540 DU        1 682      0.170667
     43 H17        -2.6040   -2.5850    1.9630 hn        1 682      0.312500
     44 H18         0.0620   -3.1810    1.6040 h1        1 682      0.089700
     45 H20        -1.7080   -3.7850   -0.5400 hc        1 682      0.078700
     46 H211        0.6890   -5.0150    0.4190 hc        1 682      0.041200
     47 H212        0.5230   -4.2350   -0.9360 hc        1 682      0.041200
     48 H213       -0.1490   -5.6580   -0.7770 hc        1 682      0.041200
     49 H221       -2.1800   -5.9160    0.3520 hc        1 682      0.041200
     50 H222       -2.8380   -4.7500    1.2180 hc        1 682      0.041200
     51 H223       -1.5080   -5.4600    1.7320 hc        1 682      0.041200
     52 H241       -2.2130   -3.0950    5.4680 hn        1 682      0.307000
     53 H242       -3.2820   -2.6960    4.3740 hn        1 682      0.307000
@<TRIPOS>BOND
     1    1    2 1   
     2    1    3 1   
     3    1    6 1   
     4    1   27 1   
     5    2    5 1   
     6    2    7 1   
     7    2   28 1   
     8    3   14 2   
     9    3   17 1   
    10    4   20 2   
    11    5   20 1   
    12    5   29 1   
    13    6   30 1   
    14    7    8 1   
    15    7   31 1   
    16    7   32 1   
    17    8    9 1   
    18    8   33 1   
    19    8   34 1   
    20    9   10 1   
    21    9   35 1   
    22    9   36 1   
    23   10   11 1   
    24   10   37 1   
    25   11   12 2   
    26   11   13 1   
    27   13   39 1   
    28   13   40 1   
    29   14   15 1   
    30   15   16 3   
    31   16   17 1   
    32   18   19 1   
    33   18   24 1   
    34   18   43 1   
    35   19   20 1   
    36   19   21 1   
    37   19   44 1   
    38   21   22 1   
    39   21   23 1   
    40   21   45 1   
    41   22   46 1   
    42   22   47 1   
    43   22   48 1   
    44   23   49 1   
    45   23   50 1   
    46   23   51 1   
    47   24   25 1   
    48   24   26 2   
    49   25   52 1   
    50   25   53 1   
@<TRIPOS>SUBSTRUCTURE
     1 682         1 TEMP              0 ****  ****    0 ROOT
