@<TRIPOS>MOLECULE
682
   58    59     1     0     0
SMALL
bcc


@<TRIPOS>ATOM
      1 CX       -123.7850 -400.0540   79.3560 c3        1 682      0.038000
      2 CY       -123.7770 -399.6350   77.8390 c3        1 682     -0.013000
      3 CZ       -125.0400 -399.6570   80.0890 c2        1 682     -0.252000
      4 OX       -123.6970 -396.9150   78.2750 o         1 682     -0.445000
      5 N4       -122.6510 -398.8110   77.4680 n         1 682     -0.369000
      6 O5       -123.6780 -401.4670   79.3820 oh        1 682     -0.389000
      7 C6       -123.7880 -400.8870   76.9270 c2        1 682      0.114000
      8 C7       -124.2310 -400.7130   75.5120 c3        1 682     -0.252000
      9 C8       -124.1580 -402.0280   74.7140 c3        1 682     -0.022000
     10 N9       -124.6260 -401.8830   73.3600 n3        1 682     -0.359000
     11 C10      -124.5970 -402.9200   72.4180 cz        1 682      0.409000
     12 N11      -124.0660 -404.1440   72.7300 n3        1 682     -0.336500
     13 N12      -125.1060 -402.6930   71.1680 n3        1 682     -0.336500
     14 N13      -125.4480 -398.4100   80.2450 n3        1 682      0.101000
     15 C14      -126.4840 -397.9600   81.0080 c2        1 682     -0.256000
     16 C15      -127.2620 -398.6610   81.9000 c1        1 682     -0.453000
     17 S16      -128.0950 -399.2110   82.8340 s         1 682      1.062000
     18 N17      -121.3710 -395.3230   77.7790 n4        1 682      0.121000
     19 C18      -121.4500 -396.6860   77.5130 c2        1 682     -0.479000
     20 C19      -122.6660 -397.4320   77.7730 c2        1 682      0.383000
     21 C20       587.6520    0.0020 -364.8720 DU        1 682     -0.015000
     22 C21       587.6980    0.4960 -364.8630 DU        1 682     -0.015000
     23 C22       588.2980    0.6520 -365.9550 c3        1 682     -0.335000
     24 N24      -121.1410 -393.0050   76.4880 n4        1 682     -0.134000
     25 O25      -122.3100 -394.8000   75.5710 o         1 682     -0.103000
     26 HX       -125.5810 -400.4760   80.6000 h4        1 682      0.195000
     27 HY       -122.8940 -399.5950   79.8830 h1        1 682      0.148000
     28 HN4      -124.7160 -399.0290   77.6370 h1        1 682      0.163000
     29 HO5      -123.3830 -401.7480   80.2640 ho        1 682      0.288000
     30 H61      -124.5370 -402.1040   77.5720 DU        1 682      0.216333
     31 H62      -125.0090 -401.5020   77.5110 DU        1 682      0.216333
     32 H71      -122.8700 -401.5240   77.0620 ha        1 682      0.195000
     33 H72      -123.5280 -399.9500   75.0510 hc        1 682      0.179000
     34 H81      -125.2630 -400.2650   75.4550 hc        1 682      0.179000
     35 H82      -123.0820 -402.3800   74.7020 h1        1 682      0.110000
     36 HN9      -124.7810 -402.8090   75.2460 h1        1 682      0.110000
     37 H11      -123.6720 -404.3310   73.6230 hn        1 682      0.294000
     38 H121     -124.0300 -404.8770   72.0470 hn        1 682      0.294000
     39 H122     -125.0890 -403.4080   70.4660 hn        1 682      0.294000
     40 H14      -124.9550 -397.6730   79.7400 hn        1 682      0.296000
     41 H15      -126.6990 -396.8710   80.9010 h4        1 682      0.228000
     42 H18      -120.6120 -397.1280   76.9520 hx        1 682      0.205000
     43 H20       586.5660    0.3760 -364.8120 DU        1 682      0.189500
     44 H211      588.0680    0.4270 -363.8870 DU        1 682      0.189500
     45 H212      588.7520    0.1260 -364.8210 DU        1 682      0.189500
     46 H213      587.1570    0.1060 -363.9630 DU        1 682      0.189500
     47 H221      587.2060    0.0730 -365.7730 DU        1 682      0.182000
     48 H222      588.3100    0.7590 -366.0370 DU        1 682      0.216333
     49 H223      588.8100    0.0780 -366.7560 hc        1 682      0.214000
     50 H241     -120.1120 -392.9980   76.4850 hn        1 682      0.286333
     51 H242     -121.4780 -392.4520   77.2850 hn        1 682      0.286333
     52 C23      -121.6740 -394.4170   76.5350 c2        1 682      0.124000
     53 H42      -121.7550 -399.2540   77.4820 hn        1 682      0.245000
     54 H92      -125.0690 -401.0250   73.1050 hn        1 682      0.278000
     55 H123     -125.5060 -401.8140   70.9140 hn        1 682      0.294000
     56 H171     -120.4170 -395.0900   78.0840 hn        1 682      0.280500
     57 H243     -121.4650 -392.5460   75.6160 hn        1 682      0.286333
     58 H17      -122.0730 -395.0400   78.4810 hn        1 682      0.280500
@<TRIPOS>BOND
     1    1    2 1   
     2    1    3 1   
     3    1    6 1   
     4    1   27 1   
     5    2    5 1   
     6    2    7 1   
     7    2   28 1   
     8    3   14 1   
     9    3   26 1   
    10    4   20 1   
    11    5   20 1   
    12    5   53 1   
    13    6   29 1   
    14    7    8 1   
    15    7   32 1   
    16    8    9 1   
    17    8   33 1   
    18    8   34 1   
    19    9   10 1   
    20    9   35 1   
    21    9   36 1   
    22   10   11 1   
    23   10   54 1   
    24   11   12 1   
    25   11   13 1   
    26   12   37 1   
    27   12   38 1   
    28   13   39 1   
    29   13   55 1   
    30   14   15 1   
    31   14   40 1   
    32   15   16 1   
    33   15   41 1   
    34   16   17 1   
    35   18   19 1   
    36   18   52 1   
    37   18   56 1   
    38   18   58 1   
    39   19   20 1   
    40   19   42 1   
    41   21   23 1   
    42   21   43 1   
    43   21   44 1   
    44   21   45 1   
    45   21   46 1   
    46   21   47 1   
    47   22   23 1   
    48   22   43 1   
    49   22   44 1   
    50   22   45 1   
    51   22   46 1   
    52   22   47 1   
    53   23   47 1   
    54   23   49 1   
    55   24   50 1   
    56   24   51 1   
    57   24   52 1   
    58   24   57 1   
    59   25   52 1   
@<TRIPOS>SUBSTRUCTURE
     1 682         1 TEMP              0 ****  ****    0 ROOT
