@<TRIPOS>MOLECULE
683
   31    32     1     0     0
SMALL
bcc


@<TRIPOS>ATOM
      1 OX1         1.0780   -2.2500    1.5630 o         1 683     -0.839300
      2 CY1         2.1030   -1.9080    0.9110 c         1 683      0.911200
      3 OX2         3.1470   -2.6260    0.8370 o         1 683     -0.839300
      4 CY2         2.1370   -0.5500    0.2260 ca        1 683     -0.181600
      5 CY3         3.3980   -0.0130   -0.0250 ca        1 683     -0.075000
      6 CY4         3.5750    1.2590   -0.5820 ca        1 683     -0.190300
      7 C4          4.9290    1.7950   -0.8370 c3        1 683     -0.014800
      8 CY5         2.4390    2.0050   -0.9010 ca        1 683     -0.118000
      9 CY6         1.1700    1.4920   -0.6860 ca        1 683     -0.225000
     10 CY0         0.9770    0.1980   -0.1250 ca        1 683      0.219600
     11 N1         -0.3060   -0.3260   -0.0160 nh        1 683     -0.618000
     12 CX2        -1.4190    0.4730    0.2670 ca        1 683      0.206600
     13 CX3        -1.2800    1.6750    1.0090 ca        1 683     -0.214000
     14 CX4        -2.3770    2.4770    1.2960 ca        1 683     -0.137000
     15 CX5        -3.6470    2.1120    0.8590 ca        1 683     -0.215000
     16 CX6        -3.8000    0.9340    0.1300 ca        1 683     -0.094000
     17 CX1        -2.7200    0.1060   -0.1760 ca        1 683     -0.155600
     18 CX0        -3.0280   -1.1430   -0.9890 c         1 683      0.911200
     19 OY1        -2.3330   -2.1820   -0.8290 o         1 683     -0.836300
     20 OY2        -4.0150   -1.0820   -1.7850 o         1 683     -0.836300
     21 H2          4.2740   -0.6300    0.2380 ha        1 683      0.141000
     22 H3          5.2150    1.6420   -1.9080 hc        1 683      0.011367
     23 H4          4.9730    2.8930   -0.6240 hc        1 683      0.011367
     24 H5          5.6900    1.2830   -0.1990 hc        1 683      0.011367
     25 H6          2.5500    3.0100   -1.3350 ha        1 683      0.088000
     26 H7          0.2940    2.0960   -0.9680 ha        1 683      0.124000
     27 H8         -0.4110   -1.3210    0.1240 hn        1 683      0.514800
     28 H9         -0.2870    1.9730    1.3770 ha        1 683      0.125000
     29 H10        -2.2360    3.3990    1.8770 ha        1 683      0.088000
     30 H11        -4.5160    2.7440    1.0830 ha        1 683      0.089000
     31 H12        -4.7920    0.6360   -0.2480 ha        1 683      0.137000
@<TRIPOS>BOND
     1    1    2 1   
     2    2    3 1   
     3    2    4 1   
     4    4    5 ar  
     5    4   10 ar  
     6    5    6 ar  
     7    5   21 1   
     8    6    7 1   
     9    6    8 ar  
    10    7   22 1   
    11    7   23 1   
    12    7   24 1   
    13    8    9 ar  
    14    8   25 1   
    15    9   10 ar  
    16    9   26 1   
    17   10   11 1   
    18   11   12 1   
    19   11   27 1   
    20   12   13 ar  
    21   12   17 ar  
    22   13   14 ar  
    23   13   28 1   
    24   14   15 ar  
    25   14   29 1   
    26   15   16 ar  
    27   15   30 1   
    28   16   17 ar  
    29   16   31 1   
    30   17   18 1   
    31   18   19 1   
    32   18   20 1   
@<TRIPOS>SUBSTRUCTURE
     1 683         1 TEMP              0 ****  ****    0 ROOT
