@<TRIPOS>MOLECULE
683
   32    33     1     0     0
SMALL
bcc


@<TRIPOS>ATOM
      1 OX1         0.1090    1.5520   -0.3210 o         1 683     -0.812300
      2 CY1         1.3290    1.6480   -0.6740 c         1 683      0.908200
      3 OX2         2.0840    2.5770   -0.2930 o         1 683     -0.812300
      4 CY2         1.9100    0.5850   -1.5970 ca        1 683     -0.116600
      5 CY3         3.3000    0.5670   -1.7680 ca        1 683     -0.105000
      6 CY4         3.9250   -0.3820   -2.5770 ca        1 683     -0.081300
      7 C4          5.3950   -0.3700   -2.7560 c3        1 683     -0.048800
      8 CY5         3.1460   -1.3460   -3.2320 ca        1 683     -0.141000
      9 CY6         1.7660   -1.3530   -3.0870 ca        1 683     -0.113000
     10 CY0         1.1450   -0.3850   -2.2720 ca        1 683      0.003600
     11 N1         -0.3120   -0.4330   -2.1240 n4        1 683     -0.549800
     12 CX2        -1.0180    0.1930   -3.2460 ca        1 683      0.008600
     13 CX3        -1.1530    1.5960   -3.2470 ca        1 683     -0.116000
     14 CX4        -1.8350    2.2170   -4.2870 ca        1 683     -0.142000
     15 CX5        -2.3790    1.4560   -5.3230 ca        1 683     -0.133000
     16 CX6        -2.2480    0.0720   -5.3130 ca        1 683     -0.106000
     17 CX1        -1.5710   -0.5880   -4.2790 ca        1 683     -0.119600
     18 CX0        -1.4980   -2.1080   -4.3410 c         1 683      0.908200
     19 OY1        -1.0950   -2.7450   -3.3150 o         1 683     -0.812300
     20 OY2        -1.8470   -2.6720   -5.4080 o         1 683     -0.812300
     21 H2          3.8870    1.3380   -1.2400 ha        1 683      0.166000
     22 H3          5.8960    0.1940   -1.9310 hc        1 683      0.038367
     23 H4          5.8020   -1.4120   -2.7720 hc        1 683      0.038367
     24 H5          5.6570    0.1220   -3.7260 hc        1 683      0.038367
     25 H6          3.6290   -2.1030   -3.8660 ha        1 683      0.129000
     26 H7          1.1510   -2.1200   -3.5980 ha        1 683      0.185000
     27 H8         -0.5640    0.0810   -1.2450 hn        1 683      0.499800
     28 H9         -0.7250    2.1930   -2.4180 ha        1 683      0.185000
     29 H10        -1.9400    3.3110   -4.2880 ha        1 683      0.128000
     30 H11        -2.9130    1.9520   -6.1460 ha        1 683      0.121000
     31 H12        -2.6690   -0.5490   -6.1240 ha        1 683      0.165000
     32 H121       -0.6080   -1.4390   -2.0790 hn        1 683      0.499800
@<TRIPOS>BOND
     1    1    2 1   
     2    2    3 1   
     3    2    4 1   
     4    4    5 ar  
     5    4   10 ar  
     6    5    6 ar  
     7    5   21 1   
     8    6    7 1   
     9    6    8 ar  
    10    7   22 1   
    11    7   23 1   
    12    7   24 1   
    13    8    9 ar  
    14    8   25 1   
    15    9   10 ar  
    16    9   26 1   
    17   10   11 1   
    18   11   12 1   
    19   11   27 1   
    20   11   32 1   
    21   12   13 ar  
    22   12   17 ar  
    23   13   14 ar  
    24   13   28 1   
    25   14   15 ar  
    26   14   29 1   
    27   15   16 ar  
    28   15   30 1   
    29   16   17 ar  
    30   16   31 1   
    31   17   18 1   
    32   18   19 1   
    33   18   20 1   
@<TRIPOS>SUBSTRUCTURE
     1 683         1 TEMP              0 ****  ****    0 ROOT
