@<TRIPOS>MOLECULE
683
   31    24     1     0     0
SMALL
bcc


@<TRIPOS>ATOM
      1 OX1        -3.1200    1.1260    1.6170 o         1 683     -0.574000
      2 CY1        -1.8890    1.3860    1.5720 c1        1 683      0.360000
      3 OX2        -1.2490    1.5880    2.6380 o         1 683     -0.574000
      4 CY2        -1.1860    1.4920    0.2370 c1        1 683     -0.011500
      5 CY3        -1.0820    2.7210   -0.3960 c1        1 683     -0.150000
      6 CY4        -0.4670    2.8140   -1.6350 c1        1 683     -0.183000
      7 C4         -0.4120    4.1430   -2.3540 c3        1 683     -0.140000
      8 CY5         0.0450    1.6770   -2.2410 c1        1 683     -0.118000
      9 CY6        -0.0590    0.4480   -1.6080 c1        1 683     -0.150000
     10 CY0        -0.6740    0.3550   -0.3690 c1        1 683     -0.011500
     11 N1         -0.8630   -0.9180    0.2360 n2        1 683     -0.250000
     12 CX2         0.2480   -1.7810    0.4370 c2        1 683      0.125000
     13 CX3         0.9370   -2.2870   -0.6540 c2        1 683     -0.214000
     14 CX4         1.9690   -3.1920   -0.4630 c1        1 683     -0.137000
     15 CX5         2.3140   -3.5900    0.8190 c1        1 683     -0.154500
     16 CX6         1.6250   -3.0840    1.9100 c1        1 683     -0.154500
     17 CX1         0.5930   -2.1790    1.7190 c1        1 683     -0.135000
     18 CX0        -0.1920   -1.6650    2.9070 c1        1 683      0.360000
     19 OY1        -1.2870   -2.2030    3.2180 o         1 683     -0.543000
     20 OY2         0.2660   -0.7220    3.6030 os        1 683     -0.599000
     21 H2         -1.4580    3.5190    0.0230 ha        1 683      0.132500
     22 H3         -1.3040    4.5480   -2.3620 hc        1 683      0.050667
     23 H4          0.2130    4.7400   -1.8910 hc        1 683      0.050667
     24 H5         -0.1080    4.0040   -3.2750 hc        1 683      0.050667
     25 H6          0.4780    1.7420   -3.1130 ha        1 683      0.088000
     26 H7          0.3010   -0.3520   -2.0340 ha        1 683      0.132500
     27 H8         -1.6990   -1.1870    0.4790 hn        1 683      0.310000
     28 H9          0.6940   -2.0080   -1.5560 ha        1 683      0.125000
     29 H10         2.4540   -3.5490   -1.2320 ha        1 683      0.088000
     30 H11         3.0440   -4.2240    0.9540 ha        1 683      0.113000
     31 H12         1.8680   -3.3640    2.8130 ha        1 683      0.113000
@<TRIPOS>BOND
     1    1    2 1   
     2    2    3 1   
     3    4    5 1   
     4    4   10 1   
     5    5   21 1   
     6    6    7 1   
     7    6    8 1   
     8    7   22 1   
     9    7   23 1   
    10    7   24 1   
    11    8   25 1   
    12    9   10 1   
    13    9   26 1   
    14   11   12 1   
    15   11   27 1   
    16   12   13 1   
    17   12   17 1   
    18   13   14 1   
    19   13   28 1   
    20   14   29 1   
    21   15   16 1   
    22   15   30 1   
    23   16   31 1   
    24   18   19 1   
@<TRIPOS>SUBSTRUCTURE
     1 683         1 TEMP              0 ****  ****    0 ROOT
