@<TRIPOS>MOLECULE
683
   31    32     1     0     0
SMALL
bcc


@<TRIPOS>ATOM
      1 OX1         0.1380    0.6620    0.1450 o         1 683     -0.839300
      2 CY1         1.3300    0.2490    0.0840 c         1 683      0.911200
      3 OX2         2.0390    0.0290    1.1130 o         1 683     -0.839300
      4 CY2         1.9880    0.0570   -1.2740 ca        1 683     -0.181600
      5 CY3         3.3800    0.1100   -1.3020 ca        1 683     -0.075000
      6 CY4         4.1110    0.0240   -2.4910 ca        1 683     -0.190300
      7 C4          5.5870    0.1100   -2.4850 c3        1 683     -0.014800
      8 CY5         3.4100   -0.1330   -3.6890 ca        1 683     -0.118000
      9 CY6         2.0260   -0.2130   -3.6950 ca        1 683     -0.225000
     10 CY0         1.2720   -0.1270   -2.4910 ca        1 683      0.219600
     11 N1         -0.1060   -0.3090   -2.5220 nu        1 683     -0.618000
     12 CX2        -0.8930    0.1200   -3.5950 ca        1 683      0.206600
     13 CX3        -0.4940    1.2250   -4.3930 ca        1 683     -0.214000
     14 CX4        -1.2670    1.6610   -5.4610 ca        1 683     -0.136000
     15 CX5        -2.4620    1.0190   -5.7710 ca        1 683     -0.215000
     16 CX6        -2.8690   -0.0660   -4.9970 ca        1 683     -0.094000
     17 CX1        -2.1160   -0.5310   -3.9180 ca        1 683     -0.155600
     18 CX0        -2.6710   -1.7320   -3.1670 c         1 683      0.911200
     19 OY1        -2.4410   -1.8620   -1.9350 o         1 683     -0.836300
     20 OY2        -3.3830   -2.5470   -3.8320 o         1 683     -0.836300
     21 H2          3.9030    0.2280   -0.3370 ha        1 683      0.141000
     22 H3          6.0000   -0.1710   -1.4840 hc        1 683      0.011033
     23 H4          5.9200    1.1540   -2.7150 hc        1 683      0.011033
     24 H5          6.0320   -0.5700   -3.2530 hc        1 683      0.011033
     25 H6          3.9600   -0.2050   -4.6380 ha        1 683      0.088000
     26 H7          1.5040   -0.3590   -4.6520 ha        1 683      0.124000
     27 H8         -0.5860   -0.5160   -1.6570 hn        1 683      0.514800
     28 H9          0.4400    1.7560   -4.1540 ha        1 683      0.125000
     29 H10        -0.9310    2.5220   -6.0560 ha        1 683      0.088000
     30 H11        -3.0740    1.3610   -6.6150 ha        1 683      0.089000
     31 H12        -3.7990   -0.6070   -5.2380 ha        1 683      0.137000
@<TRIPOS>BOND
     1    1    2 1   
     2    2    3 1   
     3    2    4 1   
     4    4    5 ar  
     5    4   10 ar  
     6    5    6 ar  
     7    5   21 1   
     8    6    7 1   
     9    6    8 ar  
    10    7   22 1   
    11    7   23 1   
    12    7   24 1   
    13    8    9 ar  
    14    8   25 1   
    15    9   10 ar  
    16    9   26 1   
    17   10   11 1   
    18   11   12 1   
    19   11   27 1   
    20   12   13 ar  
    21   12   17 ar  
    22   13   14 ar  
    23   13   28 1   
    24   14   15 ar  
    25   14   29 1   
    26   15   16 ar  
    27   15   30 1   
    28   16   17 ar  
    29   16   31 1   
    30   17   18 1   
    31   18   19 1   
    32   18   20 1   
@<TRIPOS>SUBSTRUCTURE
     1 683         1 TEMP              0 ****  ****    0 ROOT
