@<TRIPOS>MOLECULE
683
   31    32     1     0     0
SMALL
bcc


@<TRIPOS>ATOM
      1 OX1         0.1240    0.6580    0.1410 o         1 683     -0.839300
      2 CY1         1.3170    0.2480    0.0860 c         1 683      0.911200
      3 OX2         2.0220    0.0310    1.1170 o         1 683     -0.839300
      4 CY2         1.9810    0.0580   -1.2700 ca        1 683     -0.181600
      5 CY3         3.3730    0.1130   -1.2920 ca        1 683     -0.075000
      6 CY4         4.1090    0.0280   -2.4790 ca        1 683     -0.190300
      7 C4          5.5850    0.1150   -2.4670 c3        1 683     -0.014800
      8 CY5         3.4130   -0.1310   -3.6790 ca        1 683     -0.118000
      9 CY6         2.0290   -0.2120   -3.6910 ca        1 683     -0.225000
     10 CY0         1.2700   -0.1280   -2.4900 ca        1 683      0.219600
     11 N1         -0.1080   -0.3120   -2.5260 nh        1 683     -0.618000
     12 CX2        -0.8910    0.1160   -3.6030 ca        1 683      0.206600
     13 CX3        -0.4910    1.2220   -4.3980 ca        1 683     -0.214000
     14 CX4        -1.2600    1.6570   -5.4690 ca        1 683     -0.137000
     15 CX5        -2.4530    1.0130   -5.7850 ca        1 683     -0.215000
     16 CX6        -2.8610   -0.0730   -5.0130 ca        1 683     -0.094000
     17 CX1        -2.1120   -0.5370   -3.9310 ca        1 683     -0.155600
     18 CX0        -2.6670   -1.7400   -3.1830 c         1 683      0.911200
     19 OY1        -2.4430   -1.8690   -1.9490 o         1 683     -0.836300
     20 OY2        -3.3740   -2.5560   -3.8510 o         1 683     -0.836300
     21 H2          3.8910    0.2320   -0.3250 ha        1 683      0.141000
     22 H3          5.9190    1.1500   -2.7330 hc        1 683      0.011033
     23 H4          5.9930   -0.1310   -1.4560 hc        1 683      0.011033
     24 H5          6.0340   -0.5910   -3.2090 hc        1 683      0.011033
     25 H6          3.9670   -0.2010   -4.6260 ha        1 683      0.088000
     26 H7          1.5100   -0.3590   -4.6500 ha        1 683      0.124000
     27 H8         -0.5910   -0.5190   -1.6630 hn        1 683      0.514800
     28 H9          0.4420    1.7550   -4.1550 ha        1 683      0.125000
     29 H10        -0.9240    2.5190   -6.0620 ha        1 683      0.088000
     30 H11        -3.0620    1.3540   -6.6310 ha        1 683      0.089000
     31 H12        -3.7890   -0.6150   -5.2580 ha        1 683      0.137000
@<TRIPOS>BOND
     1    1    2 1   
     2    2    3 1   
     3    2    4 1   
     4    4    5 ar  
     5    4   10 ar  
     6    5    6 ar  
     7    5   21 1   
     8    6    7 1   
     9    6    8 ar  
    10    7   22 1   
    11    7   23 1   
    12    7   24 1   
    13    8    9 ar  
    14    8   25 1   
    15    9   10 ar  
    16    9   26 1   
    17   10   11 1   
    18   11   12 1   
    19   11   27 1   
    20   12   13 ar  
    21   12   17 ar  
    22   13   14 ar  
    23   13   28 1   
    24   14   15 ar  
    25   14   29 1   
    26   15   16 ar  
    27   15   30 1   
    28   16   17 ar  
    29   16   31 1   
    30   17   18 1   
    31   18   19 1   
    32   18   20 1   
@<TRIPOS>SUBSTRUCTURE
     1 683         1 TEMP              0 ****  ****    0 ROOT
