@<TRIPOS>MOLECULE
684
   57    48     1     0     0
SMALL
bcc


@<TRIPOS>ATOM
      1 N1          3.9160    3.5500   -2.9050 n1        1 684     -0.241000
      2 C2          3.9390    4.2440   -4.0920 c1        1 684      0.199000
      3 N2          4.9300    5.2780   -4.3060 n3        1 684     -0.325000
      4 N3          2.9840    4.0110   -5.0370 n1        1 684     -0.319000
      5 C4          2.0260    3.1110   -4.8140 c1        1 684      0.251000
      6 N4          1.0930    2.7880   -5.8550 n2        1 684     -0.352000
      7 N5          1.0180    1.4840   -3.3800 n1        1 684     -0.079000
      8 C6          0.9960    0.8160   -2.2360 c1        1 684     -0.084000
      9 C7          1.9760    1.0560   -1.2670 c2        1 684     -0.040000
     10 N8          2.9210    1.9460   -1.4930 n1        1 684     -0.108000
     11 C9         -0.2970    0.0280   -1.8250 c2        1 684     -0.011000
     12 N10         0.0760   -1.2400   -1.2590 n3        1 684     -0.194000
     13 C4A         1.9990    2.4050   -3.6090 c1        1 684     -0.224000
     14 C8A         2.9440    2.6350   -2.6740 c1        1 684      0.093000
     15 OAC        -1.1140   -1.0470    9.8030 o         1 684     -0.579500
     16 OAD        -2.4190    0.7270    9.2360 o         1 684     -0.579500
     17 CAE        -2.2290   -3.8110   -3.6690 c1        1 684     -0.121167
     18 CAF        -0.9560   -4.2410   -3.3100 c1        1 684     -0.121167
     19 CAG         0.2570   -1.7250    2.6120 c1        1 684     -0.206000
     20 CAH        -2.7310   -2.6400   -3.1550 c1        1 684     -0.121167
     21 CAI        -0.1810   -3.4770   -2.4180 c1        1 684     -0.121167
     22 CAJ         0.7080   -1.6910    1.2670 c1        1 684     -0.072000
     23 CAK        -2.1430   -0.3970   -1.9740 c1        1 684     -0.121167
     24 CAL        -1.9820    0.1160   -0.5510 c1        1 684     -0.121167
     25 CAN        -1.8920   -0.8520    1.9200 c1        1 684     -0.157000
     26 CAO        -1.5320   -0.7190    6.5830 c3        1 684     -0.148000
     27 CAP        -0.8620   -0.5730    5.2100 c3        1 684     -0.026000
     28 CAQ        -0.7480    0.0240    7.5990 c3        1 684     -0.229000
     29 OAW        -1.6820   -1.1700    4.2160 os        1 684     -0.206000
     30 CAX        -1.4460   -0.0800    8.9520 c2        1 684      0.332000
     31 CBA        -1.0410   -1.3050    2.9280 c1        1 684      0.112000
     32 CBC        -1.9620   -1.8810   -2.2690 c1        1 684     -0.054000
     33 CBD        -1.4300   -0.8170    0.5410 c1        1 684     -0.036000
     34 CBF        -0.6790   -2.3130   -1.9060 c1        1 684      0.032000
     35 CBG        -0.1570   -1.2300    0.2360 c2        1 684     -0.038000
     36 HN2         4.8530    5.8330   -4.9990 hn        1 684      0.221500
     37 HN2A        5.5710    5.3850   -3.7380 hn        1 684      0.221500
     38 HN4         0.2200    3.2630   -5.9060 hn        1 684      0.243500
     39 HN4A        1.3070    2.1930   -6.4700 hn        1 684      0.243500
     40 H7          1.9620    0.5630   -0.4210 h4        1 684      0.186000
     41 H9         -0.8900   -0.1290   -2.6670 h4        1 684      0.104500
     42 H9A        -0.7640    0.5110   -1.2090 h4        1 684      0.104500
     43 HAE        -2.7560   -4.3300   -4.2740 ha        1 684      0.130667
     44 HAF        -0.5730   -5.0010   -3.7420 ha        1 684      0.130667
     45 HAG         0.8490   -2.0380    3.3160 ha        1 684      0.148000
     46 HAH        -3.6000   -2.2670   -3.5130 ha        1 684      0.130667
     47 HAI         0.7310   -3.7520   -2.2040 ha        1 684      0.130667
     48 HAJ         1.6690   -1.9340    1.0480 ha        1 684      0.137000
     49 HAK        -2.5070    0.2580   -2.7400 ha        1 684      0.130667
     50 HAL        -2.3450    0.9810   -0.3060 ha        1 684      0.130667
     51 HAN        -2.8240   -0.5480    2.1490 ha        1 684      0.152000
     52 HAO        -2.3900   -0.3720    6.5450 hc        1 684      0.103000
     53 HAOA       -1.5710   -1.6070    6.8120 hc        1 684      0.103000
     54 HAP         0.0410   -1.0310    5.2220 h1        1 684      0.070000
     55 HAPA       -0.7500    0.3330    5.0180 h1        1 684      0.070000
     56 HAQ        -0.6830    1.0330    7.3170 hc        1 684      0.061500
     57 HAQA        0.1520   -0.3560    7.6620 hc        1 684      0.061500
@<TRIPOS>BOND
     1    1    2 1   
     2    2    3 1   
     3    3   36 1   
     4    3   37 1   
     5    4    5 1   
     6    5   13 1   
     7    6   38 1   
     8    6   39 1   
     9    7    8 1   
    10    8    9 1   
    11    9   10 1   
    12    9   40 1   
    13   11   12 1   
    14   11   41 1   
    15   11   42 1   
    16   12   34 1   
    17   12   35 1   
    18   13   14 1   
    19   15   30 1   
    20   16   30 1   
    21   17   20 1   
    22   17   43 1   
    23   18   21 1   
    24   18   44 1   
    25   19   31 1   
    26   19   45 1   
    27   20   46 1   
    28   21   47 1   
    29   22   35 1   
    30   22   48 1   
    31   23   24 1   
    32   23   49 1   
    33   24   50 1   
    34   25   33 1   
    35   25   51 1   
    36   26   27 1   
    37   26   28 1   
    38   26   52 1   
    39   26   53 1   
    40   27   29 1   
    41   27   54 1   
    42   27   55 1   
    43   28   30 1   
    44   28   56 1   
    45   28   57 1   
    46   29   31 1   
    47   32   34 1   
    48   33   35 1   
@<TRIPOS>SUBSTRUCTURE
     1 684         1 TEMP              0 ****  ****    0 ROOT
