@<TRIPOS>MOLECULE
684
   59    62     1     0     0
SMALL
bcc


@<TRIPOS>ATOM
      1 N1         -0.2720    2.0210    1.7560 n2        1 684     -0.264000
      2 C2          0.4610    1.5690    0.5700 c3        1 684      0.155000
      3 N2          1.8980    1.8830    0.5660 n3        1 684     -0.380000
      4 N3          0.2180    0.1420    0.2150 n3        1 684     -0.316000
      5 C4          0.0530   -0.7810    1.2500 c2        1 684      0.294000
      6 N4          0.3060   -2.1120    1.0120 n3        1 684     -0.359000
      7 N5         -0.6100   -1.2680    3.5260 n2        1 684     -0.090000
      8 C6         -0.5180   -1.0500    4.7910 c2        1 684     -0.148000
      9 C7         -2.1070    1.9540    4.5970 c1        1 684      0.136000
     10 N8         -1.4230    1.5650    3.7150 n2        1 684     -0.291000
     11 C9         -0.6780   -2.1810    5.7850 c3        1 684      0.013000
     12 N10        -1.9660   -2.8760    5.7360 nh        1 684     -0.129000
     13 C4A        -0.3980   -0.3240    2.5310 c2        1 684     -0.327000
     14 C8A        -0.6570    1.1290    2.6340 c2        1 684      0.240000
     15 OAC        -3.0060   -1.7440   12.0570 os        1 684     -0.278000
     16 OAD        -5.1610   -0.8330   11.9210 o         1 684     -0.347000
     17 CAE        -3.6080   -3.7600    2.6650 cx        1 684     -0.148000
     18 CAF        -3.8890   -4.5420    3.8940 cu        1 684     -0.079000
     19 CAG        -3.9130   -2.0760    8.8000 ca        1 684     -0.136000
     20 CAH        -4.8940   -3.6580    3.3980 cu        1 684     -0.084000
     21 CAI        -3.3090   -4.7550    5.0760 c2        1 684     -0.169000
     22 CAJ        -2.9730   -2.5540    7.9030 ca        1 684     -0.112000
     23 CAK        -5.1100   -1.3380    3.7560 c2        1 684     -0.070000
     24 CAL        -4.2600   -0.8600    4.6810 c2        1 684     -0.171000
     25 CAN        -5.0120   -0.9220    6.9450 ca        1 684     -0.076000
     26 CAO        -2.8710   -1.7790   14.5850 c3        1 684     -0.234000
     27 CAP        -6.4580   -1.3660   10.0730 c2        1 684      0.251000
     28 CAQ        -2.9260   -0.9670   13.3410 cx        1 684      0.035000
     29 CAX        -4.0760   -0.9970   12.4490 cu        1 684      0.311000
     30 CBA        -4.9310   -1.2720    8.2860 ca        1 684     -0.068000
     31 CBC        -5.6510   -2.6910    3.9140 c2        1 684     -0.133000
     32 CBD        -4.0480   -1.4070    6.0300 ca        1 684      0.025000
     33 CBF        -2.0060   -4.0940    5.2180 c1        1 684     -0.010000
     34 CBG        -3.0180   -2.2510    6.5110 ca        1 684      0.035000
     35 HN2        -0.0050    2.1470   -0.3020 h3        1 684      0.147000
     36 HN2A        2.3590    1.6260    1.4150 hn        1 684      0.171500
     37 HN4         0.7280   -0.1570   -0.5920 hn        1 684      0.231000
     38 HN4A       -0.0030   -2.7860    1.6730 hn        1 684      0.248000
     39 H7         -0.2690   -0.0870    5.2770 h4        1 684      0.114000
     40 H9         -0.5430   -1.7560    6.8200 h1        1 684      0.118500
     41 H9A         0.1290   -2.9500    5.5970 h1        1 684      0.118500
     42 HAE        -2.8740   -2.9320    2.6590 hc        1 684      0.132500
     43 HAF        -3.6160   -4.3170    1.7060 hc        1 684      0.132500
     44 HAG        -3.8340   -2.2970    9.8770 ha        1 684      0.163000
     45 HAH        -6.5040   -2.8610    4.5820 ha        1 684      0.147000
     46 HAI        -3.7850   -5.2710    5.9200 ha        1 684      0.150000
     47 HAJ        -2.1570   -3.1890    8.2940 ha        1 684      0.172000
     48 HAK        -3.7370    0.1020    4.5180 ha        1 684      0.165000
     49 HAL        -5.3090   -0.7900    2.8200 ha        1 684      0.159000
     50 HAN        -5.8150   -0.2560    6.5860 ha        1 684      0.178000
     51 HAO        -7.1980   -0.7930   10.6790 h4        1 684      0.207500
     52 HAOA       -3.5530   -2.6630   14.5370 hc        1 684      0.121000
     53 HAP        -1.8260   -2.1480   14.7430 hc        1 684      0.121000
     54 HAPA       -6.2180   -2.4290   10.2610 h4        1 684      0.207500
     55 HAQ        -3.1630   -1.1410   15.4570 hc        1 684      0.121000
     56 HAQA       -2.2170   -0.1130   13.2810 h1        1 684      0.176000
     57 OAW        -5.9020   -0.6680    9.1390 os        1 684      0.002000
     58 H23         2.0400    2.8550    0.3800 hn        1 684      0.171500
     59 H43         0.5360   -2.4290    0.1010 hn        1 684      0.248000
@<TRIPOS>BOND
     1    1    2 1   
     2    1   14 1   
     3    2    3 1   
     4    2    4 1   
     5    2   35 1   
     6    3   36 1   
     7    3   58 1   
     8    4    5 1   
     9    4   37 1   
    10    5    6 1   
    11    5   13 1   
    12    6   38 1   
    13    6   59 1   
    14    7    8 1   
    15    7   13 1   
    16    8   11 1   
    17    8   39 1   
    18    9   10 1   
    19   10   14 1   
    20   11   12 1   
    21   11   40 1   
    22   11   41 1   
    23   12   33 1   
    24   12   34 1   
    25   13   14 1   
    26   15   28 1   
    27   15   29 1   
    28   16   29 1   
    29   17   18 1   
    30   17   20 1   
    31   17   42 1   
    32   17   43 1   
    33   18   20 1   
    34   18   21 1   
    35   19   22 1   
    36   19   30 1   
    37   19   44 1   
    38   20   31 1   
    39   21   33 1   
    40   21   46 1   
    41   22   34 1   
    42   22   47 1   
    43   23   24 1   
    44   23   31 1   
    45   23   49 1   
    46   24   32 1   
    47   24   48 1   
    48   25   30 1   
    49   25   32 1   
    50   25   50 1   
    51   26   28 1   
    52   26   52 1   
    53   26   53 1   
    54   26   55 1   
    55   27   51 1   
    56   27   54 1   
    57   27   57 1   
    58   28   29 1   
    59   28   56 1   
    60   30   57 1   
    61   31   45 1   
    62   32   34 1   
@<TRIPOS>SUBSTRUCTURE
     1 684         1 TEMP              0 ****  ****    0 ROOT
