@<TRIPOS>MOLECULE
684
   57    58     1     0     0
SMALL
bcc


@<TRIPOS>ATOM
      1 N1         -0.2400    0.2250   -0.7140 n2        1 684     -0.263000
      2 C2          1.1150    0.4780   -0.7660 c2        1 684      0.186000
      3 N2          1.6680    0.7550   -2.0280 nv        1 684     -0.317000
      4 N3          1.9640    0.5470    0.3220 n2        1 684     -0.298000
      5 C4          1.4140    0.3710    1.5580 c2        1 684      0.221000
      6 N4          2.2620    0.3550    2.6470 nv        1 684     -0.336000
      7 N5         -0.5440    0.0940    3.0330 n2        1 684     -0.171000
      8 C6         -1.3510   -0.8300    3.4270 c2        1 684     -0.014000
      9 C7         -3.3240   -0.2890    0.5620 c1        1 684      0.160000
     10 N8         -2.1510   -0.1350    0.5880 n2        1 684     -0.291000
     11 C9         -1.9360   -0.7760    4.8250 c3        1 684      0.000000
     12 N10        -2.0660   -2.0930    5.4430 nh        1 684     -0.116000
     13 C4A        -0.0150    0.1310    1.7340 c2        1 684     -0.185000
     14 C8A        -0.7790    0.0690    0.5300 c2        1 684      0.207000
     15 OAC        -6.1840   -3.3140   15.0820 o         1 684     -0.578500
     16 OAD        -5.0650   -1.7860   16.2700 o         1 684     -0.578500
     17 CAE        -6.2310   -1.4760    1.9930 c2        1 684     -0.183000
     18 CAF        -1.1260   -5.5320    4.7520 c1        1 684      0.258000
     19 CAG        -2.6220   -2.3210    9.1330 ca        1 684     -0.213000
     20 CAH        -6.4990   -1.0190    3.1760 c1        1 684     -0.145000
     21 CAI        -1.6320   -4.4890    5.3730 c2        1 684     -0.523000
     22 CAJ        -2.0050   -2.3130    7.8870 ca        1 684     -0.086000
     23 CAK        -5.9880   -0.7900    5.5570 c2        1 684     -0.105000
     24 CAL        -4.9390   -1.6300    5.6070 c2        1 684     -0.137000
     25 CAN        -4.7550   -1.8670    8.0540 ca        1 684     -0.162000
     26 CAO        -4.9720   -2.2020   12.7420 c3        1 684     -0.148000
     27 CAP        -3.9730   -2.2870   11.6030 c3        1 684     -0.027000
     28 CAQ        -4.2530   -2.2840   14.0660 c3        1 684     -0.231000
     29 CAX        -5.2520   -2.4730   15.2270 c2        1 684      0.332000
     30 CBA        -4.0020   -2.0940    9.2230 ca        1 684      0.122000
     31 CBC        -6.7680   -0.5370    4.3630 c2        1 684     -0.108000
     32 CBD        -4.1410   -1.8610    6.8020 ca        1 684      0.001000
     33 CBF        -1.5610   -3.1420    4.8240 c1        1 684     -0.065000
     34 CBG        -2.7420   -2.0880    6.7120 ca        1 684     -0.098000
     35 HN2         2.6540    0.6430   -2.1020 hn        1 684      0.217000
     36 HN2A        1.1400    0.4410   -2.8100 hn        1 684      0.217000
     37 HN4         3.2000    0.6570    2.5230 hn        1 684      0.233000
     38 HN4A        1.8640    0.4790    3.5480 hn        1 684      0.233000
     39 H7         -1.6830   -1.7010    2.8200 h4        1 684      0.148000
     40 H9         -2.9670   -0.3180    4.7450 h1        1 684      0.116500
     41 H9A        -1.3150   -0.1310    5.5110 h1        1 684      0.116500
     42 HAE        -6.6430   -2.4270    1.6240 ha        1 684      0.144500
     43 HAF        -5.5630   -0.9440    1.2920 ha        1 684      0.144500
     44 HAG        -2.0200   -2.5030   10.0350 ha        1 684      0.151000
     45 HAH        -7.6450    0.1240    4.4970 ha        1 684      0.139000
     46 HAI        -2.1340   -4.6550    6.3540 ha        1 684      0.193000
     47 HAJ        -0.9180   -2.4900    7.8310 ha        1 684      0.137000
     48 HAK        -4.6420   -2.1980    4.7070 ha        1 684      0.138000
     49 HAL        -6.3040   -0.2250    6.4520 ha        1 684      0.134000
     50 HAN        -5.8400   -1.7040    8.1460 ha        1 684      0.158000
     51 HAO        -3.4900   -3.2980   11.5580 h1        1 684      0.071000
     52 HAOA       -5.7150   -3.0410   12.6710 hc        1 684      0.104000
     53 HAP        -5.5440   -1.2420   12.6690 hc        1 684      0.104000
     54 HAPA       -3.1850   -1.4940   11.6910 h1        1 684      0.071000
     55 HAQ        -3.5570   -3.1600   14.0740 hc        1 684      0.061500
     56 HAQA       -3.6510   -1.3590   14.2430 hc        1 684      0.061500
     57 OAW        -4.7190   -2.0710   10.3880 os        1 684     -0.202000
@<TRIPOS>BOND
     1    1    2 1   
     2    1   14 1   
     3    2    3 1   
     4    2    4 1   
     5    3   35 1   
     6    3   36 1   
     7    4    5 1   
     8    5    6 1   
     9    5   13 1   
    10    6   37 1   
    11    6   38 1   
    12    7    8 1   
    13    7   13 1   
    14    8   11 1   
    15    8   39 1   
    16    9   10 1   
    17   10   14 1   
    18   11   12 1   
    19   11   40 1   
    20   11   41 1   
    21   12   33 1   
    22   12   34 1   
    23   13   14 1   
    24   15   29 1   
    25   16   29 1   
    26   17   20 1   
    27   17   42 1   
    28   17   43 1   
    29   18   21 1   
    30   19   22 1   
    31   19   30 1   
    32   19   44 1   
    33   20   31 1   
    34   21   33 1   
    35   21   46 1   
    36   22   34 1   
    37   22   47 1   
    38   23   24 1   
    39   23   31 1   
    40   23   49 1   
    41   24   32 1   
    42   24   48 1   
    43   25   30 1   
    44   25   32 1   
    45   25   50 1   
    46   26   27 1   
    47   26   28 1   
    48   26   52 1   
    49   26   53 1   
    50   27   51 1   
    51   27   54 1   
    52   27   57 1   
    53   28   29 1   
    54   28   55 1   
    55   28   56 1   
    56   30   57 1   
    57   31   45 1   
    58   32   34 1   
@<TRIPOS>SUBSTRUCTURE
     1 684         1 TEMP              0 ****  ****    0 ROOT
