@<TRIPOS>MOLECULE
684
   57    61     1     0     0
SMALL
bcc


@<TRIPOS>ATOM
      1 N1          6.7160    1.1880   -0.5350 nb        1 684     -0.772000
      2 C2          6.8940    2.4210    0.0380 ca        1 684      0.920900
      3 N2          8.2020    2.9150    0.0990 nh        1 684     -0.928500
      4 N3          5.8960    3.2660    0.5290 nb        1 684     -0.848000
      5 C4          4.6120    2.8620    0.3830 ca        1 684      0.712900
      6 N4          3.6060    3.6650    0.8490 nh        1 684     -0.954500
      7 N5          2.9900    1.1670   -0.4110 nb        1 684     -0.582000
      8 C6          2.7900   -0.0140   -0.9840 ca        1 684      0.268300
      9 C7          3.9100   -0.8300   -1.4120 ca        1 684      0.345900
     10 N8          5.1720   -0.4730   -1.2830 nb        1 684     -0.632000
     11 C9          1.3890   -0.5330   -1.2240 c3        1 684     -0.036000
     12 N10         0.6850   -0.8360    0.0190 na        1 684     -0.077300
     13 C4A         4.2910    1.5740   -0.2540 ca        1 684      0.037000
     14 C8A         5.4160    0.7720   -0.6870 ca        1 684      0.618000
     15 OAC        -9.3200    2.0760   -1.3180 o         1 684     -0.844800
     16 OAD       -10.1130    2.2360    0.7660 o         1 684     -0.844800
     17 CAE         2.0300   -4.3610    1.9660 ca        1 684     -0.134000
     18 CAF         2.2820   -3.0990    2.5030 ca        1 684     -0.132000
     19 CAG        -2.7290    0.5810    0.4570 ca        1 684     -0.208000
     20 CAH         1.3100   -4.4770    0.7830 ca        1 684     -0.119000
     21 CAI         1.8270   -1.9560    1.8560 ca        1 684     -0.104000
     22 CAJ        -1.3580    0.3760    0.5480 ca        1 684     -0.069000
     23 CAK         0.0470   -3.5300   -1.0920 cc        1 684     -0.138000
     24 CAL        -0.9870   -2.7810   -1.5060 cd        1 684     -0.102000
     25 CAN        -2.9210   -1.4020   -0.9380 ca        1 684     -0.156000
     26 CAO        -6.9780    0.8630   -0.2030 c3        1 684     -0.069400
     27 CAP        -5.5070    0.9350    0.1630 c3        1 684      0.124400
     28 CAQ        -7.7420    1.9550    0.5040 c3        1 684     -0.200400
     29 CAX        -9.1700    2.0920   -0.0630 c         1 684      0.912600
     30 CBA        -3.5180   -0.3050   -0.2910 ca        1 684      0.155100
     31 CBC         0.8260   -3.3390    0.1180 ca        1 684     -0.060000
     32 CBD        -1.5440   -1.6190   -0.8360 ca        1 684     -0.040000
     33 CBF         1.1020   -2.0560    0.6490 ca        1 684     -0.015200
     34 CBG        -0.7420   -0.7130   -0.0980 ca        1 684     -0.077200
     35 HN2         8.9330    2.2520   -0.0130 hn        1 684      0.426800
     36 HN2A        8.3710    3.6580    0.7360 hn        1 684      0.426800
     37 HN4         3.8090    4.5410    1.2640 hn        1 684      0.453800
     38 HN4A        2.6620    3.3850    0.7420 hn        1 684      0.453800
     39 H7          3.7230   -1.8160   -1.8780 h4        1 684      0.036100
     40 H9          0.8020    0.2590   -1.7740 h1        1 684      0.059700
     41 H9A         1.4640   -1.4380   -1.8960 h1        1 684      0.059700
     42 HAE         2.3960   -5.2620    2.4790 ha        1 684      0.128000
     43 HAF         2.8450   -3.0040    3.4430 ha        1 684      0.129000
     44 HAG        -3.1840    1.4400    0.9730 ha        1 684      0.147000
     45 HAH         1.1010   -5.4730    0.3640 ha        1 684      0.130000
     46 HAI         2.0320   -0.9640    2.2880 ha        1 684      0.146000
     47 HAJ        -0.7470    1.0810    1.1330 ha        1 684      0.140000
     48 HAK         0.3340   -4.4180   -1.6860 ha        1 684      0.123000
     49 HAL        -1.5220   -3.0760   -2.4290 ha        1 684      0.130000
     50 HAN        -3.5560   -2.0900   -1.5150 ha        1 684      0.151000
     51 HAO        -7.1080    0.9770   -1.3120 hc        1 684      0.063700
     52 HAOA       -7.3860   -0.1410    0.0800 hc        1 684      0.063700
     53 HAP        -5.0380    1.8770   -0.2270 h1        1 684      0.029700
     54 HAPA       -5.3580    0.8690    1.2720 h1        1 684      0.029700
     55 HAQ        -7.7970    1.7490    1.6010 hc        1 684      0.021700
     56 HAQA       -7.2280    2.9400    0.3610 hc        1 684      0.021700
     57 OAW        -4.8740   -0.2000   -0.4600 os        1 684     -0.322900
@<TRIPOS>BOND
     1    1    2 ar  
     2    1   14 ar  
     3    2    3 1   
     4    2    4 ar  
     5    3   35 1   
     6    3   36 1   
     7    4    5 ar  
     8    5    6 1   
     9    5   13 ar  
    10    6   37 1   
    11    6   38 1   
    12    7    8 ar  
    13    7   13 ar  
    14    8    9 ar  
    15    8   11 1   
    16    9   10 ar  
    17    9   39 1   
    18   10   14 ar  
    19   11   12 1   
    20   11   40 1   
    21   11   41 1   
    22   12   33 1   
    23   12   34 1   
    24   13   14 ar  
    25   15   29 1   
    26   16   29 1   
    27   17   18 ar  
    28   17   20 ar  
    29   17   42 1   
    30   18   21 ar  
    31   18   43 1   
    32   19   22 ar  
    33   19   30 ar  
    34   19   44 1   
    35   20   31 ar  
    36   20   45 1   
    37   21   33 ar  
    38   21   46 1   
    39   22   34 ar  
    40   22   47 1   
    41   23   24 2   
    42   23   31 1   
    43   23   48 1   
    44   24   32 1   
    45   24   49 1   
    46   25   30 ar  
    47   25   32 ar  
    48   25   50 1   
    49   26   27 1   
    50   26   28 1   
    51   26   51 1   
    52   26   52 1   
    53   27   53 1   
    54   27   54 1   
    55   27   57 1   
    56   28   29 1   
    57   28   55 1   
    58   28   56 1   
    59   30   57 1   
    60   31   33 ar  
    61   32   34 ar  
@<TRIPOS>SUBSTRUCTURE
     1 684         1 TEMP              0 ****  ****    0 ROOT
