@<TRIPOS>MOLECULE
684
   57    57     1     0     0
SMALL
bcc


@<TRIPOS>ATOM
      1 N1          0.3960    1.0610   -0.8790 n2        1 684     -0.263000
      2 C2          1.7700    0.9500   -0.9150 c2        1 684      0.181000
      3 N2          2.4120    1.3070   -2.1160 nh        1 684     -0.315000
      4 N3          2.5770    0.5830    0.1440 n2        1 684     -0.298000
      5 C4          1.9670    0.3290    1.3380 c2        1 684      0.219000
      6 N4          2.7510   -0.1210    2.3820 nh        1 684     -0.337000
      7 N5         -0.0310    0.3190    2.7840 n2        1 684     -0.173000
      8 C6         -1.0620   -0.4160    3.0230 c2        1 684     -0.002000
      9 C7         -2.7480    1.1500    0.3630 c1        1 684      0.169000
     10 N8         -1.5760    0.9820    0.3810 n2        1 684     -0.298000
     11 C9         -1.6540   -0.4720    4.4170 c3        1 684     -0.017000
     12 N10        -1.8630   -1.8460    4.8730 nh        1 684     -0.114000
     13 C4A         0.5230    0.4530    1.5020 c2        1 684     -0.181000
     14 C8A        -0.1990    0.8230    0.3270 c2        1 684      0.205000
     15 OAC        -6.0300   -2.8730   12.7390 o         1 684     -0.589000
     16 OAD        -7.1780   -2.2640   14.5480 o         1 684     -0.589000
     17 CAE        -8.3870   -3.1670    3.7930 c2        1 684     -0.182000
     18 CAF        -1.2080   -5.2090    3.6610 c1        1 684      0.262000
     19 CAG        -2.3400   -2.7520    8.4660 ca        1 684     -0.123000
     20 CAH        -7.4930   -2.6090    4.5500 c1        1 684     -0.148000
     21 CAI        -1.6220   -4.2370    4.4460 c2        1 684     -0.527000
     22 CAJ        -1.7800   -2.6170    7.2020 ca        1 684     -0.129000
     23 CAK        -5.8330   -0.8430    4.9680 c3        1 684     -0.150000
     24 CAL        -4.4660   -0.7220    5.4090 c1        1 684     -0.052000
     25 CAN        -4.3640   -1.6460    7.6790 ca        1 684     -0.128000
     26 CAO        -4.6420   -1.0400   15.3860 c3        1 684     -0.187000
     27 CAP        -3.6110   -2.9700   10.8990 c1        1 684     -0.131000
     28 CAQ        -4.7750   -2.3890   14.7360 c3        1 684     -0.226000
     29 CAX        -6.0920   -2.5100   13.9550 c2        1 684      0.329000
     30 CBA        -3.6270   -2.2530    8.6950 ca        1 684      0.054000
     31 CBC        -6.5990   -2.0660    5.3270 c2        1 684     -0.154000
     32 CBD        -3.7950   -1.4830    6.4020 ca        1 684     -0.093000
     33 CBF        -1.4670   -2.8340    4.0930 c1        1 684     -0.062000
     34 CBG        -2.4770   -1.9660    6.1640 ca        1 684     -0.022000
     35 HN2         1.8380    1.2890   -2.9290 hn        1 684      0.214000
     36 HN2A        3.3290    0.9420   -2.2350 hn        1 684      0.214000
     37 HN4         3.7380   -0.0590    2.2960 hn        1 684      0.232500
     38 HN4A        2.3730   -0.0760    3.2990 hn        1 684      0.232500
     39 H7         -1.5950   -1.0440    2.2760 h4        1 684      0.138000
     40 H9         -2.6590    0.0560    4.3900 h1        1 684      0.136500
     41 H9A        -0.9990    0.0470    5.1740 h1        1 684      0.136500
     42 HAE        -8.1330   -3.9510    3.0650 ha        1 684      0.129000
     43 HAF        -9.4510   -2.8920    3.8410 ha        1 684      0.129000
     44 HAG        -1.8010   -3.2430    9.2950 ha        1 684      0.187000
     45 HAH        -6.3720   -2.5110    6.3140 ha        1 684      0.157000
     46 HAI        -2.1110   -4.5150    5.4070 ha        1 684      0.190000
     47 HAJ        -0.7690   -3.0150    7.0190 ha        1 684      0.143000
     48 HAK        -5.8340   -0.6910    3.8480 hc        1 684      0.150000
     49 HAL        -6.3590    0.0680    5.4000 hc        1 684      0.150000
     50 HAN        -5.3770   -1.2710    7.8930 ha        1 684      0.161000
     51 HAO        -3.7590   -1.0070   16.0690 hc        1 684      0.054333
     52 HAOA       -5.5650   -0.8140   15.9760 hc        1 684      0.054333
     53 HAP        -4.5180   -0.2420   14.6140 hc        1 684      0.054333
     54 HAPA       -4.2590   -2.9570   11.8210 ha        1 684      0.182000
     55 HAQ        -3.9130   -2.5750   14.0460 hc        1 684      0.058500
     56 HAQA       -4.7670   -3.1900   15.5180 hc        1 684      0.058500
     57 OAW        -4.2690   -2.3400    9.9450 os        1 684     -0.089000
@<TRIPOS>BOND
     1    1    2 1   
     2    1   14 1   
     3    2    3 1   
     4    2    4 1   
     5    3   35 1   
     6    3   36 1   
     7    4    5 1   
     8    5    6 1   
     9    5   13 1   
    10    6   37 1   
    11    6   38 1   
    12    7    8 1   
    13    7   13 1   
    14    8   11 1   
    15    8   39 1   
    16    9   10 1   
    17   10   14 1   
    18   11   12 1   
    19   11   40 1   
    20   11   41 1   
    21   12   33 1   
    22   12   34 1   
    23   13   14 1   
    24   15   29 1   
    25   16   29 1   
    26   17   20 1   
    27   17   42 1   
    28   17   43 1   
    29   18   21 1   
    30   19   22 1   
    31   19   30 1   
    32   19   44 1   
    33   20   31 1   
    34   21   33 1   
    35   21   46 1   
    36   22   34 1   
    37   22   47 1   
    38   23   24 1   
    39   23   31 1   
    40   23   48 1   
    41   23   49 1   
    42   24   32 1   
    43   25   30 1   
    44   25   32 1   
    45   25   50 1   
    46   26   28 1   
    47   26   51 1   
    48   26   52 1   
    49   26   53 1   
    50   27   54 1   
    51   27   57 1   
    52   28   29 1   
    53   28   55 1   
    54   28   56 1   
    55   30   57 1   
    56   31   45 1   
    57   32   34 1   
@<TRIPOS>SUBSTRUCTURE
     1 684         1 TEMP              0 ****  ****    0 ROOT
