@<TRIPOS>MOLECULE
685
   52    54     1     0     0
SMALL
bcc


@<TRIPOS>ATOM
      1 C1          0.3480   -1.7220    0.0910 c3        1 685     -0.128100
      2 C2          1.4410   -0.6650    0.1180 c3        1 685      0.125500
      3 C4          1.8380   -0.3430    1.5750 c3        1 685      0.107400
      4 O5          2.6190   -1.4220    2.0540 oh        1 685     -0.631800
      5 N6          2.6520   -1.0970   -0.6690 n4        1 685     -0.670800
      6 C7          2.4250   -1.0420   -2.1750 c         1 685      0.621700
      7 O8          1.9520    0.0140   -2.5840 o         1 685     -0.457100
      8 C9          2.8120   -2.2050   -2.9050 cc        1 685     -0.429000
      9 S10         3.4490   -3.6470   -2.3120 ss        1 685      0.041700
     10 C11         3.5490   -4.2850   -3.8890 cc        1 685      0.440400
     11 N12         3.1190   -3.4600   -4.8660 nd        1 685     -0.634000
     12 C13         2.6950   -2.2690   -4.3280 cd        1 685      0.525600
     13 C14         2.1680   -1.1660   -5.1590 c3        1 685     -0.165400
     14 C15         4.0770   -5.6370   -4.1160 ca        1 685      0.383300
     15 C16         4.2690   -6.1290   -5.4120 ca        1 685     -0.340600
     16 C17         4.7890   -7.4480   -5.5050 ca        1 685      0.467200
     17 N18         5.0950   -8.1980   -4.4510 nb        1 685     -0.687000
     18 C19         4.8810   -7.6240   -3.1880 ca        1 685      0.894900
     19 N20         5.2690   -8.3270   -2.0420 nh        1 685     -0.701300
     20 C21         5.5420   -9.7200   -2.0670 ca        1 685      0.113600
     21 C22         6.6110  -10.2340   -2.8210 ca        1 685     -0.134500
     22 C23         6.9050  -11.6020   -2.7740 ca        1 685     -0.055800
     23 C24         8.0210  -12.1400   -3.5870 c3        1 685     -0.058800
     24 C25         6.1440  -12.4520   -1.9690 ca        1 685     -0.127000
     25 C26         5.0820  -11.9500   -1.2100 ca        1 685     -0.055800
     26 C27         4.2770  -12.8680   -0.3690 c3        1 685     -0.058800
     27 C28         4.7760  -10.5890   -1.2600 ca        1 685     -0.134500
     28 N29         4.3580   -6.3560   -2.9930 nb        1 685     -0.792000
     29 H1         -0.5620   -1.3020    0.5870 hc        1 685      0.078367
     30 H1A         0.0750   -2.0010   -0.9560 hc        1 685      0.078367
     31 H1B         0.6640   -2.6380    0.6500 hc        1 685      0.078367
     32 H2          1.0630    0.2880   -0.3650 hx        1 685      0.126700
     33 H4          0.8980   -0.2100    2.1750 h1        1 685      0.071200
     34 H4A         2.4450    0.6030    1.6190 h1        1 685      0.071200
     35 HO5         2.5870   -1.4040    3.0200 ho        1 685      0.450000
     36 HN6         3.4260   -0.4660   -0.4330 hn        1 685      0.460300
     37 H14         1.1220   -0.9240   -4.8360 hc        1 685      0.087700
     38 H14A        2.1630   -1.4210   -6.2480 hc        1 685      0.087700
     39 H14B        2.7960   -0.2500   -5.0010 hc        1 685      0.087700
     40 H16         4.0350   -5.5480   -6.3120 ha        1 685      0.183000
     41 H17         4.9610   -7.9140   -6.4950 h4        1 685      0.050100
     42 HN20        4.8920   -7.9920   -1.1790 hn        1 685      0.442800
     43 H22         7.2230   -9.5740   -3.4540 ha        1 685      0.140000
     44 H24         8.4130  -13.0920   -3.1520 hc        1 685      0.050867
     45 H24A        8.8630  -11.4050   -3.6460 hc        1 685      0.050867
     46 H24B        7.6660  -12.3490   -4.6280 hc        1 685      0.050867
     47 H25         6.3800  -13.5270   -1.9290 ha        1 685      0.143000
     48 H27         3.6660  -12.3060    0.3780 hc        1 685      0.050867
     49 H27A        4.9420  -13.5790    0.1810 hc        1 685      0.050867
     50 H27B        3.5840  -13.4650   -1.0140 hc        1 685      0.050867
     51 H28         3.9380  -10.2040   -0.6590 ha        1 685      0.140000
     52 H62         2.9090   -2.0440   -0.3670 hn        1 685      0.460300
@<TRIPOS>BOND
     1    1    2 1   
     2    1   29 1   
     3    1   30 1   
     4    1   31 1   
     5    2    3 1   
     6    2    5 1   
     7    2   32 1   
     8    3    4 1   
     9    3   33 1   
    10    3   34 1   
    11    4   35 1   
    12    5    6 1   
    13    5   36 1   
    14    5   52 1   
    15    6    7 2   
    16    6    8 1   
    17    8    9 1   
    18    8   12 2   
    19    9   10 1   
    20   10   11 2   
    21   10   14 1   
    22   11   12 1   
    23   12   13 1   
    24   13   37 1   
    25   13   38 1   
    26   13   39 1   
    27   14   15 ar  
    28   14   28 ar  
    29   15   16 ar  
    30   15   40 1   
    31   16   17 ar  
    32   16   41 1   
    33   17   18 ar  
    34   18   19 1   
    35   18   28 ar  
    36   19   20 1   
    37   19   42 1   
    38   20   21 ar  
    39   20   27 ar  
    40   21   22 ar  
    41   21   43 1   
    42   22   23 1   
    43   22   24 ar  
    44   23   44 1   
    45   23   45 1   
    46   23   46 1   
    47   24   25 ar  
    48   24   47 1   
    49   25   26 1   
    50   25   27 ar  
    51   26   48 1   
    52   26   49 1   
    53   26   50 1   
    54   27   51 1   
@<TRIPOS>SUBSTRUCTURE
     1 685         1 TEMP              0 ****  ****    0 ROOT
