@<TRIPOS>MOLECULE
685
   53    55     1     0     0
SMALL
bcc


@<TRIPOS>ATOM
      1 C1          0.2460   -2.2570    0.3750 c3        1 685     -0.131100
      2 C2          1.0780   -1.0180    0.0860 c3        1 685      0.126500
      3 C4          1.5630   -0.3730    1.4030 c3        1 685      0.107400
      4 O5          2.6050   -1.1850    1.9160 oh        1 685     -0.641800
      5 N6          2.2650   -1.3410   -0.7950 n4        1 685     -0.669800
      6 C7          1.8790   -1.6670   -2.2220 c         1 685      0.609700
      7 O8          0.9770   -0.9870   -2.6960 o         1 685     -0.419100
      8 C9          2.6310   -2.7080   -2.8720 cc        1 685     -0.393000
      9 S10         3.8230   -3.7110   -2.2380 ss        1 685      0.060700
     10 C11         4.0280   -4.4750   -3.7430 cc        1 685      0.371400
     11 N12         3.2250   -4.0190   -4.7240 nd        1 685     -0.614000
     12 C13         2.4140   -3.0110   -4.2490 cd        1 685      0.524600
     13 C14         1.4250   -2.3270   -5.1090 c3        1 685     -0.171400
     14 C15         5.0080   -5.5460   -3.9850 ca        1 685      0.400300
     15 C16         5.4560   -5.8100   -5.2960 ca        1 685     -0.247600
     16 C17         6.4040   -6.8480   -5.4580 ca        1 685      0.469200
     17 N18         6.8680   -7.5740   -4.4280 nb        1 685     -0.639000
     18 C19         6.3580   -7.2430   -3.1920 ca        1 685      0.725900
     19 N20         6.8460   -8.0700   -2.0410 n4        1 685     -0.604100
     20 C21         6.2560   -9.4180   -2.0550 ca        1 685     -0.055400
     21 C22         6.8420  -10.4150   -2.8490 ca        1 685     -0.112500
     22 C23         6.3030  -11.7070   -2.8220 ca        1 685     -0.031800
     23 C24         6.9140  -12.7860   -3.6340 c3        1 685     -0.075300
     24 C25         5.1930  -11.9780   -2.0150 ca        1 685     -0.080000
     25 C26         4.6070  -10.9760   -1.2290 ca        1 685     -0.031800
     26 C27         3.4390  -11.2970   -0.3770 c3        1 685     -0.075300
     27 C28         5.1350   -9.6830   -1.2490 ca        1 685     -0.112500
     28 N29         5.4530   -6.2590   -2.9080 nb        1 685     -0.684000
     29 H1         -0.0790   -2.7620   -0.5670 hc        1 685      0.080700
     30 H1A        -0.6740   -1.9400    0.9310 hc        1 685      0.080700
     31 H1B         0.8100   -2.9790    1.0150 hc        1 685      0.080700
     32 H2          0.4510   -0.2590   -0.4760 hx        1 685      0.133700
     33 H4          0.6910   -0.3170    2.1080 h1        1 685      0.079700
     34 H4A         1.9580    0.6630    1.2140 h1        1 685      0.079700
     35 HO5         2.6780   -1.0060    2.8640 ho        1 685      0.457000
     36 HN6         2.7750   -2.1200   -0.3620 hn        1 685      0.462800
     37 H14         1.6370   -1.2250   -5.1200 hc        1 685      0.098033
     38 H14A        1.4380   -2.7090   -6.1610 hc        1 685      0.098033
     39 H14B        0.3970   -2.4730   -4.6830 hc        1 685      0.098033
     40 H16         5.0890   -5.2420   -6.1670 ha        1 685      0.216000
     41 H17         6.8120   -7.1120   -6.4580 h4        1 685      0.089100
     42 HN20        6.6050   -7.6040   -1.1550 hn        1 685      0.478800
     43 H22         7.7120  -10.2040   -3.4940 ha        1 685      0.158000
     44 H24         7.5810  -12.3730   -4.4300 hc        1 685      0.070700
     45 H24A        7.5250  -13.4560   -2.9750 hc        1 685      0.070700
     46 H24B        6.1220  -13.4070   -4.1220 hc        1 685      0.070700
     47 H25         4.7700  -12.9980   -1.9950 ha        1 685      0.174000
     48 H27         3.7490  -11.9800    0.4550 hc        1 685      0.070700
     49 H27A        2.9910  -10.3770    0.0720 hc        1 685      0.070700
     50 H27B        2.6500  -11.8180   -0.9770 hc        1 685      0.070700
     51 H28         4.6700   -8.8980   -0.6310 ha        1 685      0.158000
     52 H62         2.8840   -0.5200   -0.8030 hn        1 685      0.462800
     53 H202        7.8720   -8.1550   -2.1170 hn        1 685      0.478800
@<TRIPOS>BOND
     1    1    2 1   
     2    1   29 1   
     3    1   30 1   
     4    1   31 1   
     5    2    3 1   
     6    2    5 1   
     7    2   32 1   
     8    3    4 1   
     9    3   33 1   
    10    3   34 1   
    11    4   35 1   
    12    5    6 1   
    13    5   36 1   
    14    5   52 1   
    15    6    7 2   
    16    6    8 1   
    17    8    9 1   
    18    8   12 2   
    19    9   10 1   
    20   10   11 2   
    21   10   14 1   
    22   11   12 1   
    23   12   13 1   
    24   13   37 1   
    25   13   38 1   
    26   13   39 1   
    27   14   15 ar  
    28   14   28 ar  
    29   15   16 ar  
    30   15   40 1   
    31   16   17 ar  
    32   16   41 1   
    33   17   18 ar  
    34   18   19 1   
    35   18   28 ar  
    36   19   20 1   
    37   19   42 1   
    38   19   53 1   
    39   20   21 ar  
    40   20   27 ar  
    41   21   22 ar  
    42   21   43 1   
    43   22   23 1   
    44   22   24 ar  
    45   23   44 1   
    46   23   45 1   
    47   23   46 1   
    48   24   25 ar  
    49   24   47 1   
    50   25   26 1   
    51   25   27 ar  
    52   26   48 1   
    53   26   49 1   
    54   26   50 1   
    55   27   51 1   
@<TRIPOS>SUBSTRUCTURE
     1 685         1 TEMP              0 ****  ****    0 ROOT
