@<TRIPOS>MOLECULE
685
   51    53     1     0     0
SMALL
bcc


@<TRIPOS>ATOM
      1 C1         -5.9270   -3.1500   -0.9330 c3        1 685     -0.100100
      2 C2         -6.0460   -1.7860   -0.2530 c3        1 685      0.097700
      3 C4         -6.6090   -1.9880    1.1730 c3        1 685      0.100400
      4 O5         -5.6450   -2.7030    1.9290 oh        1 685     -0.609800
      5 N6         -4.7930   -1.0640   -0.2690 n         1 685     -0.551900
      6 C7         -4.7520    0.3090   -0.4690 c         1 685      0.707700
      7 O8         -5.7720    0.9420   -0.8120 o         1 685     -0.603100
      8 C9         -3.4420    0.9600   -0.3140 cc        1 685     -0.318000
      9 S10        -1.9750    0.1790   -0.1440 ss        1 685      0.060700
     10 C11        -1.1570    1.6700   -0.0490 cc        1 685      0.315400
     11 N12        -1.9470    2.7550   -0.1470 nd        1 685     -0.633000
     12 C13        -3.2630    2.3580   -0.3040 cd        1 685      0.426600
     13 C14        -4.3650    3.3350   -0.4540 c3        1 685     -0.135400
     14 C15         0.3000    1.7360    0.1240 ca        1 685      0.433300
     15 C16         0.9560    2.9750    0.2580 ca        1 685     -0.362600
     16 C17         2.3570    2.9280    0.4120 ca        1 685      0.454200
     17 N18         3.0660    1.7940    0.4440 nb        1 685     -0.718000
     18 C19         2.3390    0.6130    0.3180 ca        1 685      0.871900
     19 N20         3.0030   -0.6270    0.4430 nh        1 685     -0.701300
     20 C21         4.3970   -0.7430    0.2050 ca        1 685      0.127600
     21 C22         5.3310   -0.0840    1.0260 ca        1 685     -0.138500
     22 C23         6.7010   -0.2740    0.8220 ca        1 685     -0.062300
     23 C24         7.6730    0.4450    1.6800 c3        1 685     -0.054800
     24 C25         7.1470   -1.1310   -0.1870 ca        1 685     -0.137000
     25 C26         6.2290   -1.8000   -1.0030 ca        1 685     -0.062300
     26 C27         6.7070   -2.7220   -2.0600 c3        1 685     -0.054800
     27 C28         4.8610   -1.6040   -0.8130 ca        1 685     -0.138500
     28 N29         0.9660    0.5520    0.1400 nb        1 685     -0.768000
     29 H1         -5.2500   -3.8200   -0.3510 hc        1 685      0.046367
     30 H1A        -6.9390   -3.6170   -0.9810 hc        1 685      0.046367
     31 H1B        -5.5320   -3.0450   -1.9720 hc        1 685      0.046367
     32 H2         -6.8090   -1.1630   -0.8150 h1        1 685      0.090700
     33 H4         -6.8190   -0.9970    1.6560 h1        1 685      0.033700
     34 H4A        -7.5620   -2.5780    1.1090 h1        1 685      0.033700
     35 HO5        -6.0100   -2.8040    2.8160 ho        1 685      0.405000
     36 HN6        -4.0480   -1.5000    0.2260 hn        1 685      0.311500
     37 H14        -5.1700    3.1010    0.2890 hc        1 685      0.066367
     38 H14A       -4.0210    4.3870   -0.3090 hc        1 685      0.066367
     39 H14B       -4.8100    3.2280   -1.4770 hc        1 685      0.066367
     40 H16         0.4130    3.9270    0.2400 ha        1 685      0.178000
     41 H17         2.9450    3.8600    0.5130 h4        1 685      0.032100
     42 HN20        2.4730   -1.4110    0.1120 hn        1 685      0.434800
     43 H22         4.9950    0.5880    1.8310 ha        1 685      0.142500
     44 H24         7.3230    0.4690    2.7410 hc        1 685      0.045533
     45 H24A        8.6780   -0.0450    1.6500 hc        1 685      0.045533
     46 H24B        7.7850    1.5000    1.3240 hc        1 685      0.045533
     47 H25         8.2260   -1.2810   -0.3430 ha        1 685      0.134000
     48 H27         6.8050   -3.7570   -1.6470 hc        1 685      0.045533
     49 H27A        5.9910   -2.7550   -2.9180 hc        1 685      0.045533
     50 H27B        7.7060   -2.4030   -2.4460 hc        1 685      0.045533
     51 H28         4.1490   -2.1330   -1.4650 ha        1 685      0.142500
@<TRIPOS>BOND
     1    1    2 1   
     2    1   29 1   
     3    1   30 1   
     4    1   31 1   
     5    2    3 1   
     6    2    5 1   
     7    2   32 1   
     8    3    4 1   
     9    3   33 1   
    10    3   34 1   
    11    4   35 1   
    12    5    6 1   
    13    5   36 1   
    14    6    7 2   
    15    6    8 1   
    16    8    9 1   
    17    8   12 2   
    18    9   10 1   
    19   10   11 2   
    20   10   14 1   
    21   11   12 1   
    22   12   13 1   
    23   13   37 1   
    24   13   38 1   
    25   13   39 1   
    26   14   15 ar  
    27   14   28 ar  
    28   15   16 ar  
    29   15   40 1   
    30   16   17 ar  
    31   16   41 1   
    32   17   18 ar  
    33   18   19 1   
    34   18   28 ar  
    35   19   20 1   
    36   19   42 1   
    37   20   21 ar  
    38   20   27 ar  
    39   21   22 ar  
    40   21   43 1   
    41   22   23 1   
    42   22   24 ar  
    43   23   44 1   
    44   23   45 1   
    45   23   46 1   
    46   24   25 ar  
    47   24   47 1   
    48   25   26 1   
    49   25   27 ar  
    50   26   48 1   
    51   26   49 1   
    52   26   50 1   
    53   27   51 1   
@<TRIPOS>SUBSTRUCTURE
     1 685         1 TEMP              0 ****  ****    0 ROOT
