@<TRIPOS>MOLECULE
685
   52    54     1     0     0
SMALL
bcc


@<TRIPOS>ATOM
      1 C1          0.3460   -1.7290    0.0960 c3        1 685     -0.128100
      2 C2          1.4370   -0.6690    0.1220 c3        1 685      0.125500
      3 C4          1.8350   -0.3470    1.5790 c3        1 685      0.107400
      4 O5          2.6190   -1.4260    2.0560 oh        1 685     -0.631800
      5 N6          2.6470   -1.1000   -0.6680 ny        1 685     -0.670800
      6 C7          2.4180   -1.0450   -2.1730 c         1 685      0.621700
      7 O8          1.9430    0.0110   -2.5800 o         1 685     -0.457100
      8 C9          2.8070   -2.2060   -2.9040 cc        1 685     -0.429000
      9 S10         3.4480   -3.6480   -2.3130 ss        1 685      0.041700
     10 C11         3.5460   -4.2840   -3.8890 cc        1 685      0.440400
     11 N12         3.1130   -3.4610   -4.8660 nd        1 685     -0.634000
     12 C13         2.6870   -2.2710   -4.3260 cd        1 685      0.525600
     13 C14         2.1570   -1.1680   -5.1560 c3        1 685     -0.165400
     14 C15         4.0770   -5.6360   -4.1180 ca        1 685      0.383300
     15 C16         4.2680   -6.1270   -5.4140 ca        1 685     -0.340600
     16 C17         4.7910   -7.4440   -5.5080 ca        1 685      0.467200
     17 N18         5.1010   -8.1940   -4.4550 nb        1 685     -0.687000
     18 C19         4.8870   -7.6210   -3.1920 ca        1 685      0.894900
     19 N20         5.2780   -8.3230   -2.0470 nu        1 685     -0.701300
     20 C21         5.5520   -9.7170   -2.0720 ca        1 685      0.113600
     21 C22         6.6200  -10.2290   -2.8290 ca        1 685     -0.134500
     22 C23         6.9150  -11.5970   -2.7840 ca        1 685     -0.055800
     23 C24         8.0300  -12.1340   -3.6000 c3        1 685     -0.058800
     24 C25         6.1550  -12.4490   -1.9800 ca        1 685     -0.126000
     25 C26         5.0950  -11.9470   -1.2170 ca        1 685     -0.055800
     26 C27         4.3070  -12.8630   -0.3580 c3        1 685     -0.058800
     27 C28         4.7880  -10.5870   -1.2650 ca        1 685     -0.134500
     28 N29         4.3610   -6.3540   -2.9950 nb        1 685     -0.792000
     29 H1         -0.5640   -1.3100    0.5940 hc        1 685      0.078367
     30 H1A         0.0710   -2.0080   -0.9500 hc        1 685      0.078367
     31 H1B         0.6640   -2.6440    0.6550 hc        1 685      0.078367
     32 H2          1.0570    0.2830   -0.3600 hx        1 685      0.126700
     33 H4          2.4410    0.5990    1.6210 h1        1 685      0.071200
     34 H4A         0.8970   -0.2160    2.1800 h1        1 685      0.071200
     35 HO5         2.5890   -1.4080    3.0220 ho        1 685      0.450000
     36 HN6         2.9060   -2.0460   -0.3660 hn        1 685      0.460300
     37 H14         2.7830   -0.2510   -4.9990 hc        1 685      0.087700
     38 H14A        1.1110   -0.9290   -4.8320 hc        1 685      0.087700
     39 H14B        2.1510   -1.4230   -6.2460 hc        1 685      0.087700
     40 H16         4.0320   -5.5450   -6.3130 ha        1 685      0.183000
     41 H17         4.9630   -7.9090   -6.4990 h4        1 685      0.050100
     42 HN20        4.9020   -7.9890   -1.1830 hn        1 685      0.442800
     43 H22         7.2310   -9.5680   -3.4620 ha        1 685      0.140000
     44 H24         8.4240  -13.0850   -3.1660 hc        1 685      0.050700
     45 H24A        8.8700  -11.3980   -3.6620 hc        1 685      0.050700
     46 H24B        7.6710  -12.3440   -4.6400 hc        1 685      0.050700
     47 H25         6.3900  -13.5240   -1.9440 ha        1 685      0.143000
     48 H27         3.3370  -12.4000   -0.0510 hc        1 685      0.050700
     49 H27A        4.0880  -13.8170   -0.8980 hc        1 685      0.050700
     50 H27B        4.8860  -13.1100    0.5670 hc        1 685      0.050700
     51 H28         3.9500  -10.2030   -0.6640 ha        1 685      0.140000
     52 H62         3.4210   -0.4680   -0.4320 hn        1 685      0.460300
@<TRIPOS>BOND
     1    1    2 1   
     2    1   29 1   
     3    1   30 1   
     4    1   31 1   
     5    2    3 1   
     6    2    5 1   
     7    2   32 1   
     8    3    4 1   
     9    3   33 1   
    10    3   34 1   
    11    4   35 1   
    12    5    6 1   
    13    5   36 1   
    14    5   52 1   
    15    6    7 2   
    16    6    8 1   
    17    8    9 1   
    18    8   12 2   
    19    9   10 1   
    20   10   11 2   
    21   10   14 1   
    22   11   12 1   
    23   12   13 1   
    24   13   37 1   
    25   13   38 1   
    26   13   39 1   
    27   14   15 ar  
    28   14   28 ar  
    29   15   16 ar  
    30   15   40 1   
    31   16   17 ar  
    32   16   41 1   
    33   17   18 ar  
    34   18   19 1   
    35   18   28 ar  
    36   19   20 1   
    37   19   42 1   
    38   20   21 ar  
    39   20   27 ar  
    40   21   22 ar  
    41   21   43 1   
    42   22   23 1   
    43   22   24 ar  
    44   23   44 1   
    45   23   45 1   
    46   23   46 1   
    47   24   25 ar  
    48   24   47 1   
    49   25   26 1   
    50   25   27 ar  
    51   26   48 1   
    52   26   49 1   
    53   26   50 1   
    54   27   51 1   
@<TRIPOS>SUBSTRUCTURE
     1 685         1 TEMP              0 ****  ****    0 ROOT
