@<TRIPOS>MOLECULE
685
   51    47     1     0     0
SMALL
bcc


@<TRIPOS>ATOM
      1 C1         -3.6800    6.5090   -3.0860 c3        1 685     -0.224000
      2 C2         -4.0460    5.5160   -2.0100 c3        1 685     -0.009000
      3 C4         -5.3000    4.8610   -2.3540 c3        1 685     -0.043000
      4 O5         -6.3770    5.7180   -2.0470 oh        1 685     -0.323000
      5 N6         -3.0020    4.5290   -1.8850 n         1 685     -0.382000
      6 C7         -2.4490    4.2470   -0.5810 c2        1 685      0.388000
      7 O8         -3.0540    4.6190    0.4400 o         1 685     -0.365000
      8 C9         -1.2200    3.3700   -0.4510 c2        1 685     -0.500000
      9 S10        -1.1350    1.8990   -0.8140 ss        1 685      0.623000
     10 C11         0.2690    1.3960   -0.3870 c2        1 685     -0.251000
     11 N12         0.9700    2.4960    0.1900 n2        1 685     -0.106000
     12 C13         0.0420    3.7520    0.1570 c1        1 685      0.009000
     13 C14         0.3750    5.1250    0.7410 c2        1 685     -0.173333
     14 C15         0.7120    0.0950   -0.4350 c1        1 685      0.103000
     15 C16         1.1840   -0.4250   -1.6170 c1        1 685     -0.120500
     16 C17         1.6480   -1.7230   -1.6650 c1        1 685     -0.120500
     17 N18         1.6400   -2.4910   -0.5430 n1        1 685     -0.190000
     18 C19         1.1690   -1.9760    0.6400 c1        1 685      0.154000
     19 N20         1.1530   -2.8150    1.8450 n3        1 685     -0.222000
     20 C21         1.8920   -4.0420    1.8660 c2        1 685      0.045000
     21 C22         1.2760   -5.2310    1.5150 c2        1 685     -0.138000
     22 C23         1.9870   -6.4490    1.6350 c1        1 685     -0.055000
     23 C24         1.3550   -7.7370    1.2210 c2        1 685     -0.173333
     24 C25         3.2830   -6.4480    2.0990 c2        1 685     -0.136000
     25 C26         3.8910   -5.2670    2.4470 c1        1 685     -0.055000
     26 C27         5.3430   -5.2720    2.8890 c2        1 685     -0.173333
     27 C28         3.1940   -4.0510    2.3310 c2        1 685     -0.138000
     28 N29         0.7030   -0.6740    0.6910 n1        1 685     -0.242000
     29 H1         -4.4590    6.9570   -3.3760 hc        1 685      0.087333
     30 H1A        -3.2790    6.0510   -3.8280 hc        1 685      0.087333
     31 H1B        -3.0920    7.1130   -2.7500 hc        1 685      0.087333
     32 H2         -4.1500    5.9930   -1.1420 h1        1 685      0.119000
     33 H4         -5.3100    4.6550   -3.2990 h1        1 685      0.092000
     34 H4A        -5.3910    3.9530   -1.7870 h1        1 685      0.092000
     35 HO5        -7.1090    5.3980   -2.3890 ho        1 685      0.203000
     36 HN6        -2.6310    4.2010   -2.5910 hn        1 685      0.222000
     37 H14         0.2070    5.8970   -0.0200 ha        1 685      0.092556
     38 H14A        1.4140    5.1400    1.0540 ha        1 685      0.092556
     39 H14B       -0.2340    5.3090    1.5580 ha        1 685      0.092556
     40 H16         1.1900    0.1610   -2.4800 ha        1 685      0.174000
     41 H17         1.9940   -2.1040   -2.5380 ha        1 685      0.174000
     42 HN20        0.5940   -2.5870    2.5720 hn        1 685      0.230000
     43 H22         0.3960   -5.2210    1.1120 ha        1 685      0.142000
     44 H24         0.9740   -8.1890    2.0160 ha        1 685      0.092556
     45 H24A        0.6320   -7.5600    0.5630 ha        1 685      0.092556
     46 H24B        2.0700   -8.3450    0.7900 ha        1 685      0.092556
     47 H25         3.7870   -7.3190    2.1870 ha        1 685      0.134000
     48 H27         5.4040   -5.6280    3.7640 ha        1 685      0.092556
     49 H27A        5.8550   -5.8120    2.2910 ha        1 685      0.092556
     50 H27B        5.6840   -4.3800    2.8820 ha        1 685      0.092556
     51 H28         3.6300   -3.2140    2.5780 ha        1 685      0.142000
@<TRIPOS>BOND
     1    1    2 1   
     2    1   29 1   
     3    1   30 1   
     4    1   31 1   
     5    2    3 1   
     6    2    5 1   
     7    2   32 1   
     8    3    4 1   
     9    3   33 1   
    10    3   34 1   
    11    4   35 1   
    12    5    6 1   
    13    5   36 1   
    14    6    7 1   
    15    6    8 1   
    16    8    9 1   
    17    8   12 1   
    18    9   10 1   
    19   10   11 1   
    20   10   14 1   
    21   11   12 1   
    22   13   37 1   
    23   13   38 1   
    24   13   39 1   
    25   14   28 1   
    26   15   16 1   
    27   15   40 1   
    28   16   41 1   
    29   17   18 1   
    30   18   19 1   
    31   19   20 1   
    32   19   42 1   
    33   20   21 1   
    34   20   27 1   
    35   21   22 1   
    36   21   43 1   
    37   22   24 1   
    38   23   44 1   
    39   23   45 1   
    40   23   46 1   
    41   24   25 1   
    42   24   47 1   
    43   25   27 1   
    44   26   48 1   
    45   26   49 1   
    46   26   50 1   
    47   27   51 1   
@<TRIPOS>SUBSTRUCTURE
     1 685         1 TEMP              0 ****  ****    0 ROOT
