@<TRIPOS>MOLECULE
687
   75    78     1     0     0
SMALL
bcc


@<TRIPOS>ATOM
      1 O76        -0.4320    3.2300   -2.3810 o         1 687     -0.390000
      2 C1          2.1970    2.9400    2.4090 c2        1 687     -0.099000
      3 C2          2.4020    3.9490    1.5530 c2        1 687     -0.143000
      4 C3          1.6280    4.3480    0.3760 c2        1 687      0.237000
      5 C4          0.9910    3.4840   -0.4590 c2        1 687     -0.399000
      6 C5         -0.1530    2.2550    2.1470 c2        1 687     -0.240000
      7 C6          1.1160    1.9670    2.4650 c2        1 687     -0.070000
      8 P7          1.4510    6.2930   -1.3890 p5        1 687      1.910000
      9 O8          0.8220    7.6070   -1.2320 o         1 687     -0.793000
     10 O9          2.7070    5.9640   -2.0730 o         1 687     -0.793000
     11 O10         0.2920    5.2480   -1.9490 os        1 687     -0.716000
     12 C11         1.5100    0.6010    2.9500 c3        1 687     -0.019000
     13 C12         2.0220    0.5950    4.3470 c2        1 687     -0.371000
     14 C13         1.2330    0.9520    5.4470 c2        1 687      0.272000
     15 N14        -0.1790    1.1060    5.2670 n         1 687     -0.371000
     16 N15         3.3230    0.0890    4.5800 n         1 687     -0.221000
     17 C16         3.5160   -0.9450    5.4790 c2        1 687      0.308000
     18 C17         4.9410   -1.2400    5.8970 c3        1 687     -0.248000
     19 O18         2.5840   -1.6760    5.8990 o         1 687     -0.446000
     20 O19         1.6510    1.0350    6.6650 o         1 687     -0.561000
     21 C20        -0.9560    1.2460    6.4720 c3        1 687      0.026000
     22 C21        -2.4230    0.8200    6.3140 c3        1 687     -0.164000
     23 C22        -2.6390   -0.5160    5.6450 c3        1 687     -0.157000
     24 C23        -2.0750   -1.6840    6.4220 c3        1 687     -0.168000
     25 C24        -0.5550   -1.7150    6.4360 c3        1 687     -0.113000
     26 N25         0.0870   -0.9490    7.5480 n4        1 687      0.011000
     27 C26        -0.3370    0.5020    7.6660 c2        1 687      0.320000
     28 C27        -0.1190   -1.6410    8.8130 c2        1 687     -0.294000
     29 C28         0.5040   -2.7820    9.2110 c2        1 687      0.099000
     30 O29        -0.2470    1.0240    8.7750 o         1 687     -0.274000
     31 C53         1.5020   -3.5020    8.4410 c2        1 687     -0.246500
     32 C54         1.9370   -4.7200    8.8170 c2        1 687     -0.039000
     33 C55         1.4120   -5.4470   10.0010 c3        1 687     -0.027000
     34 C56         0.5560   -4.5860   10.8640 c2        1 687     -0.039000
     35 C57         0.1350   -3.3630   10.4950 c2        1 687     -0.246500
     36 C62         2.4450   -6.1400   10.8440 c2        1 687     -0.131000
     37 C63         3.8140   -5.9570   10.6360 c2        1 687     -0.140000
     38 C64         4.7250   -6.6490   11.4360 c2        1 687     -0.224000
     39 C65         4.2590   -7.5030   12.4400 c2        1 687     -0.157000
     40 C66         2.8870   -7.6500   12.6400 c2        1 687     -0.164000
     41 C67         1.9550   -6.9760   11.8530 c1        1 687     -0.411000
     42 C75         0.2640    3.9400   -1.6400 c2        1 687      0.415000
     43 H1          3.2740    4.6130    1.7170 ha        1 687      0.135000
     44 H2          2.9390    2.7900    3.2210 ha        1 687      0.131000
     45 H5         -0.4540    3.2400    1.7660 ha        1 687      0.113000
     46 H111       -0.9560    1.5100    2.2190 ha        1 687      0.113000
     47 H112        2.2860    0.2010    2.2400 hc        1 687      0.071000
     48 H12         0.6210   -0.0860    2.8760 hc        1 687      0.071000
     49 H14        -0.1260   -1.3350    5.4620 hx        1 687      0.151000
     50 H15         4.0500    0.7710    4.5430 hn        1 687      0.189000
     51 H171        5.6110   -1.3250    5.0090 hc        1 687      0.095000
     52 H172        4.9620   -2.2020    6.4630 hc        1 687      0.095000
     53 H173        5.3130   -0.4220    6.5600 hc        1 687      0.095000
     54 H20        -0.4580    1.7130    4.5260 hn        1 687      0.214000
     55 H211       -0.9650    2.3300    6.8260 h1        1 687      0.102000
     56 H212       -2.9430    1.6090    5.7070 hc        1 687      0.087500
     57 H221       -2.8900    0.8180    7.3340 hc        1 687      0.087500
     58 H222       -2.1950   -0.5030    4.6140 hc        1 687      0.092500
     59 H231       -3.7460   -0.6720    5.5260 hc        1 687      0.092500
     60 H232       -2.4160   -2.6350    5.9310 hc        1 687      0.093500
     61 H241       -2.4830   -1.6890    7.4670 hc        1 687      0.093500
     62 H242       -0.2060   -2.7830    6.5610 hx        1 687      0.151000
     63 H271        1.1160   -0.9040    7.3200 hn        1 687      0.313000
     64 H272       -0.8470   -1.1370    9.4740 hx        1 687      0.165000
     65 H53         1.9230   -3.0110    7.5460 ha        1 687      0.140500
     66 H54         2.7030   -5.2510    8.2290 ha        1 687      0.154000
     67 H56         0.7340   -6.2710    9.6010 hc        1 687      0.130000
     68 H57        -0.4990   -2.7530   11.1550 ha        1 687      0.140500
     69 H63         0.2940   -5.0460   11.8350 ha        1 687      0.154000
     70 H64         4.1950   -5.2750    9.8620 ha        1 687      0.082000
     71 H65         5.8030   -6.5170   11.2790 ha        1 687      0.081000
     72 H66         4.9840   -8.0450   13.0630 ha        1 687      0.072000
     73 H67         2.5310   -8.3160   13.4390 ha        1 687      0.078000
     74 H75         0.9890    2.4040   -0.2710 ha        1 687      0.159000
     75 O30         1.6190    5.6760    0.1690 os        1 687     -0.661000
@<TRIPOS>BOND
     1    1   42 1   
     2    2    3 1   
     3    2    7 1   
     4    2   44 1   
     5    3    4 1   
     6    3   43 1   
     7    4    5 1   
     8    4   75 1   
     9    5   42 1   
    10    5   74 1   
    11    6    7 1   
    12    6   45 1   
    13    6   46 1   
    14    7   12 1   
    15    8    9 1   
    16    8   10 1   
    17    8   11 1   
    18    8   75 1   
    19   11   42 1   
    20   12   13 1   
    21   12   47 1   
    22   12   48 1   
    23   13   14 1   
    24   13   16 1   
    25   14   15 1   
    26   14   20 1   
    27   15   21 1   
    28   15   54 1   
    29   16   17 1   
    30   16   50 1   
    31   17   18 1   
    32   17   19 1   
    33   18   51 1   
    34   18   52 1   
    35   18   53 1   
    36   21   22 1   
    37   21   27 1   
    38   21   55 1   
    39   22   23 1   
    40   22   56 1   
    41   22   57 1   
    42   23   24 1   
    43   23   58 1   
    44   23   59 1   
    45   24   25 1   
    46   24   60 1   
    47   24   61 1   
    48   25   26 1   
    49   25   49 1   
    50   25   62 1   
    51   26   27 1   
    52   26   28 1   
    53   26   63 1   
    54   27   30 1   
    55   28   29 1   
    56   28   64 1   
    57   29   31 1   
    58   29   35 1   
    59   31   32 1   
    60   31   65 1   
    61   32   33 1   
    62   32   66 1   
    63   33   34 1   
    64   33   36 1   
    65   33   67 1   
    66   34   35 1   
    67   34   69 1   
    68   35   68 1   
    69   36   37 1   
    70   36   41 1   
    71   37   38 1   
    72   37   70 1   
    73   38   39 1   
    74   38   71 1   
    75   39   40 1   
    76   39   72 1   
    77   40   41 1   
    78   40   73 1   
@<TRIPOS>SUBSTRUCTURE
     1 687         1 TEMP              0 ****  ****    0 ROOT
