@<TRIPOS>MOLECULE
687
   75    77     1     0     0
SMALL
bcc


@<TRIPOS>ATOM
      1 O76         2.5550    1.7640   -1.7160 o         1 687     -0.444000
      2 C1          0.1090   -2.6490   -1.3670 ca        1 687     -0.073000
      3 C2         -0.8060   -1.7220   -1.7550 ca        1 687     -0.257000
      4 C3         -0.4400   -0.3260   -1.9570 ca        1 687      0.331000
      5 C4          0.9510   -0.0030   -1.7420 ca        1 687     -0.410000
      6 C5          1.8620   -1.0010   -1.3630 ca        1 687     -0.018000
      7 C6          1.4810   -2.3110   -1.1480 ca        1 687     -0.292000
      8 P7         -3.5550    0.8840   -2.7820 p3        1 687      2.502000
      9 O8         -3.8240   -0.5660   -2.8650 o         1 687     -1.169333
     10 O9         -3.9020    1.5830   -1.5170 o         1 687     -1.169333
     11 O10        -3.3990    1.6930   -4.0060 o         1 687     -1.169333
     12 C11         2.3800   -3.4310   -0.7680 c3        1 687     -0.082000
     13 C12         3.8000   -3.0270   -0.3580 c3        1 687      0.006000
     14 C13         3.8850   -2.4310    1.0760 c2        1 687      0.276000
     15 N14         2.8160   -1.7270    1.5610 n         1 687     -0.345000
     16 N15         4.7950   -4.0690   -0.5380 n         1 687     -0.327000
     17 C16         4.5800   -5.4160   -0.2650 c2        1 687      0.288000
     18 C17         5.8250   -6.2760   -0.1540 c3        1 687     -0.249000
     19 O18         3.4540   -5.9430   -0.1880 o         1 687     -0.355000
     20 O19         4.9370   -2.5680    1.7490 o         1 687     -0.443000
     21 C20         2.8950   -1.0230    2.8160 c3        1 687      0.025000
     22 C21         3.6440    0.3160    2.7780 c3        1 687     -0.173000
     23 C22         3.1990    1.2950    1.7200 c3        1 687     -0.165000
     24 C23         1.8100    1.8390    1.9540 c3        1 687     -0.172000
     25 C24         0.7270    0.7750    1.7860 c3        1 687     -0.048000
     26 N25         0.5160   -0.0850    2.9260 n         1 687     -0.304000
     27 C26         1.5130   -0.8560    3.4830 c2        1 687      0.290000
     28 C27        -0.7590   -0.0910    3.6310 c3        1 687      0.022000
     29 C28        -1.8020    0.8750    3.1640 ca        1 687     -0.109000
     30 O29         1.3230   -1.4570    4.5670 o         1 687     -0.412000
     31 C53        -2.0860    2.0210    3.9150 ca        1 687     -0.129000
     32 C54        -3.0690    2.9100    3.4910 ca        1 687     -0.116000
     33 C55        -3.7800    2.6790    2.3040 cp        1 687     -0.041000
     34 C56        -3.4960    1.5270    1.5530 ca        1 687     -0.116000
     35 C57        -2.5230    0.6300    1.9910 ca        1 687     -0.129000
     36 C62        -4.7840    3.6330    1.8360 cq        1 687     -0.036000
     37 C63        -5.0050    3.8070    0.4590 ca        1 687     -0.115000
     38 C64        -5.9530    4.7310    0.0210 ca        1 687     -0.151000
     39 C65        -6.6900    5.4820    0.9350 ca        1 687     -0.150000
     40 C66        -6.4830    5.3050    2.3020 ca        1 687     -0.151000
     41 C67        -5.5370    4.3850    2.7510 ca        1 687     -0.115000
     42 C75         1.3970    1.3530   -1.9420 c2        1 687      0.245000
     43 H1         -0.1910   -3.6980   -1.2170 ha        1 687      0.097000
     44 H2         -1.8620   -1.9810   -1.9460 ha        1 687      0.173000
     45 H5          2.9100   -0.6790   -1.2340 ha        1 687      0.100000
     46 H111        2.4510   -4.1330   -1.6470 hc        1 687      0.092500
     47 H112        1.9170   -4.0230    0.0680 hc        1 687      0.092500
     48 H12         4.1440   -2.1850   -1.0400 h1        1 687      0.128000
     49 H14         2.0190   -1.5740    0.9750 hn        1 687      0.273000
     50 H15         5.7100   -3.7470   -0.2910 hn        1 687      0.209000
     51 H171        5.5160   -7.3430   -0.0500 hc        1 687      0.095000
     52 H172        6.4620   -6.1690   -1.0640 hc        1 687      0.095000
     53 H173        6.4150   -5.9780    0.7450 hc        1 687      0.095000
     54 H20         3.4820   -1.6910    3.5290 h1        1 687      0.129000
     55 H211        4.7320    0.0830    2.6160 hc        1 687      0.083500
     56 H212        3.5430    0.7830    3.7930 hc        1 687      0.083500
     57 H221        3.2430    0.8300    0.6960 hc        1 687      0.094500
     58 H222        3.9240    2.1540    1.7120 hc        1 687      0.094500
     59 H231        1.6090    2.6340    1.1850 hc        1 687      0.087500
     60 H232        1.7460    2.3190    2.9640 hc        1 687      0.087500
     61 H241        0.9620    0.1530    0.8690 h1        1 687      0.126500
     62 H242       -0.2380    1.3110    1.5480 h1        1 687      0.126500
     63 H271       -0.5500    0.0930    4.7280 h1        1 687      0.087000
     64 H272       -1.1790   -1.1390    3.5470 h1        1 687      0.087000
     65 H53        -1.5240    2.2250    4.8370 ha        1 687      0.135500
     66 H54        -3.2700    3.8150    4.0830 ha        1 687      0.174500
     67 H56        -4.0020    1.3450    0.5760 ha        1 687      0.174500
     68 H57        -2.3040   -0.2630    1.3820 ha        1 687      0.135500
     69 H63        -4.4380    3.1970   -0.2870 ha        1 687      0.180000
     70 H64        -6.1160    4.8570   -1.0600 ha        1 687      0.119000
     71 H65        -7.4350    6.2090    0.5820 ha        1 687      0.105000
     72 H66        -7.0660    5.8870    3.0280 ha        1 687      0.119000
     73 H67        -5.3890    4.2430    3.8310 ha        1 687      0.180000
     74 H75         0.6170    2.0570   -2.3170 h4        1 687      0.103000
     75 O30        -1.3070    0.5390   -2.2840 o         1 687     -0.512000
@<TRIPOS>BOND
     1    1   42 1   
     2    2    3 1   
     3    2    7 1   
     4    2   43 1   
     5    3    4 1   
     6    3   44 1   
     7    4    5 1   
     8    4   75 1   
     9    5    6 1   
    10    5   42 1   
    11    6    7 1   
    12    6   45 1   
    13    7   12 1   
    14    8    9 1   
    15    8   10 1   
    16    8   11 1   
    17   12   13 1   
    18   12   46 1   
    19   12   47 1   
    20   13   14 1   
    21   13   16 1   
    22   13   48 1   
    23   14   15 1   
    24   14   20 1   
    25   15   21 1   
    26   15   49 1   
    27   16   17 1   
    28   16   50 1   
    29   17   18 1   
    30   17   19 1   
    31   18   51 1   
    32   18   52 1   
    33   18   53 1   
    34   21   22 1   
    35   21   27 1   
    36   21   54 1   
    37   22   23 1   
    38   22   55 1   
    39   22   56 1   
    40   23   24 1   
    41   23   57 1   
    42   23   58 1   
    43   24   25 1   
    44   24   59 1   
    45   24   60 1   
    46   25   26 1   
    47   25   61 1   
    48   25   62 1   
    49   26   27 1   
    50   26   28 1   
    51   27   30 1   
    52   28   29 1   
    53   28   63 1   
    54   28   64 1   
    55   29   31 1   
    56   29   35 1   
    57   31   32 1   
    58   31   65 1   
    59   32   33 1   
    60   32   66 1   
    61   33   34 1   
    62   33   36 1   
    63   34   35 1   
    64   34   67 1   
    65   35   68 1   
    66   36   37 1   
    67   36   41 1   
    68   37   38 1   
    69   37   69 1   
    70   38   39 1   
    71   38   70 1   
    72   39   40 1   
    73   39   71 1   
    74   40   41 1   
    75   40   72 1   
    76   41   73 1   
    77   42   74 1   
@<TRIPOS>SUBSTRUCTURE
     1 687         1 TEMP              0 ****  ****    0 ROOT
