@<TRIPOS>MOLECULE
687
   75    68     1     0     0
SMALL
bcc


@<TRIPOS>ATOM
      1 O76        -6.2260    5.4980    2.2310 o         1 687     -0.367000
      2 C1         -3.7450    3.6080   -1.7680 c1        1 687     -0.074000
      3 C2         -4.9720    4.2810   -1.6530 c1        1 687     -0.259000
      4 C3         -5.3870    4.7720   -0.4120 c1        1 687      0.345000
      5 C4         -4.5830    4.5950    0.7160 c1        1 687     -0.403000
      6 C5         -3.3580    3.9240    0.6060 c1        1 687     -0.001000
      7 C6         -2.9370    3.4290   -0.6390 c1        1 687     -0.321000
      8 P7         -6.5720    7.1530   -0.5710 p3        1 687      2.478000
      9 O8         -7.9700    7.7030   -0.6720 o         1 687     -1.164000
     10 O9         -5.8390    7.4250   -1.8470 os        1 687     -1.156000
     11 O10        -5.8520    7.8170    0.5740 o         1 687     -1.164000
     12 C11        -1.4260    3.1890   -0.8870 c3        1 687     -0.071000
     13 C12        -1.0950    1.7400   -0.6210 c3        1 687      0.005000
     14 C13        -0.0110    1.6600    0.4580 c2        1 687      0.299000
     15 N14         1.3750    1.3400    0.0800 n         1 687     -0.376000
     16 N15        -2.2560    1.0630   -0.1740 n         1 687     -0.347000
     17 C16        -2.7290    1.2650    1.1650 c2        1 687      0.313000
     18 C17        -4.0940    0.7040    1.5920 c3        1 687     -0.273000
     19 O18        -2.0130    1.8000    1.9840 o         1 687     -0.465000
     20 O19        -0.2610    2.0190    1.5960 o         1 687     -0.386000
     21 C20         2.4810    1.4580    1.1020 c3        1 687      0.025000
     22 C21         1.8610    1.2860    2.6050 c3        1 687     -0.179000
     23 C22         1.7210   -0.4400    3.0500 c3        1 687     -0.169000
     24 C23         3.0810   -1.3380    2.5080 c3        1 687     -0.174000
     25 C24         3.1050   -1.4040    1.0630 c3        1 687     -0.030000
     26 N25         2.6120   -0.4960    0.6280 n         1 687     -0.318000
     27 C26         3.2500    0.5590    0.9680 c2        1 687      0.305000
     28 C27         1.6360   -0.5430   -0.4450 c3        1 687      0.007000
     29 C28         1.7670   -1.8860   -1.1960 c2        1 687     -0.088000
     30 O29         4.2500    0.5020    1.6280 o         1 687     -0.402000
     31 O30        -6.6370    5.5530   -0.3130 os        1 687     -0.458000
     32 C53         1.0090   -2.9860   -0.8300 c2        1 687     -0.125000
     33 C54         1.4940   -4.2750   -1.0570 c1        1 687     -0.125000
     34 C55         2.7470   -4.4570   -1.6550 c1        1 687     -0.037500
     35 C56         3.5060   -3.3540   -2.0220 c1        1 687     -0.123000
     36 C57         3.0190   -2.0640   -1.7940 c1        1 687     -0.112000
     37 C62         3.2820   -5.7440   -1.7750 c1        1 687     -0.037500
     38 C63         3.6300   -6.4540   -0.6460 c1        1 687     -0.131500
     39 C64         4.2310   -7.6990   -0.7670 c1        1 687     -0.131500
     40 C65         4.4810   -8.2300   -2.0270 c1        1 687     -0.131500
     41 C66         4.1310   -7.5170   -3.1600 c1        1 687     -0.131500
     42 C67         3.5340   -6.2770   -3.0390 c1        1 687     -0.123000
     43 C75        -5.0920    5.0460    2.1100 c2        1 687      0.261000
     44 H1         -3.4510    3.2600   -2.6490 ha        1 687      0.086000
     45 H2         -5.5880    4.3360   -2.4430 ha        1 687      0.147000
     46 H5         -2.7930    3.8010    1.4010 ha        1 687      0.082000
     47 H111       -1.2120    3.4070   -1.8100 hc        1 687      0.078000
     48 H112       -0.9020    3.7560   -0.2890 hc        1 687      0.078000
     49 H12        -0.7750    1.3290   -1.4300 h1        1 687      0.107000
     50 H14         1.5680    1.0750   -0.7770 hn        1 687      0.254000
     51 H15        -2.6560    0.4500   -0.7070 hn        1 687      0.254000
     52 H171       -3.9730   -0.1980    1.9770 hc        1 687      0.138667
     53 H172       -4.6750    0.6490    0.8190 hc        1 687      0.138667
     54 H173       -4.4970    1.2990    2.2660 hc        1 687      0.138667
     55 H20         2.8280    2.3330    0.8940 h1        1 687      0.147000
     56 H211        0.9500    1.7090    2.6350 hc        1 687      0.088000
     57 H212        2.4570    1.7460    3.2600 hc        1 687      0.088000
     58 H221        0.8960   -0.8160    2.6370 hc        1 687      0.098500
     59 H222        1.6550   -0.5130    4.0090 hc        1 687      0.098500
     60 H231        3.0320   -2.2390    2.8660 hc        1 687      0.081500
     61 H232        3.9210   -0.8980    2.8360 hc        1 687      0.081500
     62 H241        4.0280   -1.4480    0.7580 h1        1 687      0.105000
     63 H242        2.6270   -2.2030    0.7670 h1        1 687      0.105000
     64 H271        1.7980    0.1920   -1.0650 h1        1 687      0.105500
     65 H272        0.7180   -0.4610   -0.0640 h1        1 687      0.105500
     66 H53         0.1060   -2.8570   -0.4260 ha        1 687      0.133000
     67 H54         0.9610   -5.0430   -0.8120 ha        1 687      0.127000
     68 H56         4.4210   -3.4800   -2.3770 ha        1 687      0.133000
     69 H57         3.5130   -1.2830   -2.1410 ha        1 687      0.168000
     70 H63         3.4540   -6.0770    0.2420 ha        1 687      0.128000
     71 H64         4.4640   -8.2010    0.0250 ha        1 687      0.128000
     72 H65         4.9020   -9.1050   -2.1140 ha        1 687      0.128000
     73 H66         4.3080   -7.8920   -4.0520 ha        1 687      0.128000
     74 H67         3.2840   -5.7690   -3.8460 ha        1 687      0.133000
     75 H75        -4.5190    4.9190    2.9130 h4        1 687      0.006000
@<TRIPOS>BOND
     1    1   43 1   
     2    2    7 1   
     3    2   44 1   
     4    3    4 1   
     5    3   45 1   
     6    4   31 1   
     7    5    6 1   
     8    5   43 1   
     9    6   46 1   
    10    7   12 1   
    11    8    9 1   
    12    8   11 1   
    13    8   31 1   
    14   12   13 1   
    15   12   47 1   
    16   12   48 1   
    17   13   14 1   
    18   13   16 1   
    19   13   49 1   
    20   14   15 1   
    21   14   20 1   
    22   15   21 1   
    23   15   50 1   
    24   16   17 1   
    25   16   51 1   
    26   17   18 1   
    27   17   19 1   
    28   18   52 1   
    29   18   53 1   
    30   18   54 1   
    31   21   22 1   
    32   21   27 1   
    33   21   55 1   
    34   22   23 1   
    35   22   56 1   
    36   22   57 1   
    37   23   24 1   
    38   23   58 1   
    39   23   59 1   
    40   24   25 1   
    41   24   60 1   
    42   24   61 1   
    43   25   26 1   
    44   25   62 1   
    45   25   63 1   
    46   26   27 1   
    47   26   28 1   
    48   27   30 1   
    49   28   29 1   
    50   28   64 1   
    51   28   65 1   
    52   29   32 1   
    53   29   36 1   
    54   32   33 1   
    55   32   66 1   
    56   33   67 1   
    57   34   35 1   
    58   35   68 1   
    59   36   69 1   
    60   37   42 1   
    61   38   39 1   
    62   38   70 1   
    63   39   71 1   
    64   40   41 1   
    65   40   72 1   
    66   41   73 1   
    67   42   74 1   
    68   43   75 1   
@<TRIPOS>SUBSTRUCTURE
     1 687         1 TEMP              0 ****  ****    0 ROOT
