@<TRIPOS>MOLECULE
688
   48    39     1     0     0
SMALL
bcc


@<TRIPOS>ATOM
      1 C1         -0.6160   -0.1280   -2.1960 c1        1 688     -0.158000
      2 C2          0.7200   -0.1410   -2.1880 c1        1 688     -0.044000
      3 C3          1.4180   -0.1160   -0.9640 c1        1 688     -0.203000
      4 C4          0.7460   -0.0780    0.1880 c1        1 688      0.099000
      5 N5         -0.6280   -0.0640    0.1800 n1        1 688     -0.206000
      6 C6         -1.3080   -0.0890   -1.0140 c1        1 688      0.074000
      7 O1          1.5020   -0.1830    1.5090 os        1 688     -0.145000
      8 O2         -2.7960    0.0110   -1.0320 os        1 688     -0.169000
      9 C7          1.5140   -0.1640   -3.5440 c2        1 688      0.372000
     10 O3          1.5970    0.8530   -4.2210 o         1 688     -0.553000
     11 O4          1.9380   -1.2070   -3.9730 o         1 688     -0.553000
     12 C11        -3.3270   -1.2180   -1.0070 c2        1 688     -0.017000
     13 C12        -3.5880   -1.9150   -2.2300 c2        1 688     -0.075000
     14 C13        -4.2160   -3.1280   -2.1990 c1        1 688     -0.158000
     15 C14        -4.5970   -3.6790   -0.9790 c1        1 688     -0.122000
     16 C15        -4.3280   -2.9670    0.2460 c1        1 688     -0.122000
     17 C16        -3.7090   -1.7710    0.2090 c1        1 688      0.119000
     18 C17        -4.5660   -3.8620   -3.5210 c2        1 688      0.119000
     19 N11        -3.7100   -4.6650   -4.0580 n1        1 688     -0.310000
     20 N12        -5.8000   -3.6670   -4.1250 n3        1 688     -0.331000
     21 O11        -3.4100   -1.0680    1.4540 oh        1 688     -0.245000
     22 C21         1.7860    1.0160    1.9460 c2        1 688      0.071000
     23 C22         0.7490    1.8890    2.2990 c2        1 688     -0.152000
     24 C23         1.0350    3.1000    2.8920 c1        1 688     -0.120000
     25 C24         2.3300    3.4510    3.1370 c1        1 688     -0.128000
     26 C25         3.3820    2.5690    2.7810 c1        1 688      0.035000
     27 C26         3.0950    1.3670    2.1920 c1        1 688     -0.174000
     28 C27         4.7870    2.9530    3.0170 c1        1 688     -0.056000
     29 N21         5.5000    3.8270    2.2790 n2        1 688     -0.149000
     30 N22         5.5620    2.5560    4.0650 n2        1 688     -0.149000
     31 C28         6.7260    3.1770    3.9700 c1        1 688     -0.181500
     32 C29         6.6920    3.9740    2.8520 c1        1 688     -0.181500
     33 H1         -1.1130   -0.1470   -3.0660 ha        1 688      0.175000
     34 H3          2.3850   -0.1250   -0.9580 ha        1 688      0.172000
     35 H12        -3.3150   -1.5180   -3.1010 ha        1 688      0.155000
     36 H14        -5.0640   -4.5820   -0.9520 ha        1 688      0.146000
     37 H15        -4.5760   -3.3270    1.0500 ha        1 688      0.146000
     38 HN11       -2.8740   -4.8050   -3.6520 DU        1 688      0.204750
     39 H121       -6.3550   -3.0300   -3.8110 hn        1 688      0.185000
     40 H122       -6.1180   -4.2980   -4.7300 hn        1 688      0.185000
     41 HO11       -4.1060   -1.0630    1.9590 ho        1 688      0.248000
     42 H22        -0.1970    1.6360    2.1210 ha        1 688      0.143000
     43 H23         0.3390    3.6780    3.1260 ha        1 688      0.125000
     44 H24         2.5460    4.3630    3.5810 ha        1 688      0.148000
     45 H26         3.8550    0.7270    1.9340 ha        1 688      0.165000
     46 HN21        5.2060    4.2580    1.4940 DU        1 688      0.204750
     47 H28         7.4370    3.0900    4.5540 DU        1 688      0.204750
     48 H29         7.4680    4.5120    2.4830 DU        1 688      0.204750
@<TRIPOS>BOND
     1    1    6 1   
     2    1   33 1   
     3    2    3 1   
     4    2    9 1   
     5    3   34 1   
     6    4    5 1   
     7    4    7 1   
     8    6    8 1   
     9    7   22 1   
    10    8   12 1   
    11    9   10 1   
    12    9   11 1   
    13   12   13 1   
    14   12   17 1   
    15   13   14 1   
    16   13   35 1   
    17   14   18 1   
    18   15   16 1   
    19   15   36 1   
    20   16   37 1   
    21   17   21 1   
    22   18   19 1   
    23   18   20 1   
    24   20   39 1   
    25   20   40 1   
    26   21   41 1   
    27   22   23 1   
    28   22   27 1   
    29   23   24 1   
    30   23   42 1   
    31   24   43 1   
    32   25   26 1   
    33   25   44 1   
    34   27   45 1   
    35   28   29 1   
    36   28   30 1   
    37   29   32 1   
    38   30   31 1   
    39   31   32 1   
@<TRIPOS>SUBSTRUCTURE
     1 688         1 TEMP              0 ****  ****    0 ROOT
