@<TRIPOS>MOLECULE
688
   49    52     1     0     0
SMALL
bcc


@<TRIPOS>ATOM
      1 C1         -0.0970   -0.8800    0.3790 ca        1 688     -0.305300
      2 C2          1.2300   -0.8800   -0.0700 ca        1 688     -0.066600
      3 C3          2.1310    0.0210    0.4920 ca        1 688     -0.222300
      4 C4          1.6600    0.8590    1.5380 ca        1 688      0.625600
      5 N5          0.4140    0.8080    2.0810 nb        1 688     -0.711000
      6 C6         -0.4230   -0.0740    1.4830 ca        1 688      0.596600
      7 O1          2.6170    1.7370    2.0310 os        1 688     -0.363400
      8 O2         -1.7000   -0.1710    2.0850 os        1 688     -0.361400
      9 C7          1.6530   -1.9300   -1.0750 c         1 688      0.930200
     10 O3          2.5280   -1.6780   -1.9250 o         1 688     -0.816300
     11 O4          1.0790   -3.0750   -0.9850 o         1 688     -0.816300
     12 C11        -2.1930   -1.4720    2.0740 ca        1 688      0.043100
     13 C12        -1.3720   -2.5990    2.0710 ca        1 688     -0.103000
     14 C13        -1.9390   -3.8630    1.8830 ca        1 688     -0.264900
     15 C14        -3.3300   -4.0170    1.8520 ca        1 688     -0.078000
     16 C15        -4.1590   -2.9050    1.9600 ca        1 688     -0.147000
     17 C16        -3.6000   -1.6170    2.0450 ca        1 688      0.166100
     18 C17        -1.0410   -5.0180    1.6590 ce        1 688      0.595800
     19 N11        -0.9680   -6.1270    2.3020 n2        1 688     -0.739100
     20 N12        -0.1270   -4.8120    0.5040 nz        1 688     -0.835600
     21 O11        -4.4600   -0.5590    2.0980 oh        1 688     -0.476100
     22 C21         2.2510    2.5980    3.0690 ca        1 688      0.100100
     23 C22         1.3220    3.6240    2.8640 ca        1 688     -0.113000
     24 C23         1.0990    4.5370    3.8930 ca        1 688     -0.122000
     25 C24         1.7900    4.4310    5.0990 ca        1 688     -0.132000
     26 C25         2.7220    3.4010    5.2900 ca        1 688     -0.112500
     27 C26         2.9520    2.4660    4.2740 ca        1 688     -0.088000
     28 C27         3.4540    3.2810    6.5500 cc        1 688      0.443000
     29 N21         3.8100    4.3930    7.3390 na        1 688     -0.306900
     30 N22         3.8930    2.1260    7.1280 nd        1 688     -0.653000
     31 C28         4.5370    2.5050    8.2980 cd        1 688      0.292200
     32 C29         4.4980    3.9060    8.4450 cc        1 688     -0.254600
     33 H1         -0.8400   -1.5170   -0.1180 ha        1 688      0.157000
     34 H3          3.1720    0.0840    0.1450 ha        1 688      0.187000
     35 H12        -0.2820   -2.4830    2.1940 ha        1 688      0.168000
     36 H14        -3.7770   -5.0160    1.7290 ha        1 688      0.144000
     37 H15        -5.2540   -3.0110    1.9520 ha        1 688      0.169000
     38 HN11       -1.5870   -6.2300    3.0780 hn        1 688      0.452400
     39 H121       -0.6230   -5.0140   -0.3690 hn        1 688      0.483800
     40 H122        0.7060   -5.4040    0.5480 hn        1 688      0.483800
     41 HO11       -3.9400    0.2630    2.0930 ho        1 688      0.455000
     42 H22         0.7750    3.6950    1.9130 ha        1 688      0.152000
     43 H23         0.3660    5.3460    3.7530 ha        1 688      0.137000
     44 H24         1.5830    5.1520    5.9020 ha        1 688      0.128000
     45 H26         3.6720    1.6440    4.4080 ha        1 688      0.170000
     46 HN21        3.6260    5.3360    7.1270 hn        1 688      0.301700
     47 H28         4.9860    1.7700    8.9640 h4        1 688      0.042100
     48 H29         4.8920    4.5580    9.2220 h4        1 688      0.177000
     49 H123        0.2020   -3.7940    0.4200 hn        1 688      0.483800
@<TRIPOS>BOND
     1    1    2 ar  
     2    1    6 ar  
     3    1   33 1   
     4    2    3 ar  
     5    2    9 1   
     6    3    4 ar  
     7    3   34 1   
     8    4    5 ar  
     9    4    7 1   
    10    5    6 ar  
    11    6    8 1   
    12    7   22 1   
    13    8   12 1   
    14    9   10 1   
    15    9   11 1   
    16   12   13 ar  
    17   12   17 ar  
    18   13   14 ar  
    19   13   35 1   
    20   14   15 ar  
    21   14   18 1   
    22   15   16 ar  
    23   15   36 1   
    24   16   17 ar  
    25   16   37 1   
    26   17   21 1   
    27   18   19 2   
    28   18   20 1   
    29   19   38 1   
    30   20   39 1   
    31   20   40 1   
    32   20   49 1   
    33   21   41 1   
    34   22   23 ar  
    35   22   27 ar  
    36   23   24 ar  
    37   23   42 1   
    38   24   25 ar  
    39   24   43 1   
    40   25   26 ar  
    41   25   44 1   
    42   26   27 ar  
    43   26   28 1   
    44   27   45 1   
    45   28   29 1   
    46   28   30 2   
    47   29   32 1   
    48   29   46 1   
    49   30   31 1   
    50   31   32 2   
    51   31   47 1   
    52   32   48 1   
@<TRIPOS>SUBSTRUCTURE
     1 688         1 TEMP              0 ****  ****    0 ROOT
