@<TRIPOS>MOLECULE
688
   49    52     1     0     0
SMALL
bcc


@<TRIPOS>ATOM
      1 C1         -0.1300   -0.8730    0.3860 ca        1 688     -0.305300
      2 C2          1.1900   -0.8660   -0.0820 ca        1 688     -0.066600
      3 C3          2.0960    0.0340    0.4710 ca        1 688     -0.222300
      4 C4          1.6370    0.8670    1.5270 ca        1 688      0.625600
      5 N5          0.4000    0.8100    2.0880 nb        1 688     -0.711000
      6 C6         -0.4430   -0.0730    1.4980 ca        1 688      0.596600
      7 O1          2.5990    1.7450    2.0100 os        1 688     -0.363400
      8 O2         -1.7100   -0.1760    2.1190 os        1 688     -0.361400
      9 C7          1.6010   -1.9110   -1.0970 c         1 688      0.930200
     10 O3          2.4630   -1.6530   -1.9600 o         1 688     -0.816300
     11 O4          1.0320   -3.0590   -1.0040 o         1 688     -0.816300
     12 C11        -2.2000   -1.4790    2.1090 ca        1 688      0.043100
     13 C12        -1.3750   -2.6040    2.0900 ca        1 688     -0.103000
     14 C13        -1.9410   -3.8690    1.9040 ca        1 688     -0.264900
     15 C14        -3.3320   -4.0270    1.8930 ca        1 688     -0.078000
     16 C15        -4.1620   -2.9180    2.0180 ca        1 688     -0.147000
     17 C16        -3.6060   -1.6280    2.1000 ca        1 688      0.166100
     18 C17        -1.0430   -5.0190    1.6610 ce        1 688      0.595800
     19 N11        -0.9570   -6.1310    2.2980 n2        1 688     -0.739100
     20 N12        -0.1470   -4.8050    0.4940 n4        1 688     -0.835600
     21 O11        -4.4690   -0.5740    2.1700 oh        1 688     -0.476100
     22 C21         2.2460    2.6020    3.0560 ca        1 688      0.100100
     23 C22         1.3100    3.6250    2.8690 ca        1 688     -0.113000
     24 C23         1.0980    4.5340    3.9040 ca        1 688     -0.122000
     25 C24         1.8080    4.4270    5.0980 ca        1 688     -0.132000
     26 C25         2.7460    3.4000    5.2730 ca        1 688     -0.112500
     27 C26         2.9640    2.4680    4.2500 ca        1 688     -0.088000
     28 C27         3.4970    3.2770    6.5210 cc        1 688      0.443000
     29 N21         3.8610    4.3880    7.3090 na        1 688     -0.306900
     30 N22         3.9490    2.1230    7.0890 nd        1 688     -0.653000
     31 C28         4.6070    2.5010    8.2510 cd        1 688      0.292200
     32 C29         4.5660    3.9010    8.4030 cc        1 688     -0.254600
     33 H1         -0.8790   -1.5100   -0.1030 ha        1 688      0.157000
     34 H3          3.1320    0.1020    0.1090 ha        1 688      0.187000
     35 H12        -0.2840   -2.4840    2.1970 ha        1 688      0.168000
     36 H14        -3.7780   -5.0260    1.7720 ha        1 688      0.144000
     37 H15        -5.2570   -3.0270    2.0250 ha        1 688      0.169000
     38 HN11       -1.5640   -6.2400    3.0830 hn        1 688      0.452400
     39 H121       -0.6550   -5.0050   -0.3720 hn        1 688      0.483800
     40 H122        0.6890   -5.3950    0.5240 hn        1 688      0.483800
     41 HO11       -3.9510    0.2510    2.1620 ho        1 688      0.455000
     42 H22         0.7490    3.6970    1.9260 ha        1 688      0.152000
     43 H23         0.3610    5.3410    3.7770 ha        1 688      0.137000
     44 H24         1.6090    5.1450    5.9070 ha        1 688      0.128000
     45 H26         3.6890    1.6490    4.3710 ha        1 688      0.170000
     46 HN21        3.6700    5.3320    7.1020 hn        1 688      0.301700
     47 H28         5.0690    1.7640    8.9080 h4        1 688      0.042100
     48 H29         4.9690    4.5520    9.1760 h4        1 688      0.177000
     49 H123        0.1780   -3.7860    0.4100 hn        1 688      0.483800
@<TRIPOS>BOND
     1    1    2 ar  
     2    1    6 ar  
     3    1   33 1   
     4    2    3 ar  
     5    2    9 1   
     6    3    4 ar  
     7    3   34 1   
     8    4    5 ar  
     9    4    7 1   
    10    5    6 ar  
    11    6    8 1   
    12    7   22 1   
    13    8   12 1   
    14    9   10 1   
    15    9   11 1   
    16   12   13 ar  
    17   12   17 ar  
    18   13   14 ar  
    19   13   35 1   
    20   14   15 ar  
    21   14   18 1   
    22   15   16 ar  
    23   15   36 1   
    24   16   17 ar  
    25   16   37 1   
    26   17   21 1   
    27   18   19 2   
    28   18   20 1   
    29   19   38 1   
    30   20   39 1   
    31   20   40 1   
    32   20   49 1   
    33   21   41 1   
    34   22   23 ar  
    35   22   27 ar  
    36   23   24 ar  
    37   23   42 1   
    38   24   25 ar  
    39   24   43 1   
    40   25   26 ar  
    41   25   44 1   
    42   26   27 ar  
    43   26   28 1   
    44   27   45 1   
    45   28   29 1   
    46   28   30 2   
    47   29   32 1   
    48   29   46 1   
    49   30   31 1   
    50   31   32 2   
    51   31   47 1   
    52   32   48 1   
@<TRIPOS>SUBSTRUCTURE
     1 688         1 TEMP              0 ****  ****    0 ROOT
