@<TRIPOS>MOLECULE
688
   48    51     1     0     0
SMALL
bcc


@<TRIPOS>ATOM
      1 C1         -3.2280   -1.0050   -2.3750 ca        1 688     -0.222300
      2 C2         -4.1510   -0.8500   -1.3390 ca        1 688     -0.071600
      3 C3         -3.6990   -0.4420   -0.0770 ca        1 688     -0.216300
      4 C4         -2.3210   -0.2070    0.0840 ca        1 688      0.573600
      5 N5         -1.3820   -0.3510   -0.8890 nb        1 688     -0.758000
      6 C6         -1.8680   -0.7480   -2.0890 ca        1 688      0.580600
      7 O1         -1.9250    0.3120    1.3270 os        1 688     -0.366400
      8 O2         -1.0010   -0.9810   -3.1660 os        1 688     -0.386400
      9 C7         -5.6360   -1.1440   -1.5730 c         1 688      0.912200
     10 O3         -5.9730   -1.5250   -2.7250 o         1 688     -0.808300
     11 O4         -6.4140   -0.9920   -0.5940 o         1 688     -0.808300
     12 C11         0.3220   -0.5740   -3.0370 ca        1 688      0.047100
     13 C12         0.6890    0.7630   -2.8770 ca        1 688     -0.063000
     14 C13         2.0460    1.1010   -2.8890 ca        1 688     -0.214900
     15 C14         3.0210    0.1120   -3.0470 ca        1 688     -0.098000
     16 C15         2.6620   -1.2240   -3.1960 ca        1 688     -0.163000
     17 C16         1.3050   -1.5760   -3.1890 ca        1 688      0.135100
     18 C17         2.4430    2.5330   -2.7110 ce        1 688      0.639800
     19 N11         2.0780    3.2800   -1.7110 n2        1 688     -0.838100
     20 N12         3.2140    3.0580   -3.7740 nh        1 688     -0.893800
     21 O11         0.9900   -2.9000   -3.3580 oh        1 688     -0.500100
     22 C21        -0.8270   -0.2760    1.9360 ca        1 688      0.142100
     23 C22        -0.4800   -1.6220    1.7720 ca        1 688     -0.151000
     24 C23         0.5870   -2.1390    2.5040 ca        1 688     -0.110000
     25 C24         1.2880   -1.3380    3.4020 ca        1 688     -0.163000
     26 C25         0.9250    0.0070    3.5730 ca        1 688     -0.111500
     27 C26        -0.1260    0.5520    2.8300 ca        1 688     -0.111000
     28 C27         1.6410    0.8480    4.5310 cc        1 688      0.461000
     29 N21         2.1810    0.3380    5.7290 na        1 688     -0.312900
     30 N22         1.8810    2.1860    4.4340 nd        1 688     -0.652000
     31 C28         2.5810    2.5340    5.5820 cd        1 688      0.291200
     32 C29         2.7750    1.4030    6.3990 cc        1 688     -0.269600
     33 H1         -3.5600   -1.3240   -3.3730 ha        1 688      0.183000
     34 H3         -4.4130   -0.3060    0.7480 ha        1 688      0.184000
     35 H12        -0.0890    1.5300   -2.7390 ha        1 688      0.164000
     36 H14         4.0880    0.3810   -3.0390 ha        1 688      0.124000
     37 H15         3.4220   -2.0090   -3.3130 ha        1 688      0.145000
     38 HN11        1.4560    2.8340   -1.0710 hn        1 688      0.408400
     39 H121        3.6640    3.9260   -3.5850 hn        1 688      0.389300
     40 H122        3.8160    2.3830   -4.1890 hn        1 688      0.389300
     41 HO11        0.0250   -2.9870   -3.2750 ho        1 688      0.444000
     42 H22        -1.0380   -2.2590    1.0690 ha        1 688      0.156000
     43 H23         0.8760   -3.1920    2.3700 ha        1 688      0.129000
     44 H24         2.1360   -1.7630    3.9560 ha        1 688      0.118000
     45 H26        -0.4140    1.6090    2.9370 ha        1 688      0.169000
     46 HN21        2.1230   -0.5950    6.0370 hn        1 688      0.298700
     47 H28         2.9050    3.5580    5.7600 h4        1 688      0.037100
     48 H29         3.2690    1.2860    7.3600 h4        1 688      0.169000
@<TRIPOS>BOND
     1    1    2 ar  
     2    1    6 ar  
     3    1   33 1   
     4    2    3 ar  
     5    2    9 1   
     6    3    4 ar  
     7    3   34 1   
     8    4    5 ar  
     9    4    7 1   
    10    5    6 ar  
    11    6    8 1   
    12    7   22 1   
    13    8   12 1   
    14    9   10 1   
    15    9   11 1   
    16   12   13 ar  
    17   12   17 ar  
    18   13   14 ar  
    19   13   35 1   
    20   14   15 ar  
    21   14   18 1   
    22   15   16 ar  
    23   15   36 1   
    24   16   17 ar  
    25   16   37 1   
    26   17   21 1   
    27   18   19 2   
    28   18   20 1   
    29   19   38 1   
    30   20   39 1   
    31   20   40 1   
    32   21   41 1   
    33   22   23 ar  
    34   22   27 ar  
    35   23   24 ar  
    36   23   42 1   
    37   24   25 ar  
    38   24   43 1   
    39   25   26 ar  
    40   25   44 1   
    41   26   27 ar  
    42   26   28 1   
    43   27   45 1   
    44   28   29 1   
    45   28   30 2   
    46   29   32 1   
    47   29   46 1   
    48   30   31 1   
    49   31   32 2   
    50   31   47 1   
    51   32   48 1   
@<TRIPOS>SUBSTRUCTURE
     1 688         1 TEMP              0 ****  ****    0 ROOT
