@<TRIPOS>MOLECULE
688
   49    52     1     0     0
SMALL
bcc


@<TRIPOS>ATOM
      1 C1         -0.1120   -0.8490    0.3730 ca        1 688     -0.304300
      2 C2          1.2130   -0.8490   -0.0820 ca        1 688     -0.066600
      3 C3          2.1200    0.0420    0.4850 ca        1 688     -0.222300
      4 C4          1.6570    0.8710    1.5430 ca        1 688      0.625600
      5 N5          0.4140    0.8190    2.0910 nb        1 688     -0.711000
      6 C6         -0.4300   -0.0540    1.4870 ca        1 688      0.596600
      7 O1          2.6200    1.7390    2.0400 os        1 688     -0.363400
      8 O2         -1.7040   -0.1520    2.0940 os        1 688     -0.361400
      9 C7          1.6270   -1.8890   -1.1000 c         1 688      0.930200
     10 O3          2.4990   -1.6320   -1.9530 o         1 688     -0.816300
     11 O4          1.0490   -3.0340   -1.0200 o         1 688     -0.816300
     12 C11        -2.2030   -1.4520    2.0710 ca        1 688      0.043100
     13 C12        -1.3850   -2.5820    2.0530 ca        1 688     -0.103000
     14 C13        -1.9580   -3.8410    1.8540 ca        1 688     -0.264900
     15 C14        -3.3500   -3.9900    1.8280 ca        1 688     -0.078000
     16 C15        -4.1740   -2.8760    1.9520 ca        1 688     -0.147000
     17 C16        -3.6100   -1.5910    2.0480 ca        1 688      0.166100
     18 C17        -1.0660   -4.9970    1.6130 ce        1 688      0.595800
     19 N11        -0.9930   -6.1130    2.2430 n2        1 688     -0.739100
     20 N12        -0.1560   -4.7820    0.4560 n4        1 688     -0.835600
     21 O11        -4.4660   -0.5310    2.1160 oh        1 688     -0.476100
     22 C21         2.2630    2.5900    3.0910 ca        1 688      0.100100
     23 C22         1.3360    3.6210    2.9030 ca        1 688     -0.113000
     24 C23         1.1210    4.5230    3.9440 ca        1 688     -0.122000
     25 C24         1.8190    4.4000    5.1440 ca        1 688     -0.132000
     26 C25         2.7480    3.3640    5.3190 ca        1 688     -0.112500
     27 C26         2.9690    2.4400    4.2900 ca        1 688     -0.088000
     28 C27         3.4850    3.2260    6.5730 cc        1 688      0.443000
     29 N21         3.8490    4.3270    7.3740 na        1 688     -0.306900
     30 N22         3.9220    2.0630    7.1350 nd        1 688     -0.653000
     31 C28         4.5730    2.4260    8.3070 cd        1 688      0.292200
     32 C29         4.5400    3.8250    8.4710 cc        1 688     -0.254600
     33 H1         -0.8600   -1.4780   -0.1280 ha        1 688      0.157000
     34 H3          3.1590    0.1050    0.1340 ha        1 688      0.187000
     35 H12        -0.2940   -2.4700    2.1710 ha        1 688      0.168000
     36 H14        -3.8010   -4.9860    1.6960 ha        1 688      0.144000
     37 H15        -5.2690   -2.9780    1.9470 ha        1 688      0.169000
     38 HN11       -1.6090   -6.2220    3.0220 hn        1 688      0.452400
     39 H121       -0.6560   -4.9730   -0.4170 hn        1 688      0.483800
     40 H122        0.6750   -5.3770    0.4900 hn        1 688      0.483800
     41 HO11       -3.9430    0.2900    2.1180 ho        1 688      0.455000
     42 H22         0.7850    3.7060    1.9560 ha        1 688      0.152000
     43 H23         0.3910    5.3360    3.8170 ha        1 688      0.137000
     44 H24         1.6170    5.1120    5.9570 ha        1 688      0.128000
     45 H26         3.6860    1.6140    4.4110 ha        1 688      0.170000
     46 HN21        3.6680    5.2740    7.1730 hn        1 688      0.301700
     47 H28         5.0220    1.6800    8.9620 h4        1 688      0.042100
     48 H29         4.9410    4.4660    9.2530 h4        1 688      0.177000
     49 H123        0.1770   -3.7640    0.3810 hn        1 688      0.483800
@<TRIPOS>BOND
     1    1    2 ar  
     2    1    6 ar  
     3    1   33 1   
     4    2    3 ar  
     5    2    9 1   
     6    3    4 ar  
     7    3   34 1   
     8    4    5 ar  
     9    4    7 1   
    10    5    6 ar  
    11    6    8 1   
    12    7   22 1   
    13    8   12 1   
    14    9   10 1   
    15    9   11 1   
    16   12   13 ar  
    17   12   17 ar  
    18   13   14 ar  
    19   13   35 1   
    20   14   15 ar  
    21   14   18 1   
    22   15   16 ar  
    23   15   36 1   
    24   16   17 ar  
    25   16   37 1   
    26   17   21 1   
    27   18   19 2   
    28   18   20 1   
    29   19   38 1   
    30   20   39 1   
    31   20   40 1   
    32   20   49 1   
    33   21   41 1   
    34   22   23 ar  
    35   22   27 ar  
    36   23   24 ar  
    37   23   42 1   
    38   24   25 ar  
    39   24   43 1   
    40   25   26 ar  
    41   25   44 1   
    42   26   27 ar  
    43   26   28 1   
    44   27   45 1   
    45   28   29 1   
    46   28   30 2   
    47   29   32 1   
    48   29   46 1   
    49   30   31 1   
    50   31   32 2   
    51   31   47 1   
    52   32   48 1   
@<TRIPOS>SUBSTRUCTURE
     1 688         1 TEMP              0 ****  ****    0 ROOT
