@<TRIPOS>MOLECULE
689
   45    44     1     0     0
SMALL
bcc


@<TRIPOS>ATOM
      1 CAN        -2.6940    0.7510   -1.3670 c3        1 689     -0.208000
      2 CAK        -0.9960    0.7370   -1.3840 c3        1 689     -0.100000
      3 CAJ        -0.4790    0.7770    0.1460 c3        1 689     -0.087000
      4 CAO        -0.7080   -0.4170    0.9330 c2        1 689     -0.097000
      5 CAR        -1.4770   -0.3300    2.2330 c3        1 689     -0.180000
      6 CAQ        -0.6850   -1.8350    0.0790 c1        1 689     -0.156000
      7 CAP        -1.0680   -1.7200   -1.3490 c2        1 689     -0.052000
      8 CAS        -0.4920   -2.8590   -2.1430 c3        1 689     -0.211000
      9 CAL        -0.6420   -0.2060   -2.0070 c3        1 689     -0.068000
     10 CAT        -1.2260   -0.1070   -3.3990 c3        1 689     -0.013000
     11 OAU        -0.2290   -0.4080   -4.3500 oh        1 689     -0.330000
     12 CAM         1.0300   -0.1420   -2.1240 c3        1 689     -0.007000
     13 OAH         1.6630   -0.0600   -0.6690 os        1 689     -0.263000
     14 CAI         0.9920    1.0250    0.1140 c3        1 689      0.079000
     15 CAD         1.5180    1.0380    1.4860 c2        1 689     -0.105000
     16 CAC         1.3500    2.1600    2.2820 c2        1 689     -0.093000
     17 CAB         1.9220    2.2080    3.5430 c1        1 689     -0.217000
     18 CAA         2.6630    1.1340    4.0090 c1        1 689      0.077000
     19 OAG         3.2560    1.1880    5.2840 oh        1 689     -0.252000
     20 CAF         2.8320    0.0110    3.2140 c1        1 689     -0.162000
     21 CAE         2.2590   -0.0370    1.9530 c1        1 689     -0.065000
     22 HAN1       -3.0210    1.4010   -2.0240 hc        1 689      0.077333
     23 HAN2       -3.0100    1.0020   -0.4740 hc        1 689      0.077333
     24 HAN3       -3.0300   -0.1410   -1.5950 hc        1 689      0.077333
     25 HAK        -0.6820    1.5450   -1.8380 hc        1 689      0.084000
     26 HAJ        -0.9100    1.5290    0.5970 hc        1 689      0.100000
     27 HAR1       -1.5190    0.6040    2.5260 hc        1 689      0.082667
     28 HAR2       -2.3860   -0.6720    2.0990 hc        1 689      0.082667
     29 HAR3       -1.0240   -0.8660    2.9170 hc        1 689      0.082667
     30 HAQ        -0.7860   -2.6870    0.5440 ha        1 689      0.124000
     31 HAP        -2.0250   -1.8790   -1.4660 ha        1 689      0.086000
     32 HAS1       -0.3770   -2.5820   -3.0760 hc        1 689      0.083000
     33 HAS2        0.3770   -3.1130   -1.7690 hc        1 689      0.083000
     34 HAS3       -1.1020   -3.6260   -2.1030 hc        1 689      0.083000
     35 HAT1       -1.9650   -0.7430   -3.4890 h1        1 689      0.064000
     36 HAT2       -1.5570    0.8020   -3.5500 h1        1 689      0.064000
     37 HAU        -0.5920   -0.4420   -5.1600 ho        1 689      0.200000
     38 HAM1        1.2910    0.6480   -2.6380 h1        1 689      0.097500
     39 HAM2        1.3560   -0.9470   -2.5760 h1        1 689      0.097500
     40 HAI         1.1680    1.8870   -0.3090 h1        1 689      0.078000
     41 HAC         0.8280    2.9170    1.9540 ha        1 689      0.130000
     42 HAB         1.8040    2.9990    4.1040 ha        1 689      0.132000
     43 HAG         2.6400    1.0260    5.9040 ho        1 689      0.216000
     44 HAF         3.3530   -0.7460    3.5430 ha        1 689      0.151000
     45 HAE         2.3780   -0.8280    1.3930 ha        1 689      0.159000
@<TRIPOS>BOND
     1    1    2 1   
     2    1   22 1   
     3    1   23 1   
     4    1   24 1   
     5    2    3 1   
     6    2    9 1   
     7    2   25 1   
     8    3    4 1   
     9    3   14 1   
    10    3   26 1   
    11    4    5 1   
    12    4    6 1   
    13    5   27 1   
    14    5   28 1   
    15    5   29 1   
    16    6   30 1   
    17    7    8 1   
    18    7    9 1   
    19    7   31 1   
    20    8   32 1   
    21    8   33 1   
    22    8   34 1   
    23    9   10 1   
    24    9   12 1   
    25   10   11 1   
    26   10   35 1   
    27   10   36 1   
    28   11   37 1   
    29   12   13 1   
    30   12   38 1   
    31   12   39 1   
    32   13   14 1   
    33   14   15 1   
    34   14   40 1   
    35   15   16 1   
    36   15   21 1   
    37   16   17 1   
    38   16   41 1   
    39   17   42 1   
    40   18   19 1   
    41   18   20 1   
    42   19   43 1   
    43   20   44 1   
    44   21   45 1   
@<TRIPOS>SUBSTRUCTURE
     1 689         1 TEMP              0 ****  ****    0 ROOT
