@<TRIPOS>MOLECULE
689
   45    47     1     0     0
SMALL
bcc


@<TRIPOS>ATOM
      1 CAN        -2.4710    2.2940   -1.0670 c3        1 689     -0.090100
      2 CAK        -1.7850    0.9500   -1.1260 c3        1 689     -0.060700
      3 CAJ        -0.3380    1.0290   -0.6200 c3        1 689     -0.043500
      4 CAO        -0.3250    1.3480    0.8410 c2        1 689     -0.105400
      5 CAR         0.8340    2.1240    1.3400 c3        1 689     -0.057900
      6 CAQ        -1.3290    0.9560    1.6390 c2        1 689     -0.161200
      7 CAP        -2.5470    0.2360    1.1720 c3        1 689     -0.008500
      8 CAS        -2.8250   -0.9440    2.0830 c3        1 689     -0.093100
      9 CAL        -2.4940   -0.1530   -0.3150 c3        1 689     -0.068000
     10 CAT        -3.9180   -0.3260   -0.8710 c3        1 689      0.137400
     11 OAU        -4.4250   -1.5860   -0.4580 oh        1 689     -0.602800
     12 CAM        -1.7280   -1.4610   -0.5720 c3        1 689      0.143400
     13 OAH        -0.3450   -1.3920   -0.2550 os        1 689     -0.407600
     14 CAI         0.3300   -0.3260   -0.9340 c3        1 689      0.197400
     15 CAD         1.7820   -0.3770   -0.5710 ca        1 689     -0.113300
     16 CAC         2.6930    0.3600   -1.3410 ca        1 689     -0.079500
     17 CAB         4.0540    0.3260   -1.0590 ca        1 689     -0.189000
     18 CAA         4.5090   -0.4660    0.0090 ca        1 689      0.122100
     19 OAG         5.8650   -0.4620    0.2410 oh        1 689     -0.499100
     20 CAF         3.6100   -1.2110    0.7830 ca        1 689     -0.189000
     21 CAE         2.2490   -1.1620    0.4870 ca        1 689     -0.079500
     22 HAN1       -1.8990    3.0390   -1.6730 hc        1 689      0.038033
     23 HAN2       -3.5060    2.2230   -1.4820 hc        1 689      0.038033
     24 HAN3       -2.5310    2.6670   -0.0160 hc        1 689      0.038033
     25 HAK        -1.7620    0.6230   -2.2050 hc        1 689      0.044700
     26 HAJ         0.2150    1.8280   -1.1860 hc        1 689      0.061700
     27 HAR1        0.8090    2.2270    2.4530 hc        1 689      0.043367
     28 HAR2        1.7890    1.6160    1.0490 hc        1 689      0.043367
     29 HAR3        0.8300    3.1490    0.8910 hc        1 689      0.043367
     30 HAQ        -1.3120    1.1730    2.7200 ha        1 689      0.124000
     31 HAP        -3.4070    0.9650    1.2860 hc        1 689      0.046700
     32 HAS1       -3.0680   -0.5800    3.1110 hc        1 689      0.043700
     33 HAS2       -3.6900   -1.5380    1.6970 hc        1 689      0.043700
     34 HAS3       -1.9310   -1.6090    2.1490 hc        1 689      0.043700
     35 HAT1       -4.5850    0.4960   -0.4970 h1        1 689      0.025200
     36 HAT2       -3.8920   -0.2890   -1.9950 h1        1 689      0.025200
     37 HAU        -5.3330   -1.6310   -0.7780 ho        1 689      0.401000
     38 HAM1       -2.1170   -2.2920    0.0740 h1        1 689      0.057700
     39 HAM2       -1.8470   -1.7430   -1.6540 h1        1 689      0.057700
     40 HAI         0.2360   -0.5060   -2.0480 h1        1 689      0.039700
     41 HAC         2.3290    0.9730   -2.1790 ha        1 689      0.144000
     42 HAB         4.7760    0.9010   -1.6550 ha        1 689      0.141500
     43 HAG         6.0400   -1.0520    0.9880 ho        1 689      0.418000
     44 HAF         3.9740   -1.8310    1.6140 ha        1 689      0.141500
     45 HAE         1.5330   -1.7470    1.0870 ha        1 689      0.144000
@<TRIPOS>BOND
     1    1    2 1   
     2    1   22 1   
     3    1   23 1   
     4    1   24 1   
     5    2    3 1   
     6    2    9 1   
     7    2   25 1   
     8    3    4 1   
     9    3   14 1   
    10    3   26 1   
    11    4    5 1   
    12    4    6 2   
    13    5   27 1   
    14    5   28 1   
    15    5   29 1   
    16    6    7 1   
    17    6   30 1   
    18    7    8 1   
    19    7    9 1   
    20    7   31 1   
    21    8   32 1   
    22    8   33 1   
    23    8   34 1   
    24    9   10 1   
    25    9   12 1   
    26   10   11 1   
    27   10   35 1   
    28   10   36 1   
    29   11   37 1   
    30   12   13 1   
    31   12   38 1   
    32   12   39 1   
    33   13   14 1   
    34   14   15 1   
    35   14   40 1   
    36   15   16 ar  
    37   15   21 ar  
    38   16   17 ar  
    39   16   41 1   
    40   17   18 ar  
    41   17   42 1   
    42   18   19 1   
    43   18   20 ar  
    44   19   43 1   
    45   20   21 ar  
    46   20   44 1   
    47   21   45 1   
@<TRIPOS>SUBSTRUCTURE
     1 689         1 TEMP              0 ****  ****    0 ROOT
