@<TRIPOS>MOLECULE
689
   45    47     1     0     0
SMALL
bcc


@<TRIPOS>ATOM
      1 CAN         0.0450    0.1020   -0.1150 c3        1 689     -0.090100
      2 CAK         1.5440   -0.0570   -0.0190 c3        1 689     -0.060700
      3 CAJ         2.0240   -0.0380    1.4380 c3        1 689     -0.043500
      4 CAO         1.5140   -1.2450    2.1590 c2        1 689     -0.105400
      5 CAR         1.2520   -1.0900    3.6090 c3        1 689     -0.057900
      6 CAQ         1.2950   -2.3950    1.5050 c2        1 689     -0.161200
      7 CAP         1.4760   -2.5790    0.0370 c3        1 689     -0.008500
      8 CAS         2.2540   -3.8540   -0.2270 c3        1 689     -0.093100
      9 CAL         2.0820   -1.3500   -0.6630 c3        1 689     -0.068000
     10 CAT         1.7030   -1.3460   -2.1540 c3        1 689      0.137400
     11 OAU         2.5310   -2.2700   -2.8430 oh        1 689     -0.602800
     12 CAM         3.6150   -1.2940   -0.5680 c3        1 689      0.143400
     13 OAH         4.1070   -1.1290    0.7540 os        1 689     -0.407600
     14 CAI         3.5670    0.0250    1.4100 c3        1 689      0.197400
     15 CAD         4.1860    0.1310    2.7680 ca        1 689     -0.113300
     16 CAC         4.0550    1.3360    3.4740 ca        1 689     -0.079500
     17 CAB         4.6340    1.4930    4.7280 ca        1 689     -0.189000
     18 CAA         5.3620    0.4260    5.2810 ca        1 689      0.122100
     19 OAG         5.9130    0.6380    6.5240 oh        1 689     -0.499100
     20 CAF         5.5050   -0.7810    4.5850 ca        1 689     -0.189000
     21 CAE         4.9150   -0.9210    3.3300 ca        1 689     -0.079500
     22 HAN1       -0.2680    1.0560    0.3740 hc        1 689      0.038033
     23 HAN2       -0.4790   -0.7430    0.3930 hc        1 689      0.038033
     24 HAN3       -0.2770    0.1310   -1.1840 hc        1 689      0.038033
     25 HAK         2.0160    0.8170   -0.5550 hc        1 689      0.044700
     26 HAJ         1.6490    0.8920    1.9460 hc        1 689      0.061700
     27 HAR1        0.4160   -0.3650    3.7720 hc        1 689      0.043367
     28 HAR2        2.1650   -0.6940    4.1220 hc        1 689      0.043367
     29 HAR3        0.9730   -2.0640    4.0800 hc        1 689      0.043367
     30 HAQ         0.9380   -3.2910    2.0370 ha        1 689      0.124000
     31 HAP         0.4370   -2.7180   -0.3940 hc        1 689      0.046700
     32 HAS1        2.4640   -3.9610   -1.3190 hc        1 689      0.043700
     33 HAS2        1.6610   -4.7370    0.1150 hc        1 689      0.043700
     34 HAS3        3.2230   -3.8460    0.3290 hc        1 689      0.043700
     35 HAT1        0.6240   -1.6290   -2.2820 h1        1 689      0.025200
     36 HAT2        1.8610   -0.3180   -2.5810 h1        1 689      0.025200
     37 HAU         2.2260   -2.2780   -3.7580 ho        1 689      0.401000
     38 HAM1        4.0780   -2.2560   -0.9160 h1        1 689      0.057700
     39 HAM2        3.9860   -0.4480   -1.2100 h1        1 689      0.057700
     40 HAI         3.8630    0.9380    0.8110 h1        1 689      0.039700
     41 HAC         3.4880    2.1690    3.0310 ha        1 689      0.144000
     42 HAB         4.5350    2.4320    5.2890 ha        1 689      0.141500
     43 HAG         6.3920   -0.1640    6.7780 ho        1 689      0.418000
     44 HAF         6.0790   -1.6100    5.0230 ha        1 689      0.141500
     45 HAE         5.0240   -1.8650    2.7720 ha        1 689      0.144000
@<TRIPOS>BOND
     1    1    2 1   
     2    1   22 1   
     3    1   23 1   
     4    1   24 1   
     5    2    3 1   
     6    2    9 1   
     7    2   25 1   
     8    3    4 1   
     9    3   14 1   
    10    3   26 1   
    11    4    5 1   
    12    4    6 2   
    13    5   27 1   
    14    5   28 1   
    15    5   29 1   
    16    6    7 1   
    17    6   30 1   
    18    7    8 1   
    19    7    9 1   
    20    7   31 1   
    21    8   32 1   
    22    8   33 1   
    23    8   34 1   
    24    9   10 1   
    25    9   12 1   
    26   10   11 1   
    27   10   35 1   
    28   10   36 1   
    29   11   37 1   
    30   12   13 1   
    31   12   38 1   
    32   12   39 1   
    33   13   14 1   
    34   14   15 1   
    35   14   40 1   
    36   15   16 ar  
    37   15   21 ar  
    38   16   17 ar  
    39   16   41 1   
    40   17   18 ar  
    41   17   42 1   
    42   18   19 1   
    43   18   20 ar  
    44   19   43 1   
    45   20   21 ar  
    46   20   44 1   
    47   21   45 1   
@<TRIPOS>SUBSTRUCTURE
     1 689         1 TEMP              0 ****  ****    0 ROOT
