@<TRIPOS>MOLECULE
689
   45    47     1     0     0
SMALL
bcc


@<TRIPOS>ATOM
      1 CAN         0.0900    0.1710   -0.1410 c3        1 689     -0.090100
      2 CAK         1.5820   -0.0360   -0.0350 c3        1 689     -0.060700
      3 CAJ         2.0550   -0.0190    1.4250 c3        1 689     -0.043500
      4 CAO         1.5010   -1.2010    2.1540 c2        1 689     -0.105400
      5 CAR         1.2370   -1.0240    3.6010 c3        1 689     -0.057900
      6 CAQ         1.2470   -2.3500    1.5100 c2        1 689     -0.161200
      7 CAP         1.4290   -2.5550    0.0450 c3        1 689     -0.008500
      8 CAS         2.1650   -3.8580   -0.2020 c3        1 689     -0.093100
      9 CAL         2.0790   -1.3540   -0.6640 c3        1 689     -0.068000
     10 CAT         1.7080   -1.3520   -2.1560 c3        1 689      0.137400
     11 OAU         2.5080   -2.3100   -2.8320 oh        1 689     -0.602800
     12 CAM         3.6130   -1.3480   -0.5610 c3        1 689      0.143400
     13 OAH         4.1030   -1.1860    0.7630 os        1 689     -0.407600
     14 CAI         3.5990   -0.0090    1.4040 c3        1 689      0.197400
     15 CAD         4.2150    0.0910    2.7650 ca        1 689     -0.113300
     16 CAC         4.1200    1.3060    3.4580 ca        1 689     -0.079500
     17 CAB         4.6970    1.4560    4.7130 ca        1 689     -0.189000
     18 CAA         5.3870    0.3710    5.2800 ca        1 689      0.122100
     19 OAG         5.9390    0.5770    6.5250 oh        1 689     -0.499100
     20 CAF         5.4940   -0.8470    4.5970 ca        1 689     -0.189000
     21 CAE         4.9050   -0.9800    3.3410 ca        1 689     -0.079500
     22 HAN1       -0.4660   -0.6500    0.3730 hc        1 689      0.038033
     23 HAN2       -0.1940    1.1400    0.3370 hc        1 689      0.038033
     24 HAN3       -0.2260    0.2010   -1.2120 hc        1 689      0.038033
     25 HAK         2.0860    0.8150   -0.5780 hc        1 689      0.044700
     26 HAJ         1.7080    0.9280    1.9210 hc        1 689      0.061700
     27 HAR1        0.9230   -1.9830    4.0800 hc        1 689      0.043367
     28 HAR2        2.1600   -0.6530    4.1150 hc        1 689      0.043367
     29 HAR3        0.4240   -0.2700    3.7520 hc        1 689      0.043367
     30 HAQ         0.8570   -3.2280    2.0490 ha        1 689      0.124000
     31 HAP         0.3880   -2.6630   -0.3900 hc        1 689      0.046700
     32 HAS1        1.5410   -4.7160    0.1450 hc        1 689      0.043700
     33 HAS2        3.1310   -3.8760    0.3590 hc        1 689      0.043700
     34 HAS3        2.3770   -3.9820   -1.2920 hc        1 689      0.043700
     35 HAT1        1.9030   -0.3340   -2.5930 h1        1 689      0.025200
     36 HAT2        0.6210   -1.6000   -2.2880 h1        1 689      0.025200
     37 HAU         2.2080   -2.3170   -3.7480 ho        1 689      0.401000
     38 HAM1        4.0160   -0.5220   -1.2090 h1        1 689      0.057700
     39 HAM2        4.0450   -2.3280   -0.8960 h1        1 689      0.057700
     40 HAI         3.9290    0.8880    0.7980 h1        1 689      0.039700
     41 HAC         3.5830    2.1520    3.0040 ha        1 689      0.144000
     42 HAB         4.6270    2.4030    5.2650 ha        1 689      0.141500
     43 HAG         6.3890   -0.2380    6.7880 ho        1 689      0.418000
     44 HAF         6.0370   -1.6900    5.0450 ha        1 689      0.141500
     45 HAE         4.9860   -1.9320    2.7920 ha        1 689      0.144000
@<TRIPOS>BOND
     1    1    2 1   
     2    1   22 1   
     3    1   23 1   
     4    1   24 1   
     5    2    3 1   
     6    2    9 1   
     7    2   25 1   
     8    3    4 1   
     9    3   14 1   
    10    3   26 1   
    11    4    5 1   
    12    4    6 2   
    13    5   27 1   
    14    5   28 1   
    15    5   29 1   
    16    6    7 1   
    17    6   30 1   
    18    7    8 1   
    19    7    9 1   
    20    7   31 1   
    21    8   32 1   
    22    8   33 1   
    23    8   34 1   
    24    9   10 1   
    25    9   12 1   
    26   10   11 1   
    27   10   35 1   
    28   10   36 1   
    29   11   37 1   
    30   12   13 1   
    31   12   38 1   
    32   12   39 1   
    33   13   14 1   
    34   14   15 1   
    35   14   40 1   
    36   15   16 ar  
    37   15   21 ar  
    38   16   17 ar  
    39   16   41 1   
    40   17   18 ar  
    41   17   42 1   
    42   18   19 1   
    43   18   20 ar  
    44   19   43 1   
    45   20   21 ar  
    46   20   44 1   
    47   21   45 1   
@<TRIPOS>SUBSTRUCTURE
     1 689         1 TEMP              0 ****  ****    0 ROOT
