@<TRIPOS>MOLECULE
68H
   39    39     1     0     0
SMALL
bcc


@<TRIPOS>ATOM
      1 O2          0.0340    0.1180   -0.0980 oh        1 68H     -0.615800
      2 C2          1.4330   -0.1280   -0.0580 c3        1 68H      0.179700
      3 C12         1.8860   -0.1050    1.3640 ca        1 68H     -0.103300
      4 C11         3.2700   -0.0900    1.6470 ca        1 68H      0.162100
      5 O1          4.1160   -0.0900    0.5700 oh        1 68H     -0.481100
      6 C10         3.7320   -0.0740    2.9730 ca        1 68H     -0.209000
      7 C9          2.8150   -0.0690    4.0170 ca        1 68H     -0.074000
      8 C13         0.9860   -0.1090    2.4270 ca        1 68H     -0.051000
      9 C8          1.4420   -0.0860    3.7510 ca        1 68H     -0.219300
     10 C1          0.4460   -0.0870    4.8640 c3        1 68H      0.196400
     11 O3          0.8820   -0.7730    6.0300 oh        1 68H     -0.639800
     12 C3          0.1900    1.3760    5.3020 c3        1 68H      0.095800
     13 N1         -0.6940    1.4520    6.4950 n4        1 68H     -0.761000
     14 C4         -0.9250    2.8610    7.0350 c3        1 68H      0.151200
     15 C7         -1.4840    3.7700    5.9410 c3        1 68H     -0.127433
     16 C6         -1.9410    2.7690    8.1810 c3        1 68H     -0.127433
     17 C5          0.3820    3.4450    7.5730 c3        1 68H     -0.127433
     18 H2         -0.2230    0.0640   -1.0270 ho        1 68H      0.420000
     19 H21C        1.9800    0.6620   -0.6420 h1        1 68H      0.055200
     20 H22C        1.6610   -1.1350   -0.5070 h1        1 68H      0.055200
     21 H13        -0.0950   -0.1320    2.2050 ha        1 68H      0.161000
     22 H1          5.0310   -0.0890    0.8930 ho        1 68H      0.437000
     23 H10         4.8120   -0.0670    3.1810 ha        1 68H      0.153000
     24 H9          3.1730   -0.0560    5.0590 ha        1 68H      0.140000
     25 HA         -0.5220   -0.5590    4.5220 h1        1 68H      0.065700
     26 H3          1.4030   -1.5390    5.7500 ho        1 68H      0.454000
     27 H31C        1.1740    1.8600    5.5590 hx        1 68H      0.112700
     28 H32C       -0.2900    1.9310    4.4480 hx        1 68H      0.112700
     29 HB         -0.2710    0.8820    7.2420 hn        1 68H      0.453300
     30 H71C       -1.7550    4.7520    6.4050 hc        1 68H      0.074922
     31 H72C       -0.7250    3.9630    5.1440 hc        1 68H      0.074922
     32 H73C       -2.4050    3.3390    5.4790 hc        1 68H      0.074922
     33 H61C       -2.9250    2.3780    7.8230 hc        1 68H      0.074922
     34 H62C       -1.5630    2.1220    9.0090 hc        1 68H      0.074922
     35 H63C       -2.1050    3.7970    8.5910 hc        1 68H      0.074922
     36 H51C        1.1170    3.6270    6.7530 hc        1 68H      0.074922
     37 H52C        0.8430    2.7790    8.3420 hc        1 68H      0.074922
     38 H53C        0.1530    4.4290    8.0560 hc        1 68H      0.074922
     39 H12        -1.6050    1.0440    6.2630 hn        1 68H      0.453300
@<TRIPOS>BOND
     1    1    2 1   
     2    1   18 1   
     3    2    3 1   
     4    2   19 1   
     5    2   20 1   
     6    3    4 ar  
     7    3    8 ar  
     8    4    5 1   
     9    4    6 ar  
    10    5   22 1   
    11    6    7 ar  
    12    6   23 1   
    13    7    9 ar  
    14    7   24 1   
    15    8    9 ar  
    16    8   21 1   
    17    9   10 1   
    18   10   11 1   
    19   10   12 1   
    20   10   25 1   
    21   11   26 1   
    22   12   13 1   
    23   12   27 1   
    24   12   28 1   
    25   13   14 1   
    26   13   29 1   
    27   13   39 1   
    28   14   15 1   
    29   14   16 1   
    30   14   17 1   
    31   15   30 1   
    32   15   31 1   
    33   15   32 1   
    34   16   33 1   
    35   16   34 1   
    36   16   35 1   
    37   17   36 1   
    38   17   37 1   
    39   17   38 1   
@<TRIPOS>SUBSTRUCTURE
     1 68H         1 TEMP              0 ****  ****    0 ROOT
