@<TRIPOS>MOLECULE
68H
   39    39     1     0     0
SMALL
bcc


@<TRIPOS>ATOM
      1 O2          0.0300    0.1380   -0.0960 oh        1 68H     -0.615800
      2 C2          1.4350   -0.0680   -0.0660 c3        1 68H      0.179700
      3 C12         1.8980   -0.0320    1.3530 ca        1 68H     -0.103300
      4 C11         3.2840    0.0230    1.6250 ca        1 68H      0.162100
      5 O1          4.1210    0.0480    0.5420 oh        1 68H     -0.481100
      6 C10         3.7550    0.0520    2.9480 ca        1 68H     -0.209000
      7 C9          2.8460    0.0310    3.9990 ca        1 68H     -0.074000
      8 C13         1.0070   -0.0620    2.4220 ca        1 68H     -0.051000
      9 C8          1.4720   -0.0260    3.7430 ca        1 68H     -0.219300
     10 C1          0.4850   -0.0560    4.8630 c3        1 68H      0.196400
     11 O3          0.9490   -0.7300    6.0260 oh        1 68H     -0.639800
     12 C3          0.1910    1.4000    5.3040 c3        1 68H      0.095800
     13 N1         -0.6880    1.4490    6.5030 ny        1 68H     -0.761000
     14 C4         -0.9500    2.8500    7.0480 c3        1 68H      0.151200
     15 C7         -1.5290    3.7520    5.9580 c3        1 68H     -0.127433
     16 C6         -1.9640    2.7320    8.1940 c3        1 68H     -0.127433
     17 C5          0.3440    3.4620    7.5900 c3        1 68H     -0.127433
     18 H2         -0.2320    0.0760   -1.0220 ho        1 68H      0.420000
     19 H21C        1.6900   -1.0670   -0.5170 h1        1 68H      0.055200
     20 H22C        1.9560    0.7380   -0.6540 h1        1 68H      0.055200
     21 H13        -0.0740   -0.1160    2.2080 ha        1 68H      0.161000
     22 H1          5.0380    0.0750    0.8590 ho        1 68H      0.437000
     23 H10         4.8360    0.0900    3.1480 ha        1 68H      0.153000
     24 H9          3.2110    0.0530    5.0380 ha        1 68H      0.140000
     25 HA         -0.4720   -0.5550    4.5290 h1        1 68H      0.065700
     26 H3          1.4890   -1.4800    5.7420 ho        1 68H      0.454000
     27 H31C       -0.3110    1.9410    4.4540 hx        1 68H      0.112700
     28 H32C        1.1620    1.9110    5.5550 hx        1 68H      0.112700
     29 HB         -1.5890    1.0200    6.2750 hn        1 68H      0.453800
     30 H71C       -0.7730    3.9660    5.1630 hc        1 68H      0.075033
     31 H72C       -2.4390    3.3020    5.4930 hc        1 68H      0.075033
     32 H73C       -1.8220    4.7250    6.4270 hc        1 68H      0.075033
     33 H61C       -2.1500    3.7540    8.6090 hc        1 68H      0.075033
     34 H62C       -2.9390    2.3220    7.8340 hc        1 68H      0.075033
     35 H63C       -1.5730    2.0890    9.0190 hc        1 68H      0.075033
     36 H51C        1.0760    3.6610    6.7710 hc        1 68H      0.075033
     37 H52C        0.0930    4.4390    8.0740 hc        1 68H      0.075033
     38 H53C        0.8180    2.8040    8.3580 hc        1 68H      0.075033
     39 H12        -0.2450    0.8890    7.2460 hn        1 68H      0.453800
@<TRIPOS>BOND
     1    1    2 1   
     2    1   18 1   
     3    2    3 1   
     4    2   19 1   
     5    2   20 1   
     6    3    4 ar  
     7    3    8 ar  
     8    4    5 1   
     9    4    6 ar  
    10    5   22 1   
    11    6    7 ar  
    12    6   23 1   
    13    7    9 ar  
    14    7   24 1   
    15    8    9 ar  
    16    8   21 1   
    17    9   10 1   
    18   10   11 1   
    19   10   12 1   
    20   10   25 1   
    21   11   26 1   
    22   12   13 1   
    23   12   27 1   
    24   12   28 1   
    25   13   14 1   
    26   13   29 1   
    27   13   39 1   
    28   14   15 1   
    29   14   16 1   
    30   14   17 1   
    31   15   30 1   
    32   15   31 1   
    33   15   32 1   
    34   16   33 1   
    35   16   34 1   
    36   16   35 1   
    37   17   36 1   
    38   17   37 1   
    39   17   38 1   
@<TRIPOS>SUBSTRUCTURE
     1 68H         1 TEMP              0 ****  ****    0 ROOT
