@<TRIPOS>MOLECULE
68H
   39    39     1     0     0
SMALL
bcc


@<TRIPOS>ATOM
      1 O2          0.0310    0.1320   -0.0950 oh        1 68H     -0.615800
      2 C2          1.4370   -0.0700   -0.0650 c3        1 68H      0.179700
      3 C12         1.9000   -0.0320    1.3530 ca        1 68H     -0.103300
      4 C11         3.2860    0.0270    1.6250 ca        1 68H      0.162100
      5 O1          4.1220    0.0530    0.5410 oh        1 68H     -0.481100
      6 C10         3.7560    0.0590    2.9470 ca        1 68H     -0.209000
      7 C9          2.8480    0.0360    3.9990 ca        1 68H     -0.074000
      8 C13         1.0090   -0.0630    2.4230 ca        1 68H     -0.051000
      9 C8          1.4740   -0.0240    3.7430 ca        1 68H     -0.219300
     10 C1          0.4870   -0.0560    4.8640 c3        1 68H      0.196400
     11 O3          0.9530   -0.7280    6.0260 oh        1 68H     -0.639800
     12 C3          0.1900    1.3990    5.3030 c3        1 68H      0.095800
     13 N1         -0.6880    1.4480    6.5030 n4        1 68H     -0.761000
     14 C4         -0.9520    2.8490    7.0480 c3        1 68H      0.151200
     15 C7         -1.5290    3.7510    5.9570 c3        1 68H     -0.127433
     16 C6         -1.9680    2.7290    8.1920 c3        1 68H     -0.127433
     17 C5          0.3410    3.4600    7.5920 c3        1 68H     -0.127433
     18 H2         -0.2310    0.0690   -1.0220 ho        1 68H      0.420000
     19 H21C        1.9550    0.7370   -0.6550 h1        1 68H      0.055200
     20 H22C        1.6940   -1.0690   -0.5150 h1        1 68H      0.055200
     21 H13        -0.0720   -0.1200    2.2090 ha        1 68H      0.161000
     22 H1          5.0390    0.0830    0.8580 ho        1 68H      0.437000
     23 H10         4.8380    0.1000    3.1480 ha        1 68H      0.153000
     24 H9          3.2130    0.0610    5.0380 ha        1 68H      0.140000
     25 HA         -0.4690   -0.5570    4.5290 h1        1 68H      0.065700
     26 H3          1.4950   -1.4770    5.7430 ho        1 68H      0.454000
     27 H31C       -0.3130    1.9390    4.4530 hx        1 68H      0.112700
     28 H32C        1.1600    1.9130    5.5540 hx        1 68H      0.112700
     29 HB         -1.5890    1.0170    6.2750 hn        1 68H      0.453800
     30 H71C       -2.4380    3.3010    5.4900 hc        1 68H      0.075033
     31 H72C       -1.8240    4.7230    6.4260 hc        1 68H      0.075033
     32 H73C       -0.7720    3.9660    5.1650 hc        1 68H      0.075033
     33 H61C       -2.9420    2.3200    7.8300 hc        1 68H      0.075033
     34 H62C       -1.5780    2.0860    9.0180 hc        1 68H      0.075033
     35 H63C       -2.1550    3.7510    8.6070 hc        1 68H      0.075033
     36 H51C        0.0890    4.4380    8.0760 hc        1 68H      0.075033
     37 H52C        1.0750    3.6590    6.7750 hc        1 68H      0.075033
     38 H53C        0.8130    2.8020    8.3620 hc        1 68H      0.075033
     39 H12        -0.2450    0.8880    7.2450 hn        1 68H      0.453800
@<TRIPOS>BOND
     1    1    2 1   
     2    1   18 1   
     3    2    3 1   
     4    2   19 1   
     5    2   20 1   
     6    3    4 ar  
     7    3    8 ar  
     8    4    5 1   
     9    4    6 ar  
    10    5   22 1   
    11    6    7 ar  
    12    6   23 1   
    13    7    9 ar  
    14    7   24 1   
    15    8    9 ar  
    16    8   21 1   
    17    9   10 1   
    18   10   11 1   
    19   10   12 1   
    20   10   25 1   
    21   11   26 1   
    22   12   13 1   
    23   12   27 1   
    24   12   28 1   
    25   13   14 1   
    26   13   29 1   
    27   13   39 1   
    28   14   15 1   
    29   14   16 1   
    30   14   17 1   
    31   15   30 1   
    32   15   31 1   
    33   15   32 1   
    34   16   33 1   
    35   16   34 1   
    36   16   35 1   
    37   17   36 1   
    38   17   37 1   
    39   17   38 1   
@<TRIPOS>SUBSTRUCTURE
     1 68H         1 TEMP              0 ****  ****    0 ROOT
