@<TRIPOS>MOLECULE
68H
   38    36     1     0     0
SMALL
bcc


@<TRIPOS>ATOM
      1 O2          1.1910   -2.6850   -4.9260 oh        1 68H     -0.325000
      2 C2          0.7800   -1.3850   -4.5500 c3        1 68H      0.033000
      3 C12         1.2500   -1.0950   -3.1340 c2        1 68H     -0.141000
      4 C11         2.5980   -0.8960   -2.8830 c2        1 68H      0.083000
      5 O1          3.5060   -1.0100   -3.9100 oh        1 68H     -0.267000
      6 C10         3.0480   -0.7500   -1.5750 c1        1 68H     -0.213000
      7 C9          2.1570   -0.8030   -0.5330 c1        1 68H     -0.058000
      8 C13         0.3550   -1.1490   -2.0890 c1        1 68H     -0.080000
      9 C8          0.8020   -1.0040   -0.7860 c1        1 68H     -0.117000
     10 C1         -0.1820   -1.1510    0.3790 c3        1 68H      0.074000
     11 O3          0.3340   -2.0660    1.3200 oh        1 68H     -0.332000
     12 C3         -0.3840    0.1870    1.0360 c3        1 68H     -0.103000
     13 N1         -1.3540    0.0630    2.0770 n3        1 68H     -0.297000
     14 C4         -1.6840    1.3890    2.6000 c3        1 68H      0.026000
     15 C7         -2.3420    2.2590    1.4560 c3        1 68H     -0.218333
     16 C6         -2.6730    1.2460    3.7730 c3        1 68H     -0.218333
     17 C5         -0.4210    2.0630    3.0850 c3        1 68H     -0.218333
     18 H2          1.3290   -2.7100   -5.7960 ho        1 68H      0.212000
     19 H21C       -0.2220   -1.3250   -4.5910 h1        1 68H      0.090000
     20 H22C        1.1690   -0.7340   -5.1590 h1        1 68H      0.090000
     21 H13        -0.5830   -1.2870   -2.2650 ha        1 68H      0.138000
     22 H1          3.9140   -0.2370   -4.0290 ho        1 68H      0.225000
     23 H10         4.0230   -0.6050   -1.3940 ha        1 68H      0.136000
     24 H9          2.4820   -0.6980    0.4120 ha        1 68H      0.156000
     25 HA         -1.0290   -1.4760    0.0450 h1        1 68H      0.094000
     26 H3         -0.3040   -2.6140    1.5750 ho        1 68H      0.208000
     27 H31C       -0.7030    0.8390    0.3670 h1        1 68H      0.083000
     28 H32C        0.4840    0.5020    1.4220 h1        1 68H      0.083000
     29 HB         -1.0130   -0.4590    2.7560 hn        1 68H      0.151000
     30 H71C       -2.8730    1.6760    0.8660 hc        1 68H      0.078222
     31 H72C       -2.9290    2.9420    1.8580 hc        1 68H      0.078222
     32 H73C       -1.6310    2.7020    0.9280 hc        1 68H      0.078222
     33 H61C       -2.2300    0.7710    4.5190 hc        1 68H      0.078222
     34 H62C       -3.4530    0.7350    3.4800 hc        1 68H      0.078222
     35 H63C       -2.9620    2.1450    4.0770 hc        1 68H      0.078222
     36 H51C       -0.6550    2.7960    3.7040 hc        1 68H      0.078222
     37 H52C        0.1410    1.4010    3.5550 hc        1 68H      0.078222
     38 H53C        0.0640    2.4200    2.3300 hc        1 68H      0.078222
@<TRIPOS>BOND
     1    1    2 1   
     2    1   18 1   
     3    2    3 1   
     4    2   19 1   
     5    2   20 1   
     6    3    4 1   
     7    3    8 1   
     8    4    5 1   
     9    4    6 1   
    10    5   22 1   
    11    6   23 1   
    12    7    9 1   
    13    7   24 1   
    14    8   21 1   
    15    9   10 1   
    16   10   11 1   
    17   10   12 1   
    18   10   25 1   
    19   11   26 1   
    20   12   13 1   
    21   12   27 1   
    22   12   28 1   
    23   13   14 1   
    24   13   29 1   
    25   14   15 1   
    26   14   16 1   
    27   14   17 1   
    28   15   30 1   
    29   15   31 1   
    30   15   32 1   
    31   16   33 1   
    32   16   34 1   
    33   16   35 1   
    34   17   36 1   
    35   17   37 1   
    36   17   38 1   
@<TRIPOS>SUBSTRUCTURE
     1 68H         1 TEMP              0 ****  ****    0 ROOT
