@<TRIPOS>MOLECULE
68H
   38    38     1     0     0
SMALL
bcc


@<TRIPOS>ATOM
      1 O2          2.8400    2.9180    0.4630 oh        1 68H     -0.604800
      2 C2          3.6370    1.7410    0.4560 c3        1 68H      0.185700
      3 C12         2.7740    0.5600    0.1680 ca        1 68H     -0.110300
      4 C11         3.3360   -0.7300    0.2580 ca        1 68H      0.126100
      5 O1          4.6620   -0.8050    0.6200 oh        1 68H     -0.501100
      6 C10         2.5650   -1.8690   -0.0110 ca        1 68H     -0.210000
      7 C9          1.2280   -1.7210   -0.3690 ca        1 68H     -0.085000
      8 C13         1.4340    0.6820   -0.1980 ca        1 68H     -0.057000
      9 C8          0.6540   -0.4500   -0.4650 ca        1 68H     -0.148300
     10 C1         -0.7860   -0.2830   -0.8440 c3        1 68H      0.149400
     11 O3         -1.0970   -0.9000   -2.0840 oh        1 68H     -0.592800
     12 C3         -1.6960   -0.8350    0.2800 c3        1 68H      0.135800
     13 N1         -3.1110   -0.8360    0.0050 n3        1 68H     -0.812200
     14 C4         -3.8870    0.3150    0.4930 c3        1 68H      0.182200
     15 C7         -3.3150    1.6820    0.0840 c3        1 68H     -0.100433
     16 C6         -5.3200    0.2360   -0.0660 c3        1 68H     -0.100433
     17 C5         -3.9930    0.2940    2.0270 c3        1 68H     -0.100433
     18 H2          3.4430    3.6480    0.6410 ho        1 68H      0.405000
     19 H21C        4.4340    1.8240   -0.3340 h1        1 68H      0.041200
     20 H22C        4.1340    1.6100    1.4570 h1        1 68H      0.041200
     21 H13         0.9940    1.6900   -0.2740 ha        1 68H      0.159000
     22 H1          4.9110   -1.7410    0.6480 ho        1 68H      0.422000
     23 H10         3.0140   -2.8690    0.0630 ha        1 68H      0.135000
     24 H9          0.6230   -2.6170   -0.5760 ha        1 68H      0.130000
     25 HA         -1.0200    0.8070   -1.0320 h1        1 68H      0.084700
     26 H3         -0.8820   -1.8370   -2.0060 ho        1 68H      0.399000
     27 H31C       -1.4090   -1.9140    0.4520 h1        1 68H      0.055700
     28 H32C       -1.4700   -0.2650    1.2220 h1        1 68H      0.055700
     29 HB         -3.2660   -0.9460   -0.9820 hn        1 68H      0.371800
     30 H71C       -3.2230    1.7550   -1.0260 hc        1 68H      0.038256
     31 H72C       -3.9940    2.4930    0.4380 hc        1 68H      0.038256
     32 H73C       -2.3090    1.8420    0.5410 hc        1 68H      0.038256
     33 H61C       -5.8040   -0.7260    0.2240 hc        1 68H      0.038256
     34 H62C       -5.9220    1.0790    0.3490 hc        1 68H      0.038256
     35 H63C       -5.3160    0.3180   -1.1790 hc        1 68H      0.038256
     36 H51C       -2.9930    0.4330    2.5020 hc        1 68H      0.038256
     37 H52C       -4.6590    1.1260    2.3570 hc        1 68H      0.038256
     38 H53C       -4.4250   -0.6730    2.3770 hc        1 68H      0.038256
@<TRIPOS>BOND
     1    1    2 1   
     2    1   18 1   
     3    2    3 1   
     4    2   19 1   
     5    2   20 1   
     6    3    4 ar  
     7    3    8 ar  
     8    4    5 1   
     9    4    6 ar  
    10    5   22 1   
    11    6    7 ar  
    12    6   23 1   
    13    7    9 ar  
    14    7   24 1   
    15    8    9 ar  
    16    8   21 1   
    17    9   10 1   
    18   10   11 1   
    19   10   12 1   
    20   10   25 1   
    21   11   26 1   
    22   12   13 1   
    23   12   27 1   
    24   12   28 1   
    25   13   14 1   
    26   13   29 1   
    27   14   15 1   
    28   14   16 1   
    29   14   17 1   
    30   15   30 1   
    31   15   31 1   
    32   15   32 1   
    33   16   33 1   
    34   16   34 1   
    35   16   35 1   
    36   17   36 1   
    37   17   37 1   
    38   17   38 1   
@<TRIPOS>SUBSTRUCTURE
     1 68H         1 TEMP              0 ****  ****    0 ROOT
