@<TRIPOS>MOLECULE
691
   24    25     1     0     0
SMALL
bcc


@<TRIPOS>ATOM
      1 O           0.1330    0.7890    0.2960 o         1 691     -0.586100
      2 C1          1.2560    0.2730    0.1620 c         1 691      0.665100
      3 C           2.2010    0.1360    1.3340 c3        1 691     -0.178100
      4 N           1.7220   -0.2110   -1.0550 n         1 691     -0.468100
      5 C2          1.0460   -0.2030   -2.2800 ca        1 691     -0.056700
      6 C10        -0.2300    0.3030   -2.4800 ca        1 691     -0.123000
      7 C9         -0.8080    0.2510   -3.7790 ca        1 691     -0.118300
      8 C4         -0.0590   -0.3230   -4.8500 ca        1 691      0.366600
      9 N1          1.2130   -0.8260   -4.6460 nb        1 691     -0.637000
     10 C3          1.7250   -0.7670   -3.4380 ca        1 691      0.381200
     11 C8         -2.1100    0.7570   -4.0290 ca        1 691     -0.115000
     12 C7         -2.6490    0.6970   -5.2910 ca        1 691     -0.121000
     13 C6         -1.9110    0.1290   -6.3560 ca        1 691     -0.132000
     14 C5         -0.6490   -0.3700   -6.1520 ca        1 691     -0.157300
     15 H1          2.4420   -0.9380    1.5220 hc        1 691      0.070367
     16 H2          3.1470    0.6980    1.1430 hc        1 691      0.070367
     17 H3          1.7040    0.5600    2.2410 hc        1 691      0.070367
     18 H4          2.6350   -0.6090   -1.0680 hn        1 691      0.317500
     19 H5         -0.8170    0.7480   -1.6590 ha        1 691      0.179000
     20 H6          2.7450   -1.1830   -3.3300 h4        1 691      0.016100
     21 H7         -2.6750    1.1960   -3.1920 ha        1 691      0.140000
     22 H8         -3.6580    1.0880   -5.4880 ha        1 691      0.134000
     23 H9         -2.3660    0.0930   -7.3580 ha        1 691      0.135000
     24 H10        -0.0760   -0.8120   -6.9820 ha        1 691      0.148000
@<TRIPOS>BOND
     1    1    2 2   
     2    2    3 1   
     3    2    4 1   
     4    3   15 1   
     5    3   16 1   
     6    3   17 1   
     7    4    5 1   
     8    4   18 1   
     9    5    6 ar  
    10    5   10 ar  
    11    6    7 ar  
    12    6   19 1   
    13    7    8 ar  
    14    7   11 ar  
    15    8    9 ar  
    16    8   14 ar  
    17    9   10 ar  
    18   10   20 1   
    19   11   12 ar  
    20   11   21 1   
    21   12   13 ar  
    22   12   22 1   
    23   13   14 ar  
    24   13   23 1   
    25   14   24 1   
@<TRIPOS>SUBSTRUCTURE
     1 691         1 TEMP              0 ****  ****    0 ROOT
