@<TRIPOS>MOLECULE
691
   24    25     1     0     0
SMALL
bcc


@<TRIPOS>ATOM
      1 O           0.1290    0.7780    0.2990 o         1 691     -0.586100
      2 C1          1.2530    0.2640    0.1640 c         1 691      0.665100
      3 C           2.1980    0.1240    1.3360 c3        1 691     -0.178100
      4 N           1.7210   -0.2150   -1.0550 ns        1 691     -0.468100
      5 C2          1.0460   -0.2040   -2.2800 ca        1 691     -0.056700
      6 C10        -0.2300    0.3010   -2.4800 ca        1 691     -0.123000
      7 C9         -0.8070    0.2540   -3.7790 ca        1 691     -0.118300
      8 C4         -0.0570   -0.3160   -4.8510 ca        1 691      0.366600
      9 N1          1.2150   -0.8190   -4.6480 nb        1 691     -0.637000
     10 C3          1.7270   -0.7630   -3.4390 ca        1 691      0.381200
     11 C8         -2.1100    0.7590   -4.0280 ca        1 691     -0.115000
     12 C7         -2.6470    0.7020   -5.2910 ca        1 691     -0.121000
     13 C6         -1.9090    0.1390   -6.3580 ca        1 691     -0.132000
     14 C5         -0.6460   -0.3590   -6.1540 ca        1 691     -0.157300
     15 H1          3.1430    0.6880    1.1480 hc        1 691      0.070367
     16 H2          2.4400   -0.9500    1.5200 hc        1 691      0.070367
     17 H3          1.7000    0.5440    2.2440 hc        1 691      0.070367
     18 H4          2.6340   -0.6120   -1.0690 hn        1 691      0.317500
     19 H5         -0.8180    0.7430   -1.6580 ha        1 691      0.179000
     20 H6          2.7470   -1.1790   -3.3320 h4        1 691      0.016100
     21 H7         -2.6750    1.1950   -3.1900 ha        1 691      0.140000
     22 H8         -3.6570    1.0930   -5.4870 ha        1 691      0.134000
     23 H9         -2.3620    0.1060   -7.3600 ha        1 691      0.135000
     24 H10        -0.0710   -0.7970   -6.9860 ha        1 691      0.148000
@<TRIPOS>BOND
     1    1    2 2   
     2    2    3 1   
     3    2    4 1   
     4    3   15 1   
     5    3   16 1   
     6    3   17 1   
     7    4    5 1   
     8    4   18 1   
     9    5    6 ar  
    10    5   10 ar  
    11    6    7 ar  
    12    6   19 1   
    13    7    8 ar  
    14    7   11 ar  
    15    8    9 ar  
    16    8   14 ar  
    17    9   10 ar  
    18   10   20 1   
    19   11   12 ar  
    20   11   21 1   
    21   12   13 ar  
    22   12   22 1   
    23   13   14 ar  
    24   13   23 1   
    25   14   24 1   
@<TRIPOS>SUBSTRUCTURE
     1 691         1 TEMP              0 ****  ****    0 ROOT
