@<TRIPOS>MOLECULE
692
   28    29     1     0     0
SMALL
bcc


@<TRIPOS>ATOM
      1 C14        -0.0930    0.1410    0.3760 c3        1 692      0.078100
      2 N13         1.3720    0.1710    0.1980 n4        1 692     -0.772000
      3 C12         2.1040    0.0100    1.5000 c3        1 692      0.175100
      4 C2          3.5810   -0.0040    1.2940 ca        1 692     -0.174300
      5 C3          4.2910   -1.1910    1.4930 ca        1 692     -0.095000
      6 C4          5.6790   -1.2060    1.3710 ca        1 692     -0.113000
      7 C5          6.3620   -0.0340    1.0460 ca        1 692     -0.082000
      8 C6          5.6600    1.1540    0.8400 ca        1 692     -0.099000
      9 C1          4.2650    1.1820    0.9600 ca        1 692      0.011000
     10 C7          3.5460    2.4210    0.7470 cc        1 692     -0.126100
     11 C11         3.2450    3.3730    1.6980 cd        1 692     -0.106000
     12 C10         2.5510    4.4950    1.1330 cd        1 692     -0.146000
     13 C9          2.3560    4.3480   -0.2170 cc        1 692     -0.120100
     14 S8          3.0200    2.9150   -0.7920 ss        1 692     -0.060800
     15 H14        -0.5920    0.2740   -0.6220 hx        1 692      0.105367
     16 H14A       -0.4030   -0.8420    0.8210 hx        1 692      0.105367
     17 H12         1.7510   -0.9470    1.9790 hx        1 692      0.107700
     18 H12A        1.8120    0.8800    2.1600 hx        1 692      0.107700
     19 H3          3.7590   -2.1170    1.7640 ha        1 692      0.144000
     20 H4          6.2350   -2.1430    1.5360 ha        1 692      0.162000
     21 H5          7.4610   -0.0430    0.9530 ha        1 692      0.163000
     22 H6          6.2040    2.0790    0.5870 ha        1 692      0.164000
     23 H11         3.5020    3.3070    2.7600 ha        1 692      0.176000
     24 H10         2.2330    5.3560    1.7300 ha        1 692      0.181000
     25 H9          1.8650    5.0670   -0.8750 h4        1 692      0.195000
     26 H121       -0.4060    0.9740    1.0630 hx        1 692      0.105367
     27 H13         1.6590   -0.5820   -0.4380 hn        1 692      0.456300
     28 H132        1.6610    1.0750   -0.2300 hn        1 692      0.456300
@<TRIPOS>BOND
     1    1    2 1   
     2    1   15 1   
     3    1   16 1   
     4    1   26 1   
     5    2    3 1   
     6    2   27 1   
     7    2   28 1   
     8    3    4 1   
     9    3   17 1   
    10    3   18 1   
    11    4    5 ar  
    12    4    9 ar  
    13    5    6 ar  
    14    5   19 1   
    15    6    7 ar  
    16    6   20 1   
    17    7    8 ar  
    18    7   21 1   
    19    8    9 ar  
    20    8   22 1   
    21    9   10 1   
    22   10   11 2   
    23   10   14 1   
    24   11   12 1   
    25   11   23 1   
    26   12   13 2   
    27   12   24 1   
    28   13   14 1   
    29   13   25 1   
@<TRIPOS>SUBSTRUCTURE
     1 692         1 TEMP              0 ****  ****    0 ROOT
