@<TRIPOS>MOLECULE
692
   28    29     1     0     0
SMALL
bcc


@<TRIPOS>ATOM
      1 C14        -0.0650    0.1370    0.2350 c3        1 692      0.078100
      2 N13         1.4060    0.1770    0.1140 n4        1 692     -0.772000
      3 C12         2.0890   -0.0090    1.4400 c3        1 692      0.175100
      4 C2          3.5720   -0.0090    1.2900 ca        1 692     -0.174300
      5 C3          4.2810   -1.1980    1.4900 ca        1 692     -0.095000
      6 C4          5.6740   -1.2020    1.4210 ca        1 692     -0.113000
      7 C5          6.3610   -0.0190    1.1490 ca        1 692     -0.082000
      8 C6          5.6600    1.1700    0.9440 ca        1 692     -0.099000
      9 C1          4.2610    1.1870    1.0100 ca        1 692      0.011000
     10 C7          3.5420    2.4270    0.7970 cc        1 692     -0.126100
     11 C11         3.1980    3.3540    1.7580 cd        1 692     -0.106000
     12 C10         2.5190    4.4850    1.1920 cd        1 692     -0.146000
     13 C9          2.3780    4.3680   -0.1680 cc        1 692     -0.120100
     14 S8          3.0730    2.9530   -0.7490 ss        1 692     -0.060800
     15 H14        -0.4080    0.9510    0.9280 hx        1 692      0.105367
     16 H14A       -0.5260    0.2890   -0.7780 hx        1 692      0.105367
     17 H12         1.7230   -0.9790    1.8830 hx        1 692      0.107700
     18 H12A        1.7660    0.8440    2.1070 hx        1 692      0.107700
     19 H3          3.7450   -2.1320    1.7190 ha        1 692      0.144000
     20 H4          6.2290   -2.1390    1.5860 ha        1 692      0.162000
     21 H5          7.4620   -0.0190    1.0990 ha        1 692      0.163000
     22 H6          6.2060    2.1040    0.7330 ha        1 692      0.164000
     23 H11         3.4140    3.2650    2.8270 ha        1 692      0.176000
     24 H10         2.1720    5.3300    1.7950 ha        1 692      0.181000
     25 H9          1.9080    5.0990   -0.8280 h4        1 692      0.195000
     26 H121       -0.3850   -0.8590    0.6460 hx        1 692      0.105367
     27 H13         1.7060    1.0930   -0.2820 hn        1 692      0.456300
     28 H132        1.7220   -0.5590   -0.5270 hn        1 692      0.456300
@<TRIPOS>BOND
     1    1    2 1   
     2    1   15 1   
     3    1   16 1   
     4    1   26 1   
     5    2    3 1   
     6    2   27 1   
     7    2   28 1   
     8    3    4 1   
     9    3   17 1   
    10    3   18 1   
    11    4    5 ar  
    12    4    9 ar  
    13    5    6 ar  
    14    5   19 1   
    15    6    7 ar  
    16    6   20 1   
    17    7    8 ar  
    18    7   21 1   
    19    8    9 ar  
    20    8   22 1   
    21    9   10 1   
    22   10   11 2   
    23   10   14 1   
    24   11   12 1   
    25   11   23 1   
    26   12   13 2   
    27   12   24 1   
    28   13   14 1   
    29   13   25 1   
@<TRIPOS>SUBSTRUCTURE
     1 692         1 TEMP              0 ****  ****    0 ROOT
