@<TRIPOS>MOLECULE
692
   28    29     1     0     0
SMALL
bcc


@<TRIPOS>ATOM
      1 C14        -0.0970    0.1480    0.3910 c3        1 692      0.078100
      2 N13         1.3670    0.1750    0.2040 ny        1 692     -0.772000
      3 C12         2.1070    0.0080    1.5010 c3        1 692      0.175100
      4 C2          3.5820   -0.0060    1.2850 ca        1 692     -0.174300
      5 C3          4.2920   -1.1960    1.4750 ca        1 692     -0.095000
      6 C4          5.6800   -1.2110    1.3430 ca        1 692     -0.113000
      7 C5          6.3620   -0.0380    1.0200 ca        1 692     -0.082000
      8 C6          5.6600    1.1520    0.8240 ca        1 692     -0.099000
      9 C1          4.2660    1.1800    0.9530 ca        1 692      0.011000
     10 C7          3.5460    2.4220    0.7500 cc        1 692     -0.126100
     11 C11         3.2520    3.3680    1.7080 cd        1 692     -0.106000
     12 C10         2.5560    4.4940    1.1530 cd        1 692     -0.146000
     13 C9          2.3530    4.3540   -0.1970 cc        1 692     -0.120100
     14 S8          3.0120    2.9230   -0.7830 ss        1 692     -0.060800
     15 H14        -0.4040    0.9770    1.0840 hx        1 692      0.105367
     16 H14A       -0.6020    0.2860   -0.6040 hx        1 692      0.105367
     17 H12         1.7550   -0.9520    1.9770 hx        1 692      0.107700
     18 H12A        1.8200    0.8750    2.1660 hx        1 692      0.107700
     19 H3          3.7610   -2.1220    1.7440 ha        1 692      0.144000
     20 H4          6.2360   -2.1500    1.5010 ha        1 692      0.162000
     21 H5          7.4600   -0.0480    0.9210 ha        1 692      0.163000
     22 H6          6.2030    2.0780    0.5720 ha        1 692      0.164000
     23 H11         3.5150    3.2960    2.7680 ha        1 692      0.176000
     24 H10         2.2420    5.3520    1.7550 ha        1 692      0.181000
     25 H9          1.8590    5.0760   -0.8490 h4        1 692      0.195000
     26 H121       -0.4050   -0.8380    0.8330 hx        1 692      0.105367
     27 H13         1.6550    1.0820   -0.2220 hn        1 692      0.456300
     28 H132        1.6490   -0.5750   -0.4370 hn        1 692      0.456300
@<TRIPOS>BOND
     1    1    2 1   
     2    1   15 1   
     3    1   16 1   
     4    1   26 1   
     5    2    3 1   
     6    2   27 1   
     7    2   28 1   
     8    3    4 1   
     9    3   17 1   
    10    3   18 1   
    11    4    5 ar  
    12    4    9 ar  
    13    5    6 ar  
    14    5   19 1   
    15    6    7 ar  
    16    6   20 1   
    17    7    8 ar  
    18    7   21 1   
    19    8    9 ar  
    20    8   22 1   
    21    9   10 1   
    22   10   11 2   
    23   10   14 1   
    24   11   12 1   
    25   11   23 1   
    26   12   13 2   
    27   12   24 1   
    28   13   14 1   
    29   13   25 1   
@<TRIPOS>SUBSTRUCTURE
     1 692         1 TEMP              0 ****  ****    0 ROOT
