@<TRIPOS>MOLECULE
692
   27    22     1     0     0
SMALL
bcc


@<TRIPOS>ATOM
      1 C14        -3.0550    2.0150    0.1950 c3        1 692     -0.125000
      2 N13        -1.8230    1.7690   -0.4790 n3        1 692     -0.304000
      3 C12        -1.2030    0.6120    0.0730 c3        1 692     -0.047000
      4 C2          0.2950    0.8210    0.1260 c2        1 692     -0.063000
      5 C3          0.8140    2.1040    0.1900 c2        1 692     -0.116000
      6 C4          2.1840    2.2940    0.2710 c1        1 692     -0.128000
      7 C5          3.0360    1.2000    0.2880 c1        1 692     -0.131000
      8 C6          2.5160   -0.0830    0.2240 c1        1 692     -0.119000
      9 C1          1.1460   -0.2730    0.1430 c1        1 692     -0.012000
     10 C7          0.6290   -1.5550    0.0420 c1        1 692     -0.389500
     11 C11         0.6640   -2.3980   -1.1390 c1        1 692     -0.153000
     12 C10         0.0390   -3.8140   -0.7620 c1        1 692     -0.153000
     13 C9         -0.3540   -3.7810    0.6340 c1        1 692     -0.389500
     14 S8         -0.0050   -2.3770    1.1960 ss        1 692      0.566000
     15 H14        -3.5820    2.6680   -0.3140 h1        1 692      0.069000
     16 H14A       -2.8730    2.3690    1.0920 h1        1 692      0.069000
     17 H12        -1.4050   -0.1650   -0.4870 h1        1 692      0.085500
     18 H12A       -1.5440    0.4600    0.9790 h1        1 692      0.085500
     19 H3          0.2140    2.8740    0.1780 ha        1 692      0.149000
     20 H4          2.5500    3.1980    0.3160 ha        1 692      0.133000
     21 H5          4.0010    1.3340    0.3450 ha        1 692      0.133000
     22 H6          3.1160   -0.8530    0.2360 DU        1 692      0.154000
     23 H11         1.0120   -2.1420   -2.0140 DU        1 692      0.154000
     24 H10        -0.0620   -4.5730   -1.3660 DU        1 692      0.154000
     25 H9         -0.7650   -4.5130    1.1320 DU        1 692      0.154000
     26 H121       -3.5600    1.1760    0.2710 h1        1 692      0.069000
     27 H13        -1.9850    1.6330   -1.3700 hn        1 692      0.156000
@<TRIPOS>BOND
     1    1    2 1   
     2    1   15 1   
     3    1   16 1   
     4    1   26 1   
     5    2    3 1   
     6    2   27 1   
     7    3    4 1   
     8    3   17 1   
     9    3   18 1   
    10    4    5 1   
    11    4    9 1   
    12    5    6 1   
    13    5   19 1   
    14    6   20 1   
    15    7    8 1   
    16    7   21 1   
    17    8    9 1   
    18   10   11 1   
    19   10   14 1   
    20   11   12 1   
    21   12   13 1   
    22   13   14 1   
@<TRIPOS>SUBSTRUCTURE
     1 692         1 TEMP              0 ****  ****    0 ROOT
