@<TRIPOS>MOLECULE
692
   27    28     1     0     0
SMALL
bcc


@<TRIPOS>ATOM
      1 C14         0.4400    3.9220    0.1470 c3        1 692      0.151100
      2 N13        -0.1020    2.6880   -0.3550 n3        1 692     -0.823200
      3 C12        -0.2350    1.6600    0.6630 c3        1 692      0.196100
      4 C2         -1.1260    0.5260    0.2460 ca        1 692     -0.073300
      5 C3         -2.4990    0.7800    0.1270 ca        1 692     -0.132000
      6 C4         -3.3870   -0.2340   -0.2170 ca        1 692     -0.126000
      7 C5         -2.9090   -1.5250   -0.4430 ca        1 692     -0.129000
      8 C6         -1.5490   -1.7890   -0.3280 ca        1 692     -0.115000
      9 C1         -0.6380   -0.7700    0.0080 ca        1 692      0.012000
     10 C7          0.7620   -1.1250    0.1040 cc        1 692     -0.086100
     11 C11         1.2510   -2.2170    0.8080 cd        1 692     -0.150000
     12 C10         2.6640   -2.3470    0.6740 cd        1 692     -0.160000
     13 C9          3.1880   -1.3560   -0.1310 cc        1 692     -0.191100
     14 S8          2.0130   -0.3190   -0.6830 ss        1 692      0.081200
     15 H14         0.5310    4.6440   -0.7070 h1        1 692      0.030033
     16 H14A       -0.1840    4.4000    0.9530 h1        1 692      0.030033
     17 H12         0.8060    1.2800    0.8830 h1        1 692      0.043700
     18 H12A       -0.6460    2.0760    1.6330 h1        1 692      0.043700
     19 H3         -2.8780    1.7960    0.3170 ha        1 692      0.128000
     20 H4         -4.4620   -0.0190   -0.3080 ha        1 692      0.132000
     21 H5         -3.6050   -2.3320   -0.7110 ha        1 692      0.133000
     22 H6         -1.1680   -2.8070   -0.5060 ha        1 692      0.138000
     23 H11         0.6360   -2.8980    1.4000 ha        1 692      0.154000
     24 H10         3.2410   -3.1390    1.1560 ha        1 692      0.152000
     25 H9          4.2410   -1.2450   -0.3840 h4        1 692      0.170000
     26 H121        1.4620    3.7310    0.5680 h1        1 692      0.030033
     27 H13        -0.9790    2.8440   -0.8160 hn        1 692      0.360800
@<TRIPOS>BOND
     1    1    2 1   
     2    1   15 1   
     3    1   16 1   
     4    1   26 1   
     5    2    3 1   
     6    2   27 1   
     7    3    4 1   
     8    3   17 1   
     9    3   18 1   
    10    4    5 ar  
    11    4    9 ar  
    12    5    6 ar  
    13    5   19 1   
    14    6    7 ar  
    15    6   20 1   
    16    7    8 ar  
    17    7   21 1   
    18    8    9 ar  
    19    8   22 1   
    20    9   10 1   
    21   10   11 2   
    22   10   14 1   
    23   11   12 1   
    24   11   23 1   
    25   12   13 2   
    26   12   24 1   
    27   13   14 1   
    28   13   25 1   
@<TRIPOS>SUBSTRUCTURE
     1 692         1 TEMP              0 ****  ****    0 ROOT
