@<TRIPOS>MOLECULE
694
   28    29     1     0     0
SMALL
bcc


@<TRIPOS>ATOM
      1 C1          0.3150   -0.1430    0.0500 ca        1 694     -0.094000
      2 C2          1.6860   -0.1140    0.2820 ca        1 694     -0.188500
      3 C3          2.1600    0.1060    1.5820 ca        1 694      0.081100
      4 C4          1.2700    0.2970    2.6470 ca        1 694     -0.188500
      5 C5         -0.0990    0.2690    2.3970 ca        1 694     -0.094000
      6 C6         -0.5980    0.0510    1.1010 ca        1 694      0.028000
      7 C7         -2.0200    0.0030    0.8680 cc        1 694     -0.150100
      8 C8         -2.7500    0.7040   -0.0870 cd        1 694     -0.046900
      9 C9         -4.1590    0.3710   -0.0340 cd        1 694      0.138100
     10 C10        -4.4210   -0.5600    0.9610 cc        1 694     -0.171700
     11 S1         -3.0220   -0.9790    1.7780 ss        1 694      0.023200
     12 C11        -5.7090   -1.2350    1.3910 c         1 694      0.939200
     13 O1         -6.2020   -0.8960    2.5040 o         1 694     -0.818300
     14 O2         -6.1710   -2.1510    0.6600 o         1 694     -0.818300
     15 O3         -4.9800    0.9980   -0.9210 os        1 694     -0.287900
     16 C12        -6.3810    0.6780   -0.8470 c3        1 694      0.005400
     17 C13        -7.0860    1.5610   -1.9070 c         1 694      0.917600
     18 O4         -7.1330    1.1490   -3.1010 o         1 694     -0.851300
     19 O5         -7.6350    2.6310   -1.5170 o         1 694     -0.851300
     20 Br1        -2.0030    1.9450   -1.2500 br        1 694     -0.104100
     21 O6          3.5110    0.1420    1.8810 oh        1 694     -0.520100
     22 H1         -0.0670   -0.3200   -0.9680 ha        1 694      0.147500
     23 H2          2.3920   -0.2630   -0.5460 ha        1 694      0.122500
     24 H4          1.6590    0.4690    3.6590 ha        1 694      0.122500
     25 H5         -0.8080    0.4240    3.2250 ha        1 694      0.147500
     26 H121       -6.5200   -0.4100   -1.0690 h1        1 694      0.053700
     27 H122       -6.7550    0.9080    0.1820 h1        1 694      0.053700
     28 HO6         3.9900    0.0250    1.0500 ho        1 694      0.402000
@<TRIPOS>BOND
     1    1    2 ar  
     2    1    6 ar  
     3    1   22 1   
     4    2    3 ar  
     5    2   23 1   
     6    3    4 ar  
     7    3   21 1   
     8    4    5 ar  
     9    4   24 1   
    10    5    6 ar  
    11    5   25 1   
    12    6    7 1   
    13    7    8 2   
    14    7   11 1   
    15    8    9 1   
    16    8   20 1   
    17    9   10 2   
    18    9   15 1   
    19   10   11 1   
    20   10   12 1   
    21   12   13 1   
    22   12   14 1   
    23   15   16 1   
    24   16   17 1   
    25   16   26 1   
    26   16   27 1   
    27   17   18 1   
    28   17   19 1   
    29   21   28 1   
@<TRIPOS>SUBSTRUCTURE
     1 694         1 TEMP              0 ****  ****    0 ROOT
