@<TRIPOS>MOLECULE
694
   28    29     1     0     0
SMALL
bcc


@<TRIPOS>ATOM
      1 C1         -3.2170   -0.5300   -1.0270 ca        1 694     -0.094000
      2 C2         -4.6050   -0.6350   -1.0090 ca        1 694     -0.188500
      3 C3         -5.3480    0.2040   -0.1680 ca        1 694      0.081100
      4 C4         -4.7100    1.1440    0.6520 ca        1 694     -0.188500
      5 C5         -3.3220    1.2330    0.6250 ca        1 694     -0.094000
      6 C6         -2.5550    0.4010   -0.2090 ca        1 694      0.028000
      7 C7         -1.1190    0.5260   -0.2400 cc        1 694     -0.150100
      8 C8         -0.1730   -0.4850   -0.1000 cd        1 694     -0.046900
      9 C9          1.1770    0.0250   -0.2140 cd        1 694      0.138100
     10 C10         1.1830    1.3960   -0.4300 cc        1 694     -0.171700
     11 S1         -0.3750    2.0060   -0.4730 ss        1 694      0.023200
     12 C11         2.3210    2.3750   -0.6390 c         1 694      0.939200
     13 O1          2.5680    3.1900    0.2940 o         1 694     -0.818300
     14 O2          2.9040    2.3790   -1.7570 o         1 694     -0.818300
     15 O3          2.1940   -0.8720   -0.0910 os        1 694     -0.287900
     16 C12         3.5330   -0.3540   -0.1870 c3        1 694      0.005400
     17 C13         4.4830   -1.5550    0.0440 c         1 694      0.917600
     18 O4          4.7790   -2.2890   -0.9420 o         1 694     -0.851300
     19 O5          4.9670   -1.7140    1.2010 o         1 694     -0.851300
     20 BR1        -0.6050   -2.2600    0.2390 br        1 694     -0.104100
     21 O6         -6.7290    0.1530   -0.1050 oh        1 694     -0.520100
     22 H1         -2.6260   -1.1820   -1.6880 ha        1 694      0.147500
     23 H2         -5.1140   -1.3690   -1.6480 ha        1 694      0.122500
     24 H4         -5.3080    1.7920    1.3050 ha        1 694      0.122500
     25 H5         -2.8090    1.9640    1.2700 ha        1 694      0.147500
     26 H121        3.6790    0.4310    0.5980 h1        1 694      0.053700
     27 H122        3.6810    0.0910   -1.2040 h1        1 694      0.053700
     28 HO6        -7.0160   -0.5540   -0.6980 ho        1 694      0.402000
@<TRIPOS>BOND
     1    1    2 ar  
     2    1    6 ar  
     3    1   22 1   
     4    2    3 ar  
     5    2   23 1   
     6    3    4 ar  
     7    3   21 1   
     8    4    5 ar  
     9    4   24 1   
    10    5    6 ar  
    11    5   25 1   
    12    6    7 1   
    13    7    8 2   
    14    7   11 1   
    15    8    9 1   
    16    8   20 1   
    17    9   10 2   
    18    9   15 1   
    19   10   11 1   
    20   10   12 1   
    21   12   13 1   
    22   12   14 1   
    23   15   16 1   
    24   16   17 1   
    25   16   26 1   
    26   16   27 1   
    27   17   18 1   
    28   17   19 1   
    29   21   28 1   
@<TRIPOS>SUBSTRUCTURE
     1 694         1 TEMP              0 ****  ****    0 ROOT
