@<TRIPOS>MOLECULE
694
   28    22     1     0     0
SMALL
bcc


@<TRIPOS>ATOM
      1 C1          2.4560   -0.1270   -1.1770 c1        1 694     -0.047500
      2 C2          3.8420   -0.1280   -1.1960 c1        1 694     -0.104500
      3 C3          4.5500    0.4680   -0.1640 c1        1 694      0.064600
      4 C4          3.8710    1.0660    0.8870 c1        1 694     -0.091500
      5 C5          2.4850    1.0670    0.9060 c1        1 694     -0.091500
      6 C6          1.7780    0.4700   -0.1260 c1        1 694      0.028000
      7 C7          0.3910    0.5070   -0.1280 c1        1 694     -0.195400
      8 C8         -0.4880   -0.4470    0.5230 cg        1 694     -0.047000
      9 C9         -1.9880    0.0600    0.3550 cg        1 694     -0.047000
     10 C10        -1.9690    1.3030   -0.3920 c1        1 694     -0.195400
     11 S1         -0.4900    1.6370   -0.7250 ss        1 694      0.112800
     12 C11        -3.1740    2.1420   -0.7560 c1        1 694      0.855000
     13 O1         -3.5530    2.2130   -1.9550 o         1 694     -0.786500
     14 O2         -3.8050    2.7600    0.1410 o         1 694     -0.786500
     15 O3         -3.1330   -0.5760    0.8650 o         1 694     -0.332500
     16 C12        -3.5470   -1.6940    0.1150 c3        1 694      0.095100
     17 C13        -4.8480   -2.2240    0.6760 c         1 694      0.917600
     18 O4         -5.0870   -2.1290    1.9080 o         1 694     -0.851300
     19 O5         -5.7030   -2.7360   -0.0940 o         1 694     -0.851300
     20 BR1         0.0610   -2.0430    1.4210 br        1 694      0.036000
     21 O6          5.9570    0.4910   -0.1970 oh        1 694     -0.503600
     22 H1          1.9580   -0.5480   -1.9030 ha        1 694      0.086500
     23 H2          4.3200   -0.5490   -1.9350 ha        1 694      0.072500
     24 H4          4.3700    1.4860    1.6130 ha        1 694      0.075500
     25 H5          2.0080    1.4870    1.6460 ha        1 694      0.075500
     26 H121       -2.8610   -2.3920    0.1640 h1        1 694      0.053700
     27 H122       -3.6780   -1.4300   -0.8200 h1        1 694      0.053700
     28 HO6         6.2760   -0.1350    0.3480 ho        1 694      0.402000
@<TRIPOS>BOND
     1    1    6 3   
     2    1   22 1   
     3    2    3 3   
     4    2   23 1   
     5    3   21 1   
     6    4    5 3   
     7    4   24 1   
     8    5   25 1   
     9    7    8 3   
    10    7   11 1   
    11    8    9 1   
    12    9   10 3   
    13   10   11 1   
    14   12   13 2   
    15   12   14 2   
    16   15   16 1   
    17   16   17 1   
    18   16   26 1   
    19   16   27 1   
    20   17   18 1   
    21   17   19 1   
    22   21   28 1   
@<TRIPOS>SUBSTRUCTURE
     1 694         1 TEMP              0 ****  ****    0 ROOT
