@<TRIPOS>MOLECULE
694
   28    29     1     0     0
SMALL
bcc


@<TRIPOS>ATOM
      1 C1          0.3160   -0.1630    0.0780 ca        1 694     -0.094000
      2 C2          1.6870   -0.1250    0.3150 ca        1 694     -0.188500
      3 C3          2.1550    0.1490    1.6060 ca        1 694      0.081100
      4 C4          1.2600    0.3850    2.6580 ca        1 694     -0.188500
      5 C5         -0.1070    0.3480    2.4040 ca        1 694     -0.094000
      6 C6         -0.6000    0.0760    1.1150 ca        1 694      0.028000
      7 C7         -2.0220    0.0180    0.8780 cc        1 694     -0.150100
      8 C8         -2.7470    0.6790   -0.1090 cd        1 694     -0.046900
      9 C9         -4.1560    0.3500   -0.0480 cd        1 694      0.138100
     10 C10        -4.4230   -0.5380    0.9840 cc        1 694     -0.171700
     11 S1         -3.0290   -0.9240    1.8240 ss        1 694      0.023200
     12 C11        -5.7140   -1.1940    1.4350 c         1 694      0.939200
     13 O1         -6.2130   -0.8060    2.5290 o         1 694     -0.818300
     14 O2         -6.1730   -2.1410    0.7420 o         1 694     -0.818300
     15 O3         -4.9730    0.9400   -0.9650 os        1 694     -0.287900
     16 C12        -6.3740    0.6230   -0.8850 c3        1 694      0.005400
     17 C13        -7.0730    1.4600   -1.9850 c         1 694      0.917600
     18 O4         -7.1150    0.9970   -3.1600 o         1 694     -0.851300
     19 O5         -7.6240    2.5460   -1.6430 o         1 694     -0.851300
     20 BR1        -1.9940    1.8700   -1.3190 br        1 694     -0.104100
     21 O6          3.5050    0.1970    1.9100 oh        1 694     -0.520100
     22 H1         -0.0600   -0.3830   -0.9330 ha        1 694      0.147500
     23 H2          2.3960   -0.3090   -0.5030 ha        1 694      0.122500
     24 H4          1.6440    0.5990    3.6640 ha        1 694      0.122500
     25 H5         -0.8210    0.5380    3.2210 ha        1 694      0.147500
     26 H121       -6.5120   -0.4740   -1.0610 h1        1 694      0.053700
     27 H122       -6.7540    0.8970    0.1320 h1        1 694      0.053700
     28 HO6         3.9870    0.0450    1.0870 ho        1 694      0.402000
@<TRIPOS>BOND
     1    1    2 ar  
     2    1    6 ar  
     3    1   22 1   
     4    2    3 ar  
     5    2   23 1   
     6    3    4 ar  
     7    3   21 1   
     8    4    5 ar  
     9    4   24 1   
    10    5    6 ar  
    11    5   25 1   
    12    6    7 1   
    13    7    8 2   
    14    7   11 1   
    15    8    9 1   
    16    8   20 1   
    17    9   10 2   
    18    9   15 1   
    19   10   11 1   
    20   10   12 1   
    21   12   13 1   
    22   12   14 1   
    23   15   16 1   
    24   16   17 1   
    25   16   26 1   
    26   16   27 1   
    27   17   18 1   
    28   17   19 1   
    29   21   28 1   
@<TRIPOS>SUBSTRUCTURE
     1 694         1 TEMP              0 ****  ****    0 ROOT
