@<TRIPOS>MOLECULE
695
   39    40     1     0     0
SMALL
bcc


@<TRIPOS>ATOM
      1 C1         -1.3140   -1.7580    0.3870 ca        1 695     -0.046300
      2 N1          3.3000    1.6500    1.4310 n3        1 695     -0.919100
      3 O1          1.4750    2.5440    0.0430 o         1 695     -0.656800
      4 S1          2.5650    1.6410   -0.0060 sy        1 695      1.515200
      5 C2         -1.7900   -3.0480    0.2660 ca        1 695     -0.131000
      6 N2         -3.5080    1.2950   -0.0290 n         1 695     -0.574900
      7 O2          3.5100    1.8230   -1.0380 o         1 695     -0.656800
      8 C3         -0.9440   -4.0990   -0.1540 ca        1 695     -0.099000
      9 O3         -5.5190    0.1960   -0.0700 o         1 695     -0.610100
     10 C4          0.3730   -3.8550   -0.4540 ca        1 695     -0.137000
     11 C5          0.9000   -2.5400   -0.3430 ca        1 695      0.011000
     12 C6          0.0550   -1.4810    0.0830 ca        1 695     -0.067000
     13 C7          0.6110   -0.1790    0.1880 ca        1 695      0.018000
     14 C8          1.9310    0.0790   -0.1120 ca        1 695     -0.382500
     15 C9          2.7560   -0.9900   -0.5510 ca        1 695     -0.046000
     16 C10         2.2580   -2.2620   -0.6610 ca        1 695     -0.134000
     17 C13         4.6780    1.3510    1.6410 c3        1 695      0.211100
     18 C16        -2.2330   -0.6750    0.8350 c3        1 695     -0.074100
     19 C17        -2.7330    0.1380   -0.3700 c3        1 695      0.095000
     20 C19        -4.8810    1.2470    0.1370 c         1 695      0.655100
     21 C20        -5.5720    2.5260    0.5430 c3        1 695     -0.175100
     22 HN1         2.8070    1.8690    2.2630 hn        1 695      0.447800
     23 H2         -2.8440   -3.2730    0.4940 ha        1 695      0.145000
     24 HN2        -3.0180    2.1070    0.2560 hn        1 695      0.311500
     25 H3         -1.3600   -5.1150   -0.2390 ha        1 695      0.139000
     26 H4          1.0400   -4.6660   -0.7850 ha        1 695      0.139000
     27 H7         -0.0410    0.6580    0.5050 ha        1 695      0.154000
     28 H9          3.8030   -0.7700   -0.8210 ha        1 695      0.147000
     29 H10         2.8980   -3.0900   -1.0030 ha        1 695      0.141000
     30 H13         5.2030    1.2480    0.6510 h1        1 695      0.043700
     31 H13A        5.1760    2.1750    2.2210 h1        1 695      0.043700
     32 H13B        4.8000    0.3930    2.2170 h1        1 695      0.043700
     33 H16        -3.1180   -1.1200    1.3650 hc        1 695      0.058700
     34 H16A       -1.7120   -0.0080    1.5720 hc        1 695      0.058700
     35 H17        -3.3640   -0.5400   -1.0150 h1        1 695      0.066700
     36 H17A       -1.8430    0.4790   -0.9720 h1        1 695      0.066700
     37 H20        -5.4060    3.3190   -0.2250 hc        1 695      0.066033
     38 H20A       -6.6690    2.3280    0.6290 hc        1 695      0.066033
     39 H20B       -5.1890    2.8850    1.5280 hc        1 695      0.066033
@<TRIPOS>BOND
     1    1    5 ar  
     2    1   12 ar  
     3    1   18 1   
     4    2    4 1   
     5    2   17 1   
     6    2   22 1   
     7    3    4 2   
     8    4    7 2   
     9    4   14 1   
    10    5    8 ar  
    11    5   23 1   
    12    6   19 1   
    13    6   20 1   
    14    6   24 1   
    15    8   10 ar  
    16    8   25 1   
    17    9   20 2   
    18   10   11 ar  
    19   10   26 1   
    20   11   12 ar  
    21   11   16 ar  
    22   12   13 ar  
    23   13   14 ar  
    24   13   27 1   
    25   14   15 ar  
    26   15   16 ar  
    27   15   28 1   
    28   16   29 1   
    29   17   30 1   
    30   17   31 1   
    31   17   32 1   
    32   18   19 1   
    33   18   33 1   
    34   18   34 1   
    35   19   35 1   
    36   19   36 1   
    37   20   21 1   
    38   21   37 1   
    39   21   38 1   
    40   21   39 1   
@<TRIPOS>SUBSTRUCTURE
     1 695         1 TEMP              0 ****  ****    0 ROOT
