@<TRIPOS>MOLECULE
695
   41    42     1     0     0
SMALL
bcc


@<TRIPOS>ATOM
      1 C1         -0.3340    0.0030   -0.2580 ca        1 695     -0.085300
      2 N1         -4.3720   -2.1530    3.5500 n4        1 695     -0.697900
      3 O1         -5.0680   -0.3540    1.8610 o         1 695     -0.563800
      4 S1         -4.2900   -0.3330    3.0040 sy        1 695      1.477200
      5 C2          1.0300    0.0830   -0.4530 ca        1 695     -0.098000
      6 N2         -2.0210    1.4830   -3.3380 n4        1 695     -0.694800
      7 O2         -4.6760    0.3270    4.1480 o         1 695     -0.563800
      8 C3          1.9340    0.1020    0.6370 ca        1 695     -0.065000
      9 O3         -2.9820    3.5560   -2.8930 o         1 695     -0.387100
     10 C4          1.4620    0.0460    1.9240 ca        1 695     -0.107000
     11 C5          0.0650   -0.0460    2.1680 ca        1 695      0.042000
     12 C6         -0.8530   -0.0850    1.0760 ca        1 695     -0.064000
     13 C7         -2.2260   -0.2150    1.3720 ca        1 695      0.058000
     14 C8         -2.7090   -0.2770    2.6780 ca        1 695     -0.518500
     15 C9         -1.7710   -0.2000    3.7490 ca        1 695     -0.061000
     16 C10        -0.4290   -0.0970    3.5020 ca        1 695     -0.090000
     17 C13        -5.4760   -2.3900    4.4960 c3        1 695      0.069100
     18 C16        -1.2090   -0.0070   -1.4680 c3        1 695     -0.059100
     19 C17        -1.3410    1.4180   -2.0110 c3        1 695      0.099800
     20 C19        -2.3650    2.9270   -3.7330 c         1 695      0.563100
     21 C20        -1.9080    3.3380   -5.0860 c3        1 695     -0.191100
     22 HN1        -3.4960   -2.4390    3.9870 hn        1 695      0.450800
     23 H2          1.4470    0.1260   -1.4730 ha        1 695      0.151000
     24 HN2        -2.8930    0.9430   -3.2950 hn        1 695      0.457800
     25 H3          3.0180    0.1630    0.4340 ha        1 695      0.179000
     26 H4          2.1540    0.0700    2.7840 ha        1 695      0.178000
     27 H7         -2.9610   -0.2630    0.5450 ha        1 695      0.150000
     28 H9         -2.1450   -0.1930    4.7900 ha        1 695      0.168000
     29 H10         0.2930   -0.0410    4.3360 ha        1 695      0.182000
     30 H13        -5.4690   -3.4520    4.8650 hx        1 695      0.115033
     31 H13A       -5.3710   -1.6970    5.3780 hx        1 695      0.115033
     32 H13B       -6.4560   -2.1930    3.9800 hx        1 695      0.115033
     33 H16        -2.2230   -0.4300   -1.2460 hc        1 695      0.076200
     34 H16A       -0.7400   -0.6770   -2.2430 hc        1 695      0.076200
     35 H17        -1.9370    2.0510   -1.2900 hx        1 695      0.118700
     36 H17A       -0.3170    1.8790   -2.1270 hx        1 695      0.118700
     37 H20        -2.3590    2.6880   -5.8800 hc        1 695      0.125367
     38 H20A       -0.7910    3.2980   -5.1640 hc        1 695      0.125367
     39 H20B       -2.2410    4.3990   -5.2650 hc        1 695      0.125367
     40 H12        -4.5100   -2.7540    2.7360 hn        1 695      0.450800
     41 H22        -1.4220    1.0640   -4.0570 hn        1 695      0.457800
@<TRIPOS>BOND
     1    1    5 ar  
     2    1   12 ar  
     3    1   18 1   
     4    2    4 1   
     5    2   17 1   
     6    2   22 1   
     7    2   40 1   
     8    3    4 2   
     9    4    7 2   
    10    4   14 1   
    11    5    8 ar  
    12    5   23 1   
    13    6   19 1   
    14    6   20 1   
    15    6   24 1   
    16    6   41 1   
    17    8   10 ar  
    18    8   25 1   
    19    9   20 2   
    20   10   11 ar  
    21   10   26 1   
    22   11   12 ar  
    23   11   16 ar  
    24   12   13 ar  
    25   13   14 ar  
    26   13   27 1   
    27   14   15 ar  
    28   15   16 ar  
    29   15   28 1   
    30   16   29 1   
    31   17   30 1   
    32   17   31 1   
    33   17   32 1   
    34   18   19 1   
    35   18   33 1   
    36   18   34 1   
    37   19   35 1   
    38   19   36 1   
    39   20   21 1   
    40   21   37 1   
    41   21   38 1   
    42   21   39 1   
@<TRIPOS>SUBSTRUCTURE
     1 695         1 TEMP              0 ****  ****    0 ROOT
