@<TRIPOS>MOLECULE
695
   41    42     1     0     0
SMALL
bcc


@<TRIPOS>ATOM
      1 C1         -0.3430   -0.0150   -0.2650 ca        1 695     -0.085300
      2 N1         -4.3940   -2.1520    3.5400 n4        1 695     -0.698900
      3 O1         -5.0750   -0.3330    1.8660 o         1 695     -0.563800
      4 S1         -4.2930   -0.3280    3.0070 sy        1 695      1.477200
      5 C2          1.0220    0.0510   -0.4630 ca        1 695     -0.098000
      6 N2         -2.0200    1.5050   -3.3310 n4        1 695     -0.694800
      7 O2         -4.6680    0.3280    4.1560 o         1 695     -0.563800
      8 C3          1.9290    0.0520    0.6240 ca        1 695     -0.065000
      9 O3         -2.9530    3.5870   -2.8700 o         1 695     -0.387100
     10 C4          1.4600   -0.0070    1.9120 ca        1 695     -0.107000
     11 C5          0.0620   -0.0860    2.1590 ca        1 695      0.042000
     12 C6         -0.8590   -0.1060    1.0700 ca        1 695     -0.064000
     13 C7         -2.2330   -0.2230    1.3690 ca        1 695      0.058000
     14 C8         -2.7130   -0.2880    2.6760 ca        1 695     -0.518500
     15 C9         -1.7700   -0.2290    3.7450 ca        1 695     -0.061000
     16 C10        -0.4280   -0.1390    3.4940 ca        1 695     -0.090000
     17 C13        -5.4960   -2.3820    4.4900 c3        1 695      0.069100
     18 C16        -1.2220   -0.0060   -1.4720 c3        1 695     -0.059100
     19 C17        -1.3370    1.4230   -2.0070 c3        1 695      0.099800
     20 C19        -2.3470    2.9550   -3.7160 c         1 695      0.563100
     21 C20        -1.8900    3.3690   -5.0690 c3        1 695     -0.191100
     22 HN1        -3.5190   -2.4510    3.9700 hn        1 695      0.450800
     23 H2          1.4360    0.0960   -1.4850 ha        1 695      0.151000
     24 HN2        -2.8990    0.9760   -3.2880 hn        1 695      0.457800
     25 H3          3.0130    0.1010    0.4180 ha        1 695      0.179000
     26 H4          2.1550    0.0020    2.7700 ha        1 695      0.178000
     27 H7         -2.9700   -0.2560    0.5440 ha        1 695      0.150000
     28 H9         -2.1420   -0.2250    4.7870 ha        1 695      0.168000
     29 H10         0.2970   -0.0970    4.3270 ha        1 695      0.182000
     30 H13        -5.3780   -1.6970    5.3760 hx        1 695      0.115033
     31 H13A       -6.4760   -2.1710    3.9810 hx        1 695      0.115033
     32 H13B       -5.5000   -3.4460    4.8520 hx        1 695      0.115033
     33 H16        -2.2400   -0.4180   -1.2500 hc        1 695      0.076200
     34 H16A       -0.7640   -0.6770   -2.2520 hc        1 695      0.076200
     35 H17        -1.9230    2.0590   -1.2790 hx        1 695      0.118700
     36 H17A       -0.3080    1.8720   -2.1230 hx        1 695      0.118700
     37 H20        -2.2100    4.4340   -5.2400 hc        1 695      0.125367
     38 H20A       -0.7740    3.3160   -5.1500 hc        1 695      0.125367
     39 H20B       -2.3500    2.7280   -5.8650 hc        1 695      0.125367
     40 H12        -4.5430   -2.7440    2.7230 hn        1 695      0.450800
     41 H22        -1.4290    1.0830   -4.0540 hn        1 695      0.457800
@<TRIPOS>BOND
     1    1    5 ar  
     2    1   12 ar  
     3    1   18 1   
     4    2    4 1   
     5    2   17 1   
     6    2   22 1   
     7    2   40 1   
     8    3    4 2   
     9    4    7 2   
    10    4   14 1   
    11    5    8 ar  
    12    5   23 1   
    13    6   19 1   
    14    6   20 1   
    15    6   24 1   
    16    6   41 1   
    17    8   10 ar  
    18    8   25 1   
    19    9   20 2   
    20   10   11 ar  
    21   10   26 1   
    22   11   12 ar  
    23   11   16 ar  
    24   12   13 ar  
    25   13   14 ar  
    26   13   27 1   
    27   14   15 ar  
    28   15   16 ar  
    29   15   28 1   
    30   16   29 1   
    31   17   30 1   
    32   17   31 1   
    33   17   32 1   
    34   18   19 1   
    35   18   33 1   
    36   18   34 1   
    37   19   35 1   
    38   19   36 1   
    39   20   21 1   
    40   21   37 1   
    41   21   38 1   
    42   21   39 1   
@<TRIPOS>SUBSTRUCTURE
     1 695         1 TEMP              0 ****  ****    0 ROOT
