@<TRIPOS>MOLECULE
695
   41    42     1     0     0
SMALL
bcc


@<TRIPOS>ATOM
      1 C1         -0.3260    0.0070   -0.2380 ca        1 695     -0.085300
      2 N1         -4.4060   -2.1600    3.5180 ny        1 695     -0.697900
      3 O1         -5.0860   -0.3610    1.8220 o         1 695     -0.563800
      4 S1         -4.3210   -0.3390    2.9750 sy        1 695      1.477200
      5 C2          1.0400    0.0890   -0.4170 ca        1 695     -0.098000
      6 N2         -1.9770    1.4850   -3.3400 ny        1 695     -0.694800
      7 O2         -4.7230    0.3200    4.1140 o         1 695     -0.563800
      8 C3          1.9300    0.1100    0.6840 ca        1 695     -0.065000
      9 O3         -2.9460    3.5560   -2.9070 o         1 695     -0.387100
     10 C4          1.4420    0.0520    1.9660 ca        1 695     -0.107000
     11 C5          0.0430   -0.0430    2.1920 ca        1 695      0.042000
     12 C6         -0.8610   -0.0830    1.0880 ca        1 695     -0.064000
     13 C7         -2.2380   -0.2160    1.3680 ca        1 695      0.058000
     14 C8         -2.7370   -0.2800    2.6670 ca        1 695     -0.518500
     15 C9         -1.8120   -0.2010    3.7510 ca        1 695     -0.061000
     16 C10        -0.4680   -0.0950    3.5190 ca        1 695     -0.090000
     17 C13        -5.5200   -2.3990    4.4520 c3        1 695      0.069100
     18 C16        -1.1870   -0.0040   -1.4590 c3        1 695     -0.059100
     19 C17        -1.3130    1.4210   -2.0040 c3        1 695      0.099800
     20 C19        -2.3180    2.9280   -3.7380 c         1 695      0.563100
     21 C20        -1.8430    3.3410   -5.0860 c3        1 695     -0.191100
     22 HN1        -3.5350   -2.4450    3.9650 hn        1 695      0.450800
     23 H2          1.4690    0.1330   -1.4320 ha        1 695      0.151000
     24 HN2        -2.8490    0.9440   -3.3060 hn        1 695      0.457800
     25 H3          3.0170    0.1720    0.4940 ha        1 695      0.179000
     26 H4          2.1240    0.0770    2.8340 ha        1 695      0.178000
     27 H7         -2.9620   -0.2650    0.5320 ha        1 695      0.150000
     28 H9         -2.1990   -0.1950    4.7860 ha        1 695      0.168000
     29 H10         0.2450   -0.0380    4.3630 ha        1 695      0.182000
     30 H13        -5.5160   -3.4610    4.8210 hx        1 695      0.115033
     31 H13A       -5.4260   -1.7070    5.3350 hx        1 695      0.115033
     32 H13B       -6.4950   -2.2040    3.9260 hx        1 695      0.115033
     33 H16        -2.2030   -0.4280   -1.2500 hc        1 695      0.076200
     34 H16A       -0.7080   -0.6740   -2.2280 hc        1 695      0.076200
     35 H17        -1.9190    2.0520   -1.2900 hx        1 695      0.118700
     36 H17A       -0.2890    1.8830   -2.1070 hx        1 695      0.118700
     37 H20        -2.2830    2.6910   -5.8860 hc        1 695      0.125367
     38 H20A       -0.7250    3.3000   -5.1480 hc        1 695      0.125367
     39 H20B       -2.1730    4.4010   -5.2680 hc        1 695      0.125367
     40 H12        -4.5340   -2.7600    2.7030 hn        1 695      0.450800
     41 H22        -1.3690    1.0660   -4.0510 hn        1 695      0.457800
@<TRIPOS>BOND
     1    1    5 ar  
     2    1   12 ar  
     3    1   18 1   
     4    2    4 1   
     5    2   17 1   
     6    2   22 1   
     7    2   40 1   
     8    3    4 2   
     9    4    7 2   
    10    4   14 1   
    11    5    8 ar  
    12    5   23 1   
    13    6   19 1   
    14    6   20 1   
    15    6   24 1   
    16    6   41 1   
    17    8   10 ar  
    18    8   25 1   
    19    9   20 2   
    20   10   11 ar  
    21   10   26 1   
    22   11   12 ar  
    23   11   16 ar  
    24   12   13 ar  
    25   13   14 ar  
    26   13   27 1   
    27   14   15 ar  
    28   15   16 ar  
    29   15   28 1   
    30   16   29 1   
    31   17   30 1   
    32   17   31 1   
    33   17   32 1   
    34   18   19 1   
    35   18   33 1   
    36   18   34 1   
    37   19   35 1   
    38   19   36 1   
    39   20   21 1   
    40   21   37 1   
    41   21   38 1   
    42   21   39 1   
@<TRIPOS>SUBSTRUCTURE
     1 695         1 TEMP              0 ****  ****    0 ROOT
