@<TRIPOS>MOLECULE
695
   39    34     1     0     0
SMALL
bcc


@<TRIPOS>ATOM
      1 C1          1.6630    0.3160   -0.1900 c1        1 695     -0.013100
      2 N1         -3.8310    0.8100    2.4540 n3        1 695     -0.903900
      3 O1         -2.4180    2.9250    2.1350 o         1 695     -0.543900
      4 S1         -2.4500    1.6070    2.7890 s4        1 695      1.714700
      5 C2          3.0790    0.2390   -0.2230 c1        1 695     -0.082500
      6 N2          1.1610   -1.2400   -3.5520 n         1 695     -0.574900
      7 O2         -2.3920    1.9730    4.1390 o         1 695     -0.543900
      8 C3          3.8020    0.2340    0.9710 c1        1 695     -0.062000
      9 O3         -0.5890   -2.8060   -3.3770 o         1 695     -0.633100
     10 C4          3.1370    0.3060    2.1900 c1        1 695     -0.062000
     11 C5          1.7070    0.3840    2.2250 cg        1 695     -0.028000
     12 C6          0.9860    0.3900    1.0600 cg        1 695     -0.028000
     13 C7         -0.4180    0.5180    1.1040 c1        1 695     -0.006000
     14 C8         -1.0650    0.6380    2.3360 c1        1 695     -0.815000
     15 C9         -0.3260    0.6320    3.5090 c1        1 695      0.010500
     16 C10         1.0530    0.5060    3.4600 c1        1 695     -0.006000
     17 C13        -4.9040    1.4890    1.8030 c3        1 695      0.204100
     18 C16         1.5720   -0.8490   -1.1760 c3        1 695     -0.106300
     19 C17         0.8410   -0.3720   -2.4890 c3        1 695      0.098000
     20 C19         0.1260   -2.0980   -4.1280 c         1 695      0.663100
     21 C20         0.0510   -2.2720   -5.5860 c3        1 695     -0.175100
     22 HN1        -3.9170   -0.0840    2.6820 hn        1 695      0.447800
     23 H2          3.5540    0.1860   -1.0880 ha        1 695      0.075500
     24 HN2         1.9590   -1.1960   -3.9330 hn        1 695      0.310500
     25 H3          4.8010    0.1790    0.9500 ha        1 695      0.079000
     26 H4          3.6540    0.3030    3.0390 ha        1 695      0.079000
     27 H7         -0.9170    0.6350    0.2850 ha        1 695      0.095500
     28 H9         -0.7730    0.6990    4.3640 ha        1 695      0.106500
     29 H10         1.5710    0.5030    4.2870 ha        1 695      0.095500
     30 H13        -5.0180    2.3820    2.2030 h1        1 695      0.050367
     31 H13A       -5.7340    0.9740    1.9130 h1        1 695      0.050367
     32 H13B       -4.6950    1.5820    0.8240 h1        1 695      0.050367
     33 H16         2.5150   -1.1720   -1.4060 hc        1 695      0.062200
     34 H16A        1.0660   -1.5830   -0.7700 hc        1 695      0.062200
     35 H17         1.1380    0.5620   -2.7180 h1        1 695      0.061700
     36 H17A       -0.0990   -0.3790   -2.3470 h1        1 695      0.061700
     37 H20         0.0000   -1.3810   -6.0240 hc        1 695      0.067367
     38 H20A       -0.7460   -2.7900   -5.8120 hc        1 695      0.067367
     39 H20B        0.8580   -2.7510   -5.9020 hc        1 695      0.067367
@<TRIPOS>BOND
     1    1    5 3   
     2    1   18 1   
     3    2    4 1   
     4    2   17 1   
     5    2   22 1   
     6    3    4 1   
     7    4    7 1   
     8    5   23 1   
     9    6   19 1   
    10    6   20 1   
    11    6   24 1   
    12    8   10 3   
    13    8   25 1   
    14    9   20 2   
    15   10   26 1   
    16   11   12 1   
    17   11   16 3   
    18   12   13 3   
    19   13   27 1   
    20   14   15 3   
    21   15   28 1   
    22   16   29 1   
    23   17   30 1   
    24   17   31 1   
    25   17   32 1   
    26   18   19 1   
    27   18   33 1   
    28   18   34 1   
    29   19   35 1   
    30   19   36 1   
    31   20   21 1   
    32   21   37 1   
    33   21   38 1   
    34   21   39 1   
@<TRIPOS>SUBSTRUCTURE
     1 695         1 TEMP              0 ****  ****    0 ROOT
