@<TRIPOS>MOLECULE
696
   42    30     1     0     0
SMALL
bcc


@<TRIPOS>ATOM
      1 C1         -0.1720    0.3020   -4.8390 c1        1 696     -0.222000
      2 C2          1.2120    0.4020   -4.8230 c1        1 696     -0.133500
      3 C3          1.8940    0.4070   -3.6150 c1        1 696     -0.133500
      4 C4          1.1830    0.3090   -2.4060 c1        1 696      0.006000
      5 C5         -0.1850    0.2100   -2.4210 c1        1 696      0.006000
      6 C6         -0.8750    0.2060   -3.6460 c1        1 696     -0.086000
      7 C7         -0.8720   -0.0260   -6.1410 c2        1 696      0.352000
      8 N1         -1.0160   -1.3780   -6.5490 n3        1 696     -0.350000
      9 N2         -1.3440    0.9380   -6.8900 n2        1 696     -0.352000
     10 N3          1.5980    0.2900   -1.0860 n1        1 696     -0.181000
     11 CN4        -0.6190    0.1290   -1.1160 c1        1 696     -0.322000
     12 C8          0.4890    0.1800   -0.2940 c2        1 696      0.190000
     13 C1'         0.3820   -0.4920    0.9160 c1        1 696     -0.314000
     14 C2'         0.3490   -1.8780    0.9380 c1        1 696     -0.133500
     15 C3'         0.1840   -2.5480    2.1410 c1        1 696     -0.133500
     16 C4'         0.0520   -1.8320    3.3210 c1        1 696     -0.088000
     17 C5'         0.0850   -0.4470    3.2990 c1        1 696     -0.088000
     18 C6'         0.2500    0.2240    2.0960 c1        1 696      0.316000
     19 O6'         0.3350    1.6260    2.0800 o         1 696     -0.482000
     20 C1B        -0.0350    0.2690    4.4820 c1        1 696     -0.088000
     21 C2B         1.0990    0.6020    5.2070 c1        1 696     -0.133500
     22 C3B         0.9750    1.2500    6.4270 c1        1 696     -0.133500
     23 C4B        -0.2810    1.5640    6.9210 c1        1 696     -0.133500
     24 C5B        -1.4140    1.2310    6.1960 c1        1 696     -0.133500
     25 C6B        -1.2910    0.5840    4.9760 c1        1 696     -0.088000
     26 H2          1.7060    0.4700   -5.6630 ha        1 696      0.124125
     27 H3          2.8680    0.4770   -3.6040 ha        1 696      0.124125
     28 H6         -1.8480    0.1350   -3.6580 ha        1 696      0.125000
     29 HH11       -0.6360   -2.0470   -6.0550 hn        1 696      0.261000
     30 HH12       -1.5100   -1.5810   -7.2910 hn        1 696      0.261000
     31 HH21       -1.2520    1.8110   -6.6270 DU        1 696      0.245333
     32 HH22       -1.7680    0.7400   -7.6780 hn        1 696      0.245000
     33 HN3         2.4610    0.3420   -0.7950 DU        1 696      0.245333
     34 HN4        -1.5470    0.0510   -0.8240 DU        1 696      0.245333
     35 H2'         0.4420   -2.3820    0.1080 ha        1 696      0.124125
     36 H3'         0.1610   -3.5240    2.1570 ha        1 696      0.124125
     37 H4'        -0.0640   -2.3040    4.1680 ha        1 696      0.119500
     38 H2B         1.9830    0.3810    4.8600 ha        1 696      0.124125
     39 H3B         1.7740    1.4840    6.9380 ha        1 696      0.124125
     40 H4B        -0.3670    2.0200    7.7800 ha        1 696      0.124125
     41 H5B        -2.2990    1.4530    6.5440 ha        1 696      0.124125
     42 H6B        -2.0890    0.3500    4.4650 ha        1 696      0.119500
@<TRIPOS>BOND
     1    1    6 1   
     2    1    7 1   
     3    2    3 1   
     4    2   26 1   
     5    3   27 1   
     6    4    5 1   
     7    6   28 1   
     8    7    8 1   
     9    7    9 1   
    10    8   29 1   
    11    8   30 1   
    12    9   32 1   
    13   10   12 1   
    14   11   12 1   
    15   12   13 1   
    16   13   18 1   
    17   14   15 1   
    18   14   35 1   
    19   15   36 1   
    20   16   17 1   
    21   16   37 1   
    22   18   19 1   
    23   20   25 1   
    24   21   22 1   
    25   21   38 1   
    26   22   39 1   
    27   23   24 1   
    28   23   40 1   
    29   24   41 1   
    30   25   42 1   
@<TRIPOS>SUBSTRUCTURE
     1 696         1 TEMP              0 ****  ****    0 ROOT
