@<TRIPOS>MOLECULE
696
   42    45     1     0     0
SMALL
bcc


@<TRIPOS>ATOM
      1 C1         -5.0370    0.3460   -0.0300 ca        1 696     -0.305900
      2 C2         -4.5050    1.6550    0.0500 ca        1 696     -0.107000
      3 C3         -3.1400    1.8790    0.0530 ca        1 696     -0.147000
      4 C4         -2.2790    0.7730   -0.0140 ca        1 696      0.052000
      5 C5         -2.8190   -0.5950   -0.0950 ca        1 696     -0.040000
      6 C6         -4.1870   -0.7790   -0.1050 ca        1 696     -0.086000
      7 C7         -6.4850    0.1530   -0.0390 ce        1 696      0.529400
      8 N1         -7.0230   -0.8530   -0.7830 nh        1 696     -0.505100
      9 N2         -7.2790    0.9820    0.6950 nh        1 696     -0.489200
     10 N3         -0.9090    0.6870   -0.0190 na        1 696     -0.203600
     11 CN4        -1.6940   -1.4700   -0.1440 cc        1 696     -0.322000
     12 C8         -0.5180   -0.6730   -0.0980 cc        1 696      0.162900
     13 C1'         0.8420   -1.0920   -0.1200 cd        1 696     -0.333200
     14 C2'         1.1160   -2.4770   -0.1960 cd        1 696     -0.012000
     15 C3'         2.3990   -2.9610   -0.2090 cc        1 696     -0.269000
     16 C4'         3.4850   -2.0590   -0.1350 cc        1 696     -0.036000
     17 C5'         3.2920   -0.7010   -0.0610 cd        1 696     -0.194400
     18 C6'         1.9390   -0.1410   -0.0690 c         1 696      0.593500
     19 O6'         1.7490    1.1080   -0.0320 o         1 696     -0.721100
     20 C1B         4.4470    0.1890    0.0300 ca        1 696     -0.000800
     21 C2B         5.5620   -0.1830    0.8000 ca        1 696     -0.122000
     22 C3B         6.6830    0.6410    0.8710 ca        1 696     -0.140000
     23 C4B         6.7100    1.8500    0.1780 ca        1 696     -0.149000
     24 C5B         5.6050    2.2330   -0.5810 ca        1 696     -0.140000
     25 C6B         4.4820    1.4130   -0.6550 ca        1 696     -0.122000
     26 H2         -5.1750    2.5270    0.0700 ha        1 696      0.117000
     27 H3         -2.7390    2.9020    0.1010 ha        1 696      0.149000
     28 H6         -4.5890   -1.8020   -0.1300 ha        1 696      0.125000
     29 HH11       -7.9880   -1.0790   -0.7690 hn        1 696      0.310200
     30 HH12       -6.4060   -1.4210   -1.3210 hn        1 696      0.310200
     31 HH21       -6.8420    1.6870    1.2470 hn        1 696      0.310200
     32 HH22       -8.2690    0.9390    0.6770 hn        1 696      0.310200
     33 HN3        -0.2490    1.4370    0.0270 hn        1 696      0.353700
     34 HN4        -1.7300   -2.5510   -0.2040 ha        1 696      0.157000
     35 H2'         0.2720   -3.1830   -0.2460 ha        1 696      0.104000
     36 H3'         2.5980   -4.0370   -0.2750 ha        1 696      0.116000
     37 H4'         4.5070   -2.4720   -0.1450 ha        1 696      0.114000
     38 H2B         5.5450   -1.1300    1.3590 ha        1 696      0.139500
     39 H3B         7.5480    0.3360    1.4780 ha        1 696      0.118000
     40 H4B         7.5950    2.4990    0.2340 ha        1 696      0.117000
     41 H5B         5.6170    3.1900   -1.1230 ha        1 696      0.118000
     42 H6B         3.6000    1.7280   -1.2360 ha        1 696      0.139500
@<TRIPOS>BOND
     1    1    2 ar  
     2    1    6 ar  
     3    1    7 1   
     4    2    3 ar  
     5    2   26 1   
     6    3    4 ar  
     7    3   27 1   
     8    4    5 ar  
     9    4   10 2   
    10    5    6 ar  
    11    5   11 2   
    12    6   28 1   
    13    7    8 2   
    14    7    9 1   
    15    8   29 1   
    16    8   30 1   
    17    9   31 1   
    18    9   32 1   
    19   10   12 1   
    20   10   33 1   
    21   11   12 1   
    22   11   34 1   
    23   12   13 2   
    24   13   14 1   
    25   13   18 1   
    26   14   15 2   
    27   14   35 1   
    28   15   16 1   
    29   15   36 1   
    30   16   17 2   
    31   16   37 1   
    32   17   18 1   
    33   17   20 1   
    34   18   19 2   
    35   20   21 ar  
    36   20   25 ar  
    37   21   22 ar  
    38   21   38 1   
    39   22   23 ar  
    40   22   39 1   
    41   23   24 ar  
    42   23   40 1   
    43   24   25 ar  
    44   24   41 1   
    45   25   42 1   
@<TRIPOS>SUBSTRUCTURE
     1 696         1 TEMP              0 ****  ****    0 ROOT
