@<TRIPOS>MOLECULE
697
   28    21     1     0     0
SMALL
bcc


@<TRIPOS>ATOM
      1 C1         -2.1620    0.0820   -3.9730 c1        1 697      0.107600
      2 C2         -1.0970   -0.7820   -3.7770 c1        1 697     -0.083500
      3 C3         -0.3950   -0.7560   -2.5820 c1        1 697     -0.083500
      4 C4         -0.7590    0.1340   -1.5830 c1        1 697     -0.079000
      5 C5         -1.8240    0.9980   -1.7800 c1        1 697     -0.000500
      6 C6         -2.5260    0.9720   -2.9750 c1        1 697     -0.104000
      7 O11        -2.8710    0.0600   -5.1880 oh        1 697     -0.476100
      8 C12        -0.0590    0.1580   -0.3880 c1        1 697      0.324900
      9 C13         1.1010    0.7960    0.0080 cg        1 697     -0.194000
     10 C14         1.3640    0.4310    1.3190 cg        1 697     -0.056000
     11 C15         0.3720   -0.4260    1.7270 c1        1 697      0.020000
     12 O16        -0.5110   -0.5960    0.6680 o         1 697     -0.357900
     13 C17         2.4020    0.7740    2.2020 c1        1 697     -0.036500
     14 C18         2.4250    0.2460    3.4850 c1        1 697      0.107600
     15 C19         1.4210   -0.6210    3.8970 c1        1 697     -0.104000
     16 C20         0.3960   -0.9600    3.0260 cg        1 697      0.032000
     17 O23         3.5250    0.3520    4.3550 oh        1 697     -0.476100
     18 C7         -0.6420   -1.9570    3.4940 cg        1 697      0.237800
     19 N27        -1.4230   -2.7090    3.8470 n1        1 697     -0.351800
     20 H2         -0.8410   -1.4090   -4.4800 ha        1 697      0.081000
     21 H3          0.3550   -1.3650   -2.4430 ha        1 697      0.081000
     22 H5         -2.0800    1.6250   -1.0770 ha        1 697      0.099500
     23 H6         -3.2760    1.5810   -3.1140 ha        1 697      0.096500
     24 H11        -2.4470    0.5600   -5.7880 ho        1 697      0.423000
     25 H13         1.6290    1.4140   -0.5320 DU        1 697      0.169000
     26 H17         3.1080    1.3830    1.9120 ha        1 697      0.106500
     27 H19         1.4380   -0.9930    4.8000 ha        1 697      0.096500
     28 H23         3.3790    1.0060    4.9400 ho        1 697      0.423000
@<TRIPOS>BOND
     1    1    6 3   
     2    1    7 1   
     3    2    3 3   
     4    2   20 1   
     5    3   21 1   
     6    4    5 3   
     7    5   22 1   
     8    6   23 1   
     9    7   24 1   
    10    8    9 3   
    11    8   12 1   
    12    9   10 1   
    13   10   13 3   
    14   11   16 3   
    15   13   26 1   
    16   14   15 3   
    17   14   17 1   
    18   15   27 1   
    19   16   18 1   
    20   17   28 1   
    21   18   19 3   
@<TRIPOS>SUBSTRUCTURE
     1 697         1 TEMP              0 ****  ****    0 ROOT
