@<TRIPOS>MOLECULE
697
   28    30     1     0     0
SMALL
bcc


@<TRIPOS>ATOM
      1 C1          0.1560    0.0640    4.7690 ca        1 697      0.144100
      2 C2         -1.1470    0.1180    4.2500 ca        1 697     -0.190500
      3 C3         -1.3320    0.1190    2.8720 ca        1 697     -0.060500
      4 C4         -0.2300    0.0670    2.0050 ca        1 697     -0.089800
      5 C5          1.0690    0.0120    2.5400 ca        1 697     -0.060500
      6 C6          1.2700    0.0100    3.9130 ca        1 697     -0.190500
      7 O11         0.4180    0.0590    6.1170 oh        1 697     -0.491100
      8 C12        -0.4430    0.0690    0.5790 cc        1 697      0.125900
      9 C13        -1.5830    0.1150   -0.1990 cd        1 697     -0.185200
     10 C14        -1.1540    0.0890   -1.5820 ca        1 697     -0.062800
     11 C15         0.2740    0.0270   -1.5440 ca        1 697      0.061100
     12 O16         0.7240    0.0140   -0.2240 os        1 697     -0.190200
     13 C17        -1.8080    0.1120   -2.8090 ca        1 697     -0.155000
     14 C18        -1.0190    0.0710   -3.9660 ca        1 697      0.106100
     15 C19         0.3900    0.0100   -3.9250 ca        1 697     -0.103000
     16 C20         1.0600   -0.0130   -2.6970 ca        1 697      0.026000
     17 O23        -1.5680    0.0890   -5.2300 oh        1 697     -0.494100
     18 C7          2.4760   -0.0750   -2.6430 cg        1 697      0.241800
     19 N27         3.6370   -0.1250   -2.5970 n1        1 697     -0.350800
     20 H2         -2.0120    0.1600    4.9260 ha        1 697      0.148500
     21 H3         -2.3520    0.1620    2.4600 ha        1 697      0.148000
     22 H5          1.9350   -0.0290    1.8570 ha        1 697      0.148000
     23 H6          2.2820   -0.0320    4.3410 ha        1 697      0.148500
     24 H11        -0.4270    0.0980    6.5880 ho        1 697      0.423000
     25 H13        -2.6140    0.1610    0.1400 ha        1 697      0.167000
     26 H17        -2.9040    0.1590   -2.8680 ha        1 697      0.147000
     27 H19         0.9510   -0.0190   -4.8720 ha        1 697      0.167000
     28 H23        -2.5310    0.1310   -5.1370 ho        1 697      0.422000
@<TRIPOS>BOND
     1    1    2 ar  
     2    1    6 ar  
     3    1    7 1   
     4    2    3 ar  
     5    2   20 1   
     6    3    4 ar  
     7    3   21 1   
     8    4    5 ar  
     9    4    8 1   
    10    5    6 ar  
    11    5   22 1   
    12    6   23 1   
    13    7   24 1   
    14    8    9 2   
    15    8   12 1   
    16    9   10 1   
    17    9   25 1   
    18   10   11 ar  
    19   10   13 ar  
    20   11   12 1   
    21   11   16 ar  
    22   13   14 ar  
    23   13   26 1   
    24   14   15 ar  
    25   14   17 1   
    26   15   16 ar  
    27   15   27 1   
    28   16   18 1   
    29   17   28 1   
    30   18   19 3   
@<TRIPOS>SUBSTRUCTURE
     1 697         1 TEMP              0 ****  ****    0 ROOT
