@<TRIPOS>MOLECULE
697
   28    30     1     0     0
SMALL
bcc


@<TRIPOS>ATOM
      1 C1         -0.0240    0.0700    0.0310 ca        1 697      0.144100
      2 C2          1.3780    0.1480   -0.0460 ca        1 697     -0.190500
      3 C3          2.1210    0.1430    1.1260 ca        1 697     -0.060000
      4 C4          1.4860    0.0620    2.3780 ca        1 697     -0.090800
      5 C5          0.0860   -0.0160    2.4390 ca        1 697     -0.060000
      6 C6         -0.6720   -0.0120    1.2730 ca        1 697     -0.190500
      7 O11        -0.7040    0.0790   -1.1620 oh        1 697     -0.492100
      8 C12         2.2800    0.0590    3.5810 cc        1 697      0.124900
      9 C13         3.6410    0.1240    3.8070 cd        1 697     -0.184200
     10 C14         3.8360    0.0800    5.2420 ca        1 697     -0.062800
     11 C15         2.5250   -0.0130    5.8080 ca        1 697      0.061100
     12 O16         1.5620   -0.0260    4.8000 os        1 697     -0.191200
     13 C17         4.9450    0.1080    6.0790 ca        1 697     -0.154000
     14 C18         4.7170    0.0430    7.4600 ca        1 697      0.106100
     15 C19         3.4240   -0.0480    8.0160 ca        1 697     -0.103000
     16 C20         2.2990   -0.0770    7.1840 ca        1 697      0.026000
     17 O23         5.7470    0.0640    8.3760 oh        1 697     -0.494100
     18 C7          0.9930   -0.1690    7.7290 cg        1 697      0.242800
     19 N27        -0.0790   -0.2440    8.1750 n1        1 697     -0.351800
     20 H2          1.8640    0.2110   -1.0300 ha        1 697      0.148500
     21 H3          3.2190    0.2040    1.0740 ha        1 697      0.147500
     22 H5         -0.4130   -0.0800    3.4200 ha        1 697      0.147500
     23 H6         -1.7680   -0.0730    1.3250 ha        1 697      0.148500
     24 H11        -1.6520    0.0200   -0.9690 ho        1 697      0.424000
     25 H13         4.4320    0.1950    3.0660 ha        1 697      0.168000
     26 H17         5.9630    0.1780    5.6720 ha        1 697      0.147000
     27 H19         3.3140   -0.0960    9.1100 ha        1 697      0.167000
     28 H23         6.5810    0.1270    7.8870 ho        1 697      0.422000
@<TRIPOS>BOND
     1    1    2 ar  
     2    1    6 ar  
     3    1    7 1   
     4    2    3 ar  
     5    2   20 1   
     6    3    4 ar  
     7    3   21 1   
     8    4    5 ar  
     9    4    8 1   
    10    5    6 ar  
    11    5   22 1   
    12    6   23 1   
    13    7   24 1   
    14    8    9 2   
    15    8   12 1   
    16    9   10 1   
    17    9   25 1   
    18   10   11 ar  
    19   10   13 ar  
    20   11   12 1   
    21   11   16 ar  
    22   13   14 ar  
    23   13   26 1   
    24   14   15 ar  
    25   14   17 1   
    26   15   16 ar  
    27   15   27 1   
    28   16   18 1   
    29   17   28 1   
    30   18   19 3   
@<TRIPOS>SUBSTRUCTURE
     1 697         1 TEMP              0 ****  ****    0 ROOT
