@<TRIPOS>MOLECULE
698
   60    63     1     0     0
SMALL
bcc


@<TRIPOS>ATOM
      1 O24         3.1210   -2.0440    0.5000 o         1 698     -0.799500
      2 C22         2.1100   -1.3430    0.7620 c         1 698      0.757600
      3 O1          0.9580   -1.6800    0.2890 os        1 698     -0.435900
      4 C15         2.2690   -0.0990    1.6170 c3        1 698     -0.188700
      5 C14         1.2430    0.1810    2.7390 c3        1 698      0.095400
      6 C20        -0.1670   -0.2920    2.4930 c2        1 698      0.408600
      7 N1         -1.1280   -0.0810    3.4250 ne        1 698     -0.564300
      8 C28        -2.3130   -0.6060    2.9750 ce        1 698     -0.057400
      9 C27        -2.2490   -1.1950    1.7100 c2        1 698     -0.238300
     10 S1         -0.7120   -1.1180    1.1110 s4        1 698     -0.184500
     11 C16         2.2640    1.1860    0.7970 c3        1 698     -0.076400
     12 C17         1.9400    2.3280    1.7960 c3        1 698      0.002400
     13 C33         3.2250    3.0530    2.2600 c3        1 698     -0.082400
     14 C37         4.1760    3.6600    1.2350 c3        1 698     -0.036700
     15 C40         5.3660    2.7670    0.9410 c3        1 698     -0.097600
     16 C44         3.5150    4.1220   -0.0420 c3        1 698     -0.097600
     17 C34         0.9970    3.3890    1.1060 c         1 698      0.924600
     18 O35         0.4820    3.1080   -0.0090 o         1 698     -0.836800
     19 O36         0.8450    4.5110    1.6700 o         1 698     -0.836800
     20 N12         1.2780    1.6520    2.9480 n         1 698     -0.397800
     21 C11         1.4040    2.0800    4.2650 c         1 698      0.669700
     22 O13         1.6090    1.2730    5.2080 o         1 698     -0.657100
     23 C5          1.1870    3.5110    4.6450 ca        1 698     -0.101600
     24 C4          0.1140    4.2550    4.1440 ca        1 698     -0.054500
     25 C3         -0.1170    5.5440    4.6270 ca        1 698     -0.156000
     26 C6          2.0150    4.0730    5.6230 ca        1 698     -0.054500
     27 C1          1.7840    5.3630    6.0940 ca        1 698     -0.156000
     28 C2          0.7110    6.1160    5.6020 ca        1 698     -0.083300
     29 C51         0.4280    7.5170    6.0750 c3        1 698     -0.000700
     30 C9         -0.9820    7.5840    6.6570 c3        1 698     -0.081100
     31 C8          0.5290    8.4780    4.8930 c3        1 698     -0.081100
     32 C7          1.4040    7.9800    7.1500 c3        1 698     -0.081100
     33 H15         3.2740   -0.1980    2.1220 hc        1 698      0.045700
     34 H14         1.6010   -0.3430    3.6790 h1        1 698      0.071700
     35 H161        1.4660    1.1440    0.0090 hc        1 698      0.069200
     36 H162        3.2440    1.3470    0.2960 hc        1 698      0.069200
     37 H28        -3.1950   -0.5330    3.6150 h4        1 698      0.116000
     38 H27        -3.1010   -1.6570    1.2220 h4        1 698      0.119000
     39 H331        2.8730    3.9040    2.9110 hc        1 698      0.038700
     40 H332        3.8220    2.3500    2.9020 hc        1 698      0.038700
     41 H37         4.6030    4.5860    1.7330 hc        1 698      0.008700
     42 H401        6.1170    3.3230    0.3270 hc        1 698      0.032867
     43 H402        5.0700    1.8520    0.3760 hc        1 698      0.032867
     44 H403        5.8590    2.4460    1.8900 hc        1 698      0.032867
     45 H441        4.2740    4.5650   -0.7300 hc        1 698      0.032867
     46 H442        2.7340    4.8890    0.1920 hc        1 698      0.032867
     47 H443        3.0010    3.2760   -0.5630 hc        1 698      0.032867
     48 H4         -0.5180    3.8400    3.3380 ha        1 698      0.160000
     49 H6          2.8470    3.4770    6.0280 ha        1 698      0.160000
     50 H3         -0.9520    6.1220    4.2050 ha        1 698      0.112000
     51 HA          2.4600    5.7720    6.8570 ha        1 698      0.112000
     52 H9C1       -1.0750    6.8830    7.5200 hc        1 698      0.028589
     53 H9C2       -1.2050    8.6200    7.0090 hc        1 698      0.028589
     54 H9C3       -1.7360    7.2990    5.8850 hc        1 698      0.028589
     55 H8C1       -0.1990    8.1940    4.0960 hc        1 698      0.028589
     56 H8C2        0.3120    9.5220    5.2260 hc        1 698      0.028589
     57 H8C3        1.5570    8.4430    4.4590 hc        1 698      0.028589
     58 H7C1        2.4480    7.9820    6.7550 hc        1 698      0.028589
     59 H7C2        1.1480    9.0190    7.4730 hc        1 698      0.028589
     60 H7C3        1.3540    7.3100    8.0410 hc        1 698      0.028589
@<TRIPOS>BOND
     1    1    2 2   
     2    2    3 1   
     3    2    4 1   
     4    3   10 1   
     5    4    5 1   
     6    4   11 1   
     7    4   33 1   
     8    5    6 1   
     9    5   20 1   
    10    5   34 1   
    11    6    7 2   
    12    6   10 1   
    13    7    8 1   
    14    8    9 2   
    15    8   37 1   
    16    9   10 1   
    17    9   38 1   
    18   11   12 1   
    19   11   35 1   
    20   11   36 1   
    21   12   13 1   
    22   12   17 1   
    23   12   20 1   
    24   13   14 1   
    25   13   39 1   
    26   13   40 1   
    27   14   15 1   
    28   14   16 1   
    29   14   41 1   
    30   15   42 1   
    31   15   43 1   
    32   15   44 1   
    33   16   45 1   
    34   16   46 1   
    35   16   47 1   
    36   17   18 1   
    37   17   19 1   
    38   20   21 1   
    39   21   22 2   
    40   21   23 1   
    41   23   24 ar  
    42   23   26 ar  
    43   24   25 ar  
    44   24   48 1   
    45   25   28 ar  
    46   25   50 1   
    47   26   27 ar  
    48   26   49 1   
    49   27   28 ar  
    50   27   51 1   
    51   28   29 1   
    52   29   30 1   
    53   29   31 1   
    54   29   32 1   
    55   30   52 1   
    56   30   53 1   
    57   30   54 1   
    58   31   55 1   
    59   31   56 1   
    60   31   57 1   
    61   32   58 1   
    62   32   59 1   
    63   32   60 1   
@<TRIPOS>SUBSTRUCTURE
     1 698         1 TEMP              0 ****  ****    0 ROOT
