@<TRIPOS>MOLECULE
698
   60    63     1     0     0
SMALL
bcc


@<TRIPOS>ATOM
      1 O24         3.1030   -2.0140    0.4230 o         1 698     -0.799500
      2 C22         2.0940   -1.3140    0.6970 c         1 698      0.757600
      3 O1          0.9400   -1.6420    0.2210 os        1 698     -0.435900
      4 C15         2.2570   -0.0820    1.5670 c3        1 698     -0.188700
      5 C14         1.2330    0.1870    2.6940 c3        1 698      0.095400
      6 C20        -0.1780   -0.2800    2.4440 c2        1 698      0.408600
      7 N1         -1.1370   -0.0780    3.3810 ne        1 698     -0.564300
      8 C28        -2.3240   -0.5950    2.9260 ce        1 698     -0.057400
      9 C27        -2.2640   -1.1680    1.6530 c2        1 698     -0.238300
     10 S1         -0.7270   -1.0870    1.0520 s4        1 698     -0.184500
     11 C16         2.2540    1.2140    0.7640 c3        1 698     -0.076400
     12 C17         1.9330    2.3440    1.7780 c3        1 698      0.002400
     13 C33         3.2210    3.0600    2.2490 c3        1 698     -0.082400
     14 C37         4.1730    3.6780    1.2310 c3        1 698     -0.036700
     15 C40         5.3600    2.7860    0.9230 c3        1 698     -0.097600
     16 C44         3.5100    4.1570   -0.0390 c3        1 698     -0.097600
     17 C34         0.9930    3.4160    1.1020 c         1 698      0.924600
     18 O35         0.4750    3.1510   -0.0150 o         1 698     -0.836800
     19 O36         0.8440    4.5320    1.6810 o         1 698     -0.836800
     20 N12         1.2720    1.6550    2.9220 n         1 698     -0.397800
     21 C11         1.4010    2.0660    4.2440 c         1 698      0.669700
     22 O13         1.6050    1.2470    5.1760 o         1 698     -0.657100
     23 C5          1.1870    3.4930    4.6430 ca        1 698     -0.101600
     24 C4          0.1160    4.2450    4.1520 ca        1 698     -0.054000
     25 C3         -0.1120    5.5280    4.6520 ca        1 698     -0.156000
     26 C6          2.0170    4.0400    5.6270 ca        1 698     -0.054000
     27 C1          1.7900    5.3240    6.1150 ca        1 698     -0.156000
     28 C2          0.7180    6.0860    5.6330 ca        1 698     -0.083300
     29 C51         0.4380    7.4810    6.1250 c3        1 698     -0.000700
     30 C9         -0.9710    7.5440    6.7090 c3        1 698     -0.081100
     31 C8          0.5400    8.4570    4.9550 c3        1 698     -0.081100
     32 C7          1.4170    7.9290    7.2040 c3        1 698     -0.081100
     33 H15         3.2620   -0.1890    2.0690 hc        1 698      0.045700
     34 H14         1.5910   -0.3490    3.6270 h1        1 698      0.071700
     35 H161        3.2330    1.3800    0.2640 hc        1 698      0.069200
     36 H162        1.4540    1.1840   -0.0230 hc        1 698      0.069200
     37 H28        -3.2050   -0.5280    3.5680 h4        1 698      0.116000
     38 H27        -3.1170   -1.6220    1.1610 h4        1 698      0.119000
     39 H331        2.8730    3.9040    2.9120 hc        1 698      0.038700
     40 H332        3.8180    2.3470    2.8810 hc        1 698      0.038700
     41 H37         4.6020    4.5960    1.7400 hc        1 698      0.008700
     42 H401        5.8540    2.4520    1.8680 hc        1 698      0.032867
     43 H402        6.1110    3.3480    0.3150 hc        1 698      0.032867
     44 H403        5.0600    1.8790    0.3480 hc        1 698      0.032867
     45 H441        2.7320    4.9240    0.2060 hc        1 698      0.032867
     46 H442        4.2700    4.6080   -0.7230 hc        1 698      0.032867
     47 H443        2.9940    3.3200   -0.5710 hc        1 698      0.032867
     48 H4         -0.5190    3.8410    3.3420 ha        1 698      0.160000
     49 H6          2.8480    3.4370    6.0230 ha        1 698      0.160000
     50 H3         -0.9470    6.1130    4.2380 ha        1 698      0.112000
     51 HA          2.4670    5.7230    6.8820 ha        1 698      0.112000
     52 H9C1       -1.1910    8.5750    7.0740 hc        1 698      0.028589
     53 H9C2       -1.7260    7.2700    5.9340 hc        1 698      0.028589
     54 H9C3       -1.0650    6.8320    7.5630 hc        1 698      0.028589
     55 H8C1        1.5670    8.4260    4.5190 hc        1 698      0.028589
     56 H8C2        0.3250    9.4970    5.3010 hc        1 698      0.028589
     57 H8C3       -0.1890    8.1850    4.1550 hc        1 698      0.028589
     58 H7C1        2.4600    7.9330    6.8080 hc        1 698      0.028589
     59 H7C2        1.1630    8.9630    7.5410 hc        1 698      0.028589
     60 H7C3        1.3660    7.2470    8.0860 hc        1 698      0.028589
@<TRIPOS>BOND
     1    1    2 2   
     2    2    3 1   
     3    2    4 1   
     4    3   10 1   
     5    4    5 1   
     6    4   11 1   
     7    4   33 1   
     8    5    6 1   
     9    5   20 1   
    10    5   34 1   
    11    6    7 2   
    12    6   10 1   
    13    7    8 1   
    14    8    9 2   
    15    8   37 1   
    16    9   10 1   
    17    9   38 1   
    18   11   12 1   
    19   11   35 1   
    20   11   36 1   
    21   12   13 1   
    22   12   17 1   
    23   12   20 1   
    24   13   14 1   
    25   13   39 1   
    26   13   40 1   
    27   14   15 1   
    28   14   16 1   
    29   14   41 1   
    30   15   42 1   
    31   15   43 1   
    32   15   44 1   
    33   16   45 1   
    34   16   46 1   
    35   16   47 1   
    36   17   18 1   
    37   17   19 1   
    38   20   21 1   
    39   21   22 2   
    40   21   23 1   
    41   23   24 ar  
    42   23   26 ar  
    43   24   25 ar  
    44   24   48 1   
    45   25   28 ar  
    46   25   50 1   
    47   26   27 ar  
    48   26   49 1   
    49   27   28 ar  
    50   27   51 1   
    51   28   29 1   
    52   29   30 1   
    53   29   31 1   
    54   29   32 1   
    55   30   52 1   
    56   30   53 1   
    57   30   54 1   
    58   31   55 1   
    59   31   56 1   
    60   31   57 1   
    61   32   58 1   
    62   32   59 1   
    63   32   60 1   
@<TRIPOS>SUBSTRUCTURE
     1 698         1 TEMP              0 ****  ****    0 ROOT
