@<TRIPOS>MOLECULE
698
   60    63     1     0     0
SMALL
bcc


@<TRIPOS>ATOM
      1 O24         3.1550   -2.0330    0.4980 o         1 698     -0.799500
      2 C22         2.1400   -1.3310    0.7470 c         1 698      0.757600
      3 O1          0.9950   -1.6630    0.2530 os        1 698     -0.435900
      4 C15         2.2870   -0.0930    1.6120 c3        1 698     -0.188700
      5 C14         1.2420    0.1840    2.7170 c3        1 698      0.095400
      6 C20        -0.1640   -0.2850    2.4440 c2        1 698      0.408600
      7 N1         -1.1400   -0.0760    3.3610 ne        1 698     -0.564300
      8 C28        -2.3180   -0.5960    2.8880 ce        1 698     -0.057400
      9 C27        -2.2350   -1.1790    1.6200 c2        1 698     -0.238300
     10 S1         -0.6870   -1.1020    1.0480 s4        1 698     -0.184500
     11 C16         2.2990    1.1970    0.7990 c3        1 698     -0.076400
     12 C17         1.9600    2.3340    1.7990 c3        1 698      0.002400
     13 C33         3.2380    3.0550    2.2880 c3        1 698     -0.082400
     14 C37         4.2080    3.6660    1.2830 c3        1 698     -0.036700
     15 C40         5.4010    2.7720    1.0040 c3        1 698     -0.097600
     16 C44         3.5690    4.1350   -0.0030 c3        1 698     -0.097600
     17 C34         1.0310    3.4010    1.0980 c         1 698      0.924600
     18 O35         0.5350    3.1270   -0.0270 o         1 698     -0.836800
     19 O36         0.8700    4.5200    1.6660 o         1 698     -0.836800
     20 N12         1.2780    1.6530    2.9350 n         1 698     -0.397800
     21 C11         1.3820    2.0740    4.2570 c         1 698      0.669700
     22 O13         1.5680    1.2610    5.1980 o         1 698     -0.657100
     23 C5          1.1620    3.5040    4.6410 ca        1 698     -0.101600
     24 C4          0.1000    4.2530    4.1270 ca        1 698     -0.054500
     25 C3         -0.1350    5.5400    4.6130 ca        1 698     -0.156000
     26 C6          1.9760    4.0570    5.6350 ca        1 698     -0.054500
     27 C1          1.7400    5.3460    6.1100 ca        1 698     -0.156000
     28 C2          0.6780    6.1040    5.6050 ca        1 698     -0.083300
     29 C51         0.3910    7.5030    6.0810 c3        1 698     -0.000700
     30 C9         -1.0280    7.5710    6.6400 c3        1 698     -0.081100
     31 C8          0.5140    8.4710    4.9070 c3        1 698     -0.081100
     32 C7          1.3500    7.9580    7.1740 c3        1 698     -0.081100
     33 H15         3.2830   -0.1960    2.1330 hc        1 698      0.045700
     34 H14         1.5830   -0.3460    3.6600 h1        1 698      0.071700
     35 H161        1.5140    1.1610   -0.0030 hc        1 698      0.069200
     36 H162        3.2880    1.3590    0.3160 hc        1 698      0.069200
     37 H28        -3.2120   -0.5240    3.5130 h4        1 698      0.116000
     38 H27        -3.0790   -1.6360    1.1150 h4        1 698      0.119000
     39 H331        3.8230    2.3460    2.9360 hc        1 698      0.038700
     40 H332        2.8770    3.9030    2.9380 hc        1 698      0.038700
     41 H37         4.6270    4.5880    1.7930 hc        1 698      0.008700
     42 H401        5.8770    2.4440    1.9600 hc        1 698      0.032867
     43 H402        5.1130    1.8610    0.4280 hc        1 698      0.032867
     44 H403        6.1630    3.3310    0.4060 hc        1 698      0.032867
     45 H441        4.3410    4.5810   -0.6760 hc        1 698      0.032867
     46 H442        2.7850    4.9030    0.2220 hc        1 698      0.032867
     47 H443        3.0630    3.2930   -0.5370 hc        1 698      0.032867
     48 H4         -0.5200    3.8440    3.3090 ha        1 698      0.160000
     49 H6          2.7990    3.4570    6.0500 ha        1 698      0.160000
     50 H3         -0.9620    6.1220    4.1810 ha        1 698      0.112000
     51 HA          2.4050    5.7490    6.8860 ha        1 698      0.112000
     52 H9C1       -1.1380    6.8650    7.4970 hc        1 698      0.028589
     53 H9C2       -1.2540    8.6050    6.9940 hc        1 698      0.028589
     54 H9C3       -1.7700    7.2930    5.8540 hc        1 698      0.028589
     55 H8C1        0.2940    9.5130    5.2410 hc        1 698      0.028589
     56 H8C2        1.5490    8.4360    4.4890 hc        1 698      0.028589
     57 H8C3       -0.2010    8.1930    4.0960 hc        1 698      0.028589
     58 H7C1        1.0910    8.9950    7.5000 hc        1 698      0.028589
     59 H7C2        2.4010    7.9590    6.7960 hc        1 698      0.028589
     60 H7C3        1.2840    7.2820    8.0600 hc        1 698      0.028589
@<TRIPOS>BOND
     1    1    2 2   
     2    2    3 1   
     3    2    4 1   
     4    3   10 1   
     5    4    5 1   
     6    4   11 1   
     7    4   33 1   
     8    5    6 1   
     9    5   20 1   
    10    5   34 1   
    11    6    7 2   
    12    6   10 1   
    13    7    8 1   
    14    8    9 2   
    15    8   37 1   
    16    9   10 1   
    17    9   38 1   
    18   11   12 1   
    19   11   35 1   
    20   11   36 1   
    21   12   13 1   
    22   12   17 1   
    23   12   20 1   
    24   13   14 1   
    25   13   39 1   
    26   13   40 1   
    27   14   15 1   
    28   14   16 1   
    29   14   41 1   
    30   15   42 1   
    31   15   43 1   
    32   15   44 1   
    33   16   45 1   
    34   16   46 1   
    35   16   47 1   
    36   17   18 1   
    37   17   19 1   
    38   20   21 1   
    39   21   22 2   
    40   21   23 1   
    41   23   24 ar  
    42   23   26 ar  
    43   24   25 ar  
    44   24   48 1   
    45   25   28 ar  
    46   25   50 1   
    47   26   27 ar  
    48   26   49 1   
    49   27   28 ar  
    50   27   51 1   
    51   28   29 1   
    52   29   30 1   
    53   29   31 1   
    54   29   32 1   
    55   30   52 1   
    56   30   53 1   
    57   30   54 1   
    58   31   55 1   
    59   31   56 1   
    60   31   57 1   
    61   32   58 1   
    62   32   59 1   
    63   32   60 1   
@<TRIPOS>SUBSTRUCTURE
     1 698         1 TEMP              0 ****  ****    0 ROOT
