@<TRIPOS>MOLECULE
698
   60    63     1     0     0
SMALL
bcc


@<TRIPOS>ATOM
      1 O24         0.6580    1.6030   -3.4520 o         1 698     -0.799500
      2 C22         0.2030    1.6840   -2.2810 c         1 698      0.757600
      3 O1          0.9620    2.1080   -1.3270 os        1 698     -0.435900
      4 C15        -1.2290    1.2620   -2.0100 c3        1 698     -0.188700
      5 C14        -2.1200    2.1500   -1.1110 c3        1 698      0.095400
      6 C20        -1.4210    2.9080   -0.0130 c2        1 698      0.408600
      7 N1         -2.1310    3.7050    0.8230 ne        1 698     -0.564300
      8 C28        -1.2760    4.2860    1.7240 ce        1 698     -0.057400
      9 C27         0.0660    3.9200    1.5790 c2        1 698     -0.238300
     10 S1          0.2490    2.8840    0.3050 s4        1 698     -0.184500
     11 C16        -1.3270   -0.1150   -1.3630 c3        1 698     -0.076400
     12 C17        -2.7360   -0.1840   -0.7180 c3        1 698      0.002400
     13 C33        -3.7360   -0.9370   -1.6280 c3        1 698     -0.082400
     14 C37        -3.4290   -2.3540   -2.0990 c3        1 698     -0.036700
     15 C40        -2.8650   -2.3920   -3.5070 c3        1 698     -0.097600
     16 C44        -2.5760   -3.1610   -1.1500 c3        1 698     -0.097600
     17 C34        -2.6550   -0.9470    0.6610 c         1 698      0.924600
     18 O35        -1.5210   -1.2020    1.1470 o         1 698     -0.836800
     19 O36        -3.7350   -1.3310    1.1980 o         1 698     -0.836800
     20 N12        -3.1510    1.2380   -0.5520 n         1 698     -0.397800
     21 C11        -4.4690    1.6690   -0.6510 c         1 698      0.669700
     22 O13        -4.7810    2.7050   -1.2930 o         1 698     -0.657100
     23 C5         -5.5720    0.9890    0.0980 ca        1 698     -0.101600
     24 C4         -5.4340    0.6120    1.4370 ca        1 698     -0.054000
     25 C3         -6.5340    0.0970    2.1250 ca        1 698     -0.156000
     26 C6         -6.8120    0.8410   -0.5330 ca        1 698     -0.054000
     27 C1         -7.9030    0.3190    0.1570 ca        1 698     -0.156000
     28 C2         -7.7770   -0.0590    1.4990 ca        1 698     -0.083300
     29 C51        -8.9260   -0.6360    2.2830 c3        1 698     -0.000700
     30 C9         -9.1990    0.2370    3.5060 c3        1 698     -0.081100
     31 C8         -8.5640   -2.0460    2.7440 c3        1 698     -0.081100
     32 C7        -10.2090   -0.7190    1.4660 c3        1 698     -0.081100
     33 H15        -1.7350    1.2200   -3.0180 hc        1 698      0.045700
     34 H14        -2.6200    2.9250   -1.7710 h1        1 698      0.071700
     35 H161       -1.1810   -0.9230   -2.1120 hc        1 698      0.069200
     36 H162       -0.5470   -0.2270   -0.5640 hc        1 698      0.069200
     37 H28        -1.6850    4.9740    2.4670 h4        1 698      0.116000
     38 H27         0.8600    4.2990    2.2120 h4        1 698      0.119000
     39 H331       -4.6950   -0.9990   -1.0360 hc        1 698      0.038700
     40 H332       -3.9320   -0.3100   -2.5410 hc        1 698      0.038700
     41 H37        -4.4340   -2.8750   -2.1570 hc        1 698      0.008700
     42 H401       -1.8340   -1.9700   -3.5530 hc        1 698      0.032867
     43 H402       -3.5120   -1.8070   -4.2040 hc        1 698      0.032867
     44 H403       -2.8210   -3.4480   -3.8700 hc        1 698      0.032867
     45 H441       -1.5850   -2.6740   -0.9770 hc        1 698      0.032867
     46 H442       -2.4100   -4.1880   -1.5600 hc        1 698      0.032867
     47 H443       -3.0850   -3.2380   -0.1560 hc        1 698      0.032867
     48 H4         -4.4480    0.6810    1.9320 ha        1 698      0.160000
     49 H6         -6.9200    1.1560   -1.5820 ha        1 698      0.160000
     50 H3         -6.4000   -0.2140    3.1720 ha        1 698      0.112000
     51 HA         -8.8580    0.2110   -0.3740 ha        1 698      0.112000
     52 H9C1      -10.0480   -0.1830    4.0970 hc        1 698      0.028589
     53 H9C2       -8.2970    0.2840    4.1600 hc        1 698      0.028589
     54 H9C3       -9.4620    1.2730    3.1860 hc        1 698      0.028589
     55 H8C1       -7.6460   -2.0240    3.3790 hc        1 698      0.028589
     56 H8C2       -9.4020   -2.4850    3.3370 hc        1 698      0.028589
     57 H8C3       -8.3640   -2.6980    1.8610 hc        1 698      0.028589
     58 H7C1      -11.0320   -1.1440    2.0920 hc        1 698      0.028589
     59 H7C2      -10.5190    0.2950    1.1180 hc        1 698      0.028589
     60 H7C3      -10.0650   -1.3800    0.5780 hc        1 698      0.028589
@<TRIPOS>BOND
     1    1    2 2   
     2    2    3 1   
     3    2    4 1   
     4    3   10 1   
     5    4    5 1   
     6    4   11 1   
     7    4   33 1   
     8    5    6 1   
     9    5   20 1   
    10    5   34 1   
    11    6    7 2   
    12    6   10 1   
    13    7    8 1   
    14    8    9 2   
    15    8   37 1   
    16    9   10 1   
    17    9   38 1   
    18   11   12 1   
    19   11   35 1   
    20   11   36 1   
    21   12   13 1   
    22   12   17 1   
    23   12   20 1   
    24   13   14 1   
    25   13   39 1   
    26   13   40 1   
    27   14   15 1   
    28   14   16 1   
    29   14   41 1   
    30   15   42 1   
    31   15   43 1   
    32   15   44 1   
    33   16   45 1   
    34   16   46 1   
    35   16   47 1   
    36   17   18 1   
    37   17   19 1   
    38   20   21 1   
    39   21   22 2   
    40   21   23 1   
    41   23   24 ar  
    42   23   26 ar  
    43   24   25 ar  
    44   24   48 1   
    45   25   28 ar  
    46   25   50 1   
    47   26   27 ar  
    48   26   49 1   
    49   27   28 ar  
    50   27   51 1   
    51   28   29 1   
    52   29   30 1   
    53   29   31 1   
    54   29   32 1   
    55   30   52 1   
    56   30   53 1   
    57   30   54 1   
    58   31   55 1   
    59   31   56 1   
    60   31   57 1   
    61   32   58 1   
    62   32   59 1   
    63   32   60 1   
@<TRIPOS>SUBSTRUCTURE
     1 698         1 TEMP              0 ****  ****    0 ROOT
