@<TRIPOS>MOLECULE
698
   60    57     1     0     0
SMALL
bcc


@<TRIPOS>ATOM
      1 O24        -3.1470    4.5130   -0.9730 o         1 698     -0.497000
      2 C22        -1.8930    4.4390   -0.9080 c1        1 698      0.331000
      3 O1         -1.1840    5.0540   -1.7410 os        1 698     -0.578000
      4 C15        -1.2850    3.7130    0.1310 c3        1 698     -0.163000
      5 C14         0.2290    3.2990   -0.0860 c3        1 698      0.118000
      6 C20         0.6500    3.5810   -1.5580 c2        1 698     -0.364000
      7 N1          1.6980    2.9240   -2.2680 n2        1 698     -0.140000
      8 C28         1.8740    3.6290   -3.6570 c1        1 698     -0.198000
      9 C27         0.9160    4.7030   -3.7440 c1        1 698     -0.656000
     10 S1          0.1170    4.7210   -2.4490 ss        1 698      0.815000
     11 C16        -2.0180    2.2850    0.2280 c3        1 698     -0.134000
     12 C17        -1.1450    1.3690   -0.1910 c3        1 698      0.019000
     13 C33        -1.2540    0.9650   -1.6680 c3        1 698     -0.140000
     14 C37        -2.6790    0.5800   -1.9800 c3        1 698     -0.111000
     15 C40        -3.0150    0.9930   -3.3930 c3        1 698     -0.199500
     16 C44        -2.8370   -0.9150   -1.8430 c3        1 698     -0.199500
     17 C34        -1.2490    0.0040    0.4520 c2        1 698      0.331000
     18 O35        -0.6850   -0.9890   -0.0830 o         1 698     -0.579000
     19 O36        -1.9230   -0.1460    1.5070 o         1 698     -0.579000
     20 N12         0.3110    2.0560    0.1580 n         1 698     -0.288000
     21 C11         1.4730    1.3690    0.6510 c2        1 698      0.397000
     22 O13         2.4940    1.9890    0.8710 o         1 698     -0.417000
     23 C5          1.3700   -0.1030    1.0650 c2        1 698     -0.055000
     24 C4          1.9280   -1.0840    0.2570 c2        1 698     -0.105000
     25 C3          2.0330   -2.3890    0.7210 c1        1 698     -0.156000
     26 C6          0.9180   -0.4280    2.3380 c1        1 698     -0.077000
     27 C1          1.0230   -1.7320    2.8000 c1        1 698     -0.154000
     28 C2          1.5810   -2.7130    1.9920 c1        1 698     -0.089000
     29 C51         1.8300   -4.1020    2.5530 c3        1 698     -0.007000
     30 C9          2.2130   -5.0360    1.4320 c3        1 698     -0.199000
     31 C8          0.5680   -4.6110    3.2270 c3        1 698     -0.199000
     32 C7          2.9570   -4.0420    3.5680 c3        1 698     -0.199000
     33 H15        -1.4460    4.3350    0.8700 hc        1 698      0.105000
     34 H14         0.8020    3.7990    0.5270 h1        1 698      0.110000
     35 H161       -2.2730    2.1040    1.1540 hc        1 698      0.098000
     36 H162       -2.8130    2.2770   -0.3460 hc        1 698      0.098000
     37 H28         2.5200    3.3840   -4.3450 DU        1 698      0.117000
     38 H27         0.8010    5.3100   -4.4990 DU        1 698      0.117000
     39 H331       -0.9890    1.7180   -2.2310 hc        1 698      0.075000
     40 H332       -0.6650    0.2050   -1.8410 hc        1 698      0.075000
     41 H37        -3.2810    1.0280   -1.3590 hc        1 698      0.140000
     42 H401       -3.2740    0.2030   -3.9120 hc        1 698      0.058333
     43 H402       -2.2310    1.4120   -3.8050 hc        1 698      0.058333
     44 H403       -3.7570    1.6320   -3.3790 hc        1 698      0.058333
     45 H441       -3.6560   -1.2000   -2.2970 hc        1 698      0.058333
     46 H442       -2.8910   -1.1520   -0.8930 hc        1 698      0.058333
     47 H443       -2.0660   -1.3630   -2.2470 hc        1 698      0.058333
     48 H4          2.2550   -0.8560   -0.6270 ha        1 698      0.159000
     49 H6          0.5200    0.2570    2.9020 ha        1 698      0.198000
     50 H3          2.4610   -3.0740    0.1650 ha        1 698      0.109000
     51 HA          0.7370   -1.9520    3.7070 ha        1 698      0.111000
     52 H9C1        1.5260   -5.0080    0.7360 hc        1 698      0.067778
     53 H9C2        3.0720   -4.7580    1.0540 hc        1 698      0.067778
     54 H9C3        2.2890   -5.9500    1.7800 hc        1 698      0.067778
     55 H8C1       -0.1720   -4.5940    2.5890 hc        1 698      0.067778
     56 H8C2        0.3520   -4.0380    3.9920 hc        1 698      0.067778
     57 H8C3        0.7110   -5.5290    3.5370 hc        1 698      0.067778
     58 H7C1        3.7090   -3.5330    3.1930 hc        1 698      0.067778
     59 H7C2        2.6380   -3.6010    4.3830 hc        1 698      0.067778
     60 H7C3        3.2520   -4.9520    3.7830 hc        1 698      0.067778
@<TRIPOS>BOND
     1    1    2 1   
     2    2    4 1   
     3    4    5 1   
     4    4   11 1   
     5    4   33 1   
     6    5    6 1   
     7    5   20 1   
     8    5   34 1   
     9    6    7 1   
    10    6   10 1   
    11    7    8 1   
    12    8    9 1   
    13    9   10 1   
    14   11   12 1   
    15   11   35 1   
    16   11   36 1   
    17   12   13 1   
    18   12   17 1   
    19   12   20 1   
    20   13   14 1   
    21   13   39 1   
    22   13   40 1   
    23   14   15 1   
    24   14   16 1   
    25   14   41 1   
    26   15   42 1   
    27   15   43 1   
    28   15   44 1   
    29   16   45 1   
    30   16   46 1   
    31   16   47 1   
    32   17   18 1   
    33   17   19 1   
    34   20   21 1   
    35   21   22 1   
    36   21   23 1   
    37   23   24 1   
    38   23   26 1   
    39   24   25 1   
    40   24   48 1   
    41   25   50 1   
    42   26   49 1   
    43   27   28 1   
    44   27   51 1   
    45   28   29 1   
    46   29   30 1   
    47   29   31 1   
    48   29   32 1   
    49   30   52 1   
    50   30   53 1   
    51   30   54 1   
    52   31   55 1   
    53   31   56 1   
    54   31   57 1   
    55   32   58 1   
    56   32   59 1   
    57   32   60 1   
@<TRIPOS>SUBSTRUCTURE
     1 698         1 TEMP              0 ****  ****    0 ROOT
