@<TRIPOS>MOLECULE
699
   52    54     1     0     0
SMALL
bcc


@<TRIPOS>ATOM
      1 F54         0.5970   -0.0280    1.0540 f         1 699     -0.256967
      2 C51         1.9210    0.0370    0.6860 c3        1 699      0.689200
      3 F52         2.5810    0.0550    1.8960 f         1 699     -0.256967
      4 F53         2.0620    1.3320    0.2400 f         1 699     -0.256967
      5 C2          2.3850   -1.0350   -0.2810 ca        1 699     -0.183300
      6 C1          1.4670   -1.6850   -1.1060 ca        1 699     -0.105000
      7 C6          1.9020   -2.6740   -1.9920 ca        1 699     -0.074000
      8 C3          3.7450   -1.3540   -0.3450 ca        1 699     -0.105000
      9 C4          4.1780   -2.3370   -1.2280 ca        1 699     -0.074000
     10 C5          3.2590   -3.0010   -2.0540 ca        1 699     -0.055600
     11 C11         3.7540   -4.1580   -2.8690 c         1 699      0.653700
     12 O13         4.1720   -5.1510   -2.2090 o         1 699     -0.679100
     13 N12         3.7440   -4.1780   -4.2340 n         1 699     -0.406800
     14 C17         3.5430   -3.0500   -5.1860 c3        1 699      0.001400
     15 C34         2.0130   -2.7050   -5.3210 c         1 699      0.915600
     16 O36         1.4940   -1.9330   -4.4580 o         1 699     -0.838300
     17 O35         1.3550   -3.1880   -6.2800 o         1 699     -0.838300
     18 C33         4.3060   -1.7910   -4.7190 c3        1 699     -0.072400
     19 C37         4.3880   -0.5740   -5.6350 c3        1 699     -0.034700
     20 C44         5.7120   -0.4870   -6.3710 c3        1 699     -0.098600
     21 C40         3.2260   -0.4240   -6.5890 c3        1 699     -0.098600
     22 C16         4.1140   -3.5780   -6.5340 c3        1 699     -0.070400
     23 C15         5.0560   -4.7160   -6.1710 c3        1 699     -0.173700
     24 C22         5.4250   -5.6880   -7.3040 c         1 699      0.923600
     25 O25         6.2800   -6.5860   -7.0380 o         1 699     -0.850800
     26 O24         4.9470   -5.5100   -8.4590 o         1 699     -0.850800
     27 C14         4.3870   -5.3300   -4.9190 c3        1 699      0.189000
     28 C20         3.4130   -6.4170   -5.2180 cc        1 699     -0.047400
     29 S29         3.7400   -8.0310   -4.8450 ss        1 699     -0.003800
     30 C26         2.1620   -6.2870   -5.7880 cd        1 699     -0.140000
     31 C27         1.4980   -7.5480   -5.8970 cd        1 699     -0.162000
     32 C28         2.2680   -8.5800   -5.4040 cc        1 699     -0.223100
     33 H1          0.4020   -1.4120   -1.0720 ha        1 699      0.131000
     34 H3          4.4620   -0.8330    0.3060 ha        1 699      0.131000
     35 H6          1.1850   -3.1540   -2.6840 ha        1 699      0.169500
     36 H4          5.2430   -2.6080   -1.2780 ha        1 699      0.169500
     37 H14         5.1860   -5.7560   -4.2390 h1        1 699      0.066700
     38 H331        3.7910   -1.4430   -3.7790 hc        1 699      0.033700
     39 H332        5.3560   -2.0870   -4.4500 hc        1 699      0.033700
     40 H161        4.6470   -2.7790   -7.0930 hc        1 699      0.071700
     41 H162        3.2810   -3.9600   -7.1810 hc        1 699      0.071700
     42 H37         4.3590    0.3250   -4.9440 hc        1 699      0.010700
     43 H441        6.5640   -0.5820   -5.6550 hc        1 699      0.034033
     44 H442        5.7950    0.5020   -6.8860 hc        1 699      0.034033
     45 H443        5.8120   -1.2860   -7.1410 hc        1 699      0.034033
     46 H401        3.1230   -1.3190   -7.2500 hc        1 699      0.034033
     47 H402        3.3680    0.4830   -7.2270 hc        1 699      0.034033
     48 H403        2.2730   -0.3230   -6.0110 hc        1 699      0.034033
     49 H15         6.0400   -4.2810   -5.8340 hc        1 699      0.025700
     50 H26         1.7320   -5.3310   -6.1240 ha        1 699      0.212000
     51 H28         1.9870   -9.6280   -5.3880 h4        1 699      0.132000
     52 H27         0.5020   -7.6550   -6.3280 ha        1 699      0.124000
@<TRIPOS>BOND
     1    1    2 1   
     2    2    3 1   
     3    2    4 1   
     4    2    5 1   
     5    5    6 ar  
     6    5    8 ar  
     7    6    7 ar  
     8    6   33 1   
     9    7   10 ar  
    10    7   35 1   
    11    8    9 ar  
    12    8   34 1   
    13    9   10 ar  
    14    9   36 1   
    15   10   11 1   
    16   11   12 2   
    17   11   13 1   
    18   13   14 1   
    19   13   27 1   
    20   14   15 1   
    21   14   18 1   
    22   14   22 1   
    23   15   16 1   
    24   15   17 1   
    25   18   19 1   
    26   18   38 1   
    27   18   39 1   
    28   19   20 1   
    29   19   21 1   
    30   19   42 1   
    31   20   43 1   
    32   20   44 1   
    33   20   45 1   
    34   21   46 1   
    35   21   47 1   
    36   21   48 1   
    37   22   23 1   
    38   22   40 1   
    39   22   41 1   
    40   23   24 1   
    41   23   27 1   
    42   23   49 1   
    43   24   25 1   
    44   24   26 1   
    45   27   28 1   
    46   27   37 1   
    47   28   29 1   
    48   28   30 2   
    49   29   32 1   
    50   30   31 1   
    51   30   50 1   
    52   31   32 2   
    53   31   52 1   
    54   32   51 1   
@<TRIPOS>SUBSTRUCTURE
     1 699         1 TEMP              0 ****  ****    0 ROOT
