@<TRIPOS>MOLECULE
699
   52    54     1     0     0
SMALL
bcc


@<TRIPOS>ATOM
      1 F54         0.6100   -0.0110    1.0510 f         1 699     -0.256967
      2 C51         1.9330    0.0550    0.6780 c3        1 699      0.689200
      3 F52         2.5960    0.0770    1.8870 f         1 699     -0.256967
      4 F53         2.0720    1.3480    0.2280 f         1 699     -0.256967
      5 C2          2.3950   -1.0210   -0.2860 ca        1 699     -0.183300
      6 C1          1.4750   -1.6740   -1.1060 ca        1 699     -0.105000
      7 C6          1.9070   -2.6660   -1.9900 ca        1 699     -0.074000
      8 C3          3.7550   -1.3390   -0.3520 ca        1 699     -0.105000
      9 C4          4.1860   -2.3260   -1.2330 ca        1 699     -0.074000
     10 C5          3.2650   -2.9920   -2.0530 ca        1 699     -0.055600
     11 C11         3.7590   -4.1530   -2.8660 c         1 699      0.653700
     12 O13         4.1780   -5.1430   -2.2040 o         1 699     -0.679100
     13 N12         3.7450   -4.1780   -4.2310 n         1 699     -0.406800
     14 C17         3.5410   -3.0530   -5.1860 c3        1 699      0.001400
     15 C34         2.0100   -2.7090   -5.3180 c         1 699      0.915600
     16 O36         1.4940   -1.9340   -4.4570 o         1 699     -0.838300
     17 O35         1.3500   -3.1960   -6.2740 o         1 699     -0.838300
     18 C33         4.3050   -1.7920   -4.7250 c3        1 699     -0.072400
     19 C37         4.3840   -0.5780   -5.6460 c3        1 699     -0.034700
     20 C44         5.7060   -0.4930   -6.3860 c3        1 699     -0.098600
     21 C40         3.2200   -0.4320   -6.5980 c3        1 699     -0.098600
     22 C16         4.1080   -3.5860   -6.5340 c3        1 699     -0.070400
     23 C15         5.0520   -4.7230   -6.1690 c3        1 699     -0.173700
     24 C22         5.4180   -5.6980   -7.3000 c         1 699      0.923600
     25 O25         6.2730   -6.5950   -7.0330 o         1 699     -0.850800
     26 O24         4.9370   -5.5240   -8.4540 o         1 699     -0.850800
     27 C14         4.3860   -5.3320   -4.9130 c3        1 699      0.189000
     28 C20         3.4110   -6.4200   -5.2060 cc        1 699     -0.047400
     29 S29         3.7400   -8.0330   -4.8280 ss        1 699     -0.003800
     30 C26         2.1590   -6.2930   -5.7730 cd        1 699     -0.140000
     31 C27         1.4940   -7.5540   -5.8760 cd        1 699     -0.162000
     32 C28         2.2670   -8.5840   -5.3810 cc        1 699     -0.223100
     33 H1          0.4100   -1.4010   -1.0700 ha        1 699      0.131000
     34 H3          4.4730   -0.8160    0.2950 ha        1 699      0.131000
     35 H6          1.1890   -3.1480   -2.6780 ha        1 699      0.169500
     36 H4          5.2510   -2.5970   -1.2840 ha        1 699      0.169500
     37 H14         5.1860   -5.7550   -4.2340 h1        1 699      0.066700
     38 H331        3.7920   -1.4410   -3.7860 hc        1 699      0.033700
     39 H332        5.3560   -2.0880   -4.4580 hc        1 699      0.033700
     40 H161        4.6400   -2.7880   -7.0970 hc        1 699      0.071700
     41 H162        3.2740   -3.9700   -7.1780 hc        1 699      0.071700
     42 H37         4.3570    0.3230   -4.9590 hc        1 699      0.010700
     43 H441        6.5600   -0.5850   -5.6720 hc        1 699      0.033867
     44 H442        5.7880    0.4930   -6.9050 hc        1 699      0.033867
     45 H443        5.8040   -1.2960   -7.1530 hc        1 699      0.033867
     46 H401        3.3600    0.4720   -7.2390 hc        1 699      0.033867
     47 H402        3.1150   -1.3300   -7.2560 hc        1 699      0.033867
     48 H403        2.2680   -0.3290   -6.0180 hc        1 699      0.033867
     49 H15         6.0370   -4.2860   -5.8360 hc        1 699      0.025700
     50 H26         1.7270   -5.3380   -6.1120 ha        1 699      0.212000
     51 H28         1.9860   -9.6320   -5.3610 h4        1 699      0.132000
     52 H27         0.4980   -7.6630   -6.3040 ha        1 699      0.124000
@<TRIPOS>BOND
     1    1    2 1   
     2    2    3 1   
     3    2    4 1   
     4    2    5 1   
     5    5    6 ar  
     6    5    8 ar  
     7    6    7 ar  
     8    6   33 1   
     9    7   10 ar  
    10    7   35 1   
    11    8    9 ar  
    12    8   34 1   
    13    9   10 ar  
    14    9   36 1   
    15   10   11 1   
    16   11   12 2   
    17   11   13 1   
    18   13   14 1   
    19   13   27 1   
    20   14   15 1   
    21   14   18 1   
    22   14   22 1   
    23   15   16 1   
    24   15   17 1   
    25   18   19 1   
    26   18   38 1   
    27   18   39 1   
    28   19   20 1   
    29   19   21 1   
    30   19   42 1   
    31   20   43 1   
    32   20   44 1   
    33   20   45 1   
    34   21   46 1   
    35   21   47 1   
    36   21   48 1   
    37   22   23 1   
    38   22   40 1   
    39   22   41 1   
    40   23   24 1   
    41   23   27 1   
    42   23   49 1   
    43   24   25 1   
    44   24   26 1   
    45   27   28 1   
    46   27   37 1   
    47   28   29 1   
    48   28   30 2   
    49   29   32 1   
    50   30   31 1   
    51   30   50 1   
    52   31   32 2   
    53   31   52 1   
    54   32   51 1   
@<TRIPOS>SUBSTRUCTURE
     1 699         1 TEMP              0 ****  ****    0 ROOT
