@<TRIPOS>MOLECULE
699
   52    54     1     0     0
SMALL
bcc


@<TRIPOS>ATOM
      1 F54         0.1750   -0.2760    0.8760 f         1 699     -0.256633
      2 C51         1.5380   -0.2030    0.7000 c3        1 699      0.689200
      3 F52         2.0240   -0.3020    1.9870 f         1 699     -0.256633
      4 F53         1.7490    1.1230    0.3950 f         1 699     -0.256633
      5 C2          2.1270   -1.1970   -0.2820 ca        1 699     -0.181300
      6 C1          1.3180   -1.8100   -1.2390 ca        1 699     -0.098500
      7 C6          1.8720   -2.7270   -2.1370 ca        1 699     -0.082500
      8 C3          3.4960   -1.4790   -0.2240 ca        1 699     -0.098500
      9 C4          4.0460   -2.3920   -1.1170 ca        1 699     -0.082500
     10 C5          3.2370   -3.0190   -2.0750 ca        1 699     -0.061600
     11 C11         3.8530   -4.1000   -2.9160 c         1 699      0.656700
     12 O13         4.4040   -5.0490   -2.2940 o         1 699     -0.679100
     13 N12         3.7940   -4.0790   -4.2780 n         1 699     -0.409800
     14 C17         3.5190   -2.9050   -5.1540 c3        1 699      0.004400
     15 C34         2.0150   -2.4590   -5.0470 c         1 699      0.906600
     16 O36         1.7520   -1.2970   -4.6170 o         1 699     -0.836800
     17 O35         1.1100   -3.2780   -5.3670 o         1 699     -0.836800
     18 C33         4.4550   -1.7400   -4.7480 c3        1 699     -0.071400
     19 C37         4.8350   -0.6360   -5.7270 c3        1 699     -0.030700
     20 C44         6.0750   -0.9780   -6.5290 c3        1 699     -0.101100
     21 C40         3.7170   -0.1440   -6.6170 c3        1 699     -0.101100
     22 C16         3.7950   -3.4440   -6.5830 c3        1 699     -0.064400
     23 C15         4.8190   -4.5580   -6.3990 c3        1 699     -0.174700
     24 C22         5.0000   -5.5110   -7.5900 c         1 699      0.922600
     25 O25         5.9560   -6.3420   -7.5240 o         1 699     -0.850300
     26 O24         4.2670   -5.3830   -8.6100 o         1 699     -0.850300
     27 C14         4.3970   -5.1920   -5.0490 c3        1 699      0.196000
     28 C20         3.4670   -6.3480   -5.1870 cc        1 699     -0.051400
     29 S29         3.9800   -7.9420   -4.9720 ss        1 699      0.000200
     30 C26         2.1160   -6.2990   -5.4680 cd        1 699     -0.140000
     31 C27         1.5340   -7.6030   -5.4930 cd        1 699     -0.164000
     32 C28         2.4640   -8.5870   -5.2280 cc        1 699     -0.222100
     33 H1          0.2480   -1.5630   -1.3030 ha        1 699      0.132500
     34 H3          4.1240   -0.9860    0.5310 ha        1 699      0.132500
     35 H6          1.2370   -3.1870   -2.9200 ha        1 699      0.172500
     36 H4          5.1170   -2.6390   -1.0710 ha        1 699      0.172500
     37 H14         5.3180   -5.5500   -4.4970 h1        1 699      0.058700
     38 H331        3.9450   -1.2370   -3.8770 hc        1 699      0.033700
     39 H332        5.4270   -2.1670   -4.3740 hc        1 699      0.033700
     40 H161        2.8500   -3.8670   -7.0160 hc        1 699      0.069700
     41 H162        4.1660   -2.6540   -7.2700 hc        1 699      0.069700
     42 H37         5.1210    0.2440   -5.0700 hc        1 699      0.005700
     43 H441        6.2800   -0.1790   -7.2820 hc        1 699      0.033700
     44 H442        6.9610   -1.0600   -5.8530 hc        1 699      0.033700
     45 H443        5.9640   -1.9510   -7.0660 hc        1 699      0.033700
     46 H401        3.9900    0.8500   -7.0510 hc        1 699      0.033700
     47 H402        2.7750   -0.0430   -6.0190 hc        1 699      0.033700
     48 H403        3.5180   -0.8450   -7.4620 hc        1 699      0.033700
     49 H15         5.8340   -4.0940   -6.2370 hc        1 699      0.028700
     50 H26         1.5590   -5.3660   -5.6490 ha        1 699      0.214000
     51 H28         2.2670   -9.6540   -5.2030 h4        1 699      0.132000
     52 H27         0.4780   -7.7750   -5.7050 ha        1 699      0.122000
@<TRIPOS>BOND
     1    1    2 1   
     2    2    3 1   
     3    2    4 1   
     4    2    5 1   
     5    5    6 ar  
     6    5    8 ar  
     7    6    7 ar  
     8    6   33 1   
     9    7   10 ar  
    10    7   35 1   
    11    8    9 ar  
    12    8   34 1   
    13    9   10 ar  
    14    9   36 1   
    15   10   11 1   
    16   11   12 2   
    17   11   13 1   
    18   13   14 1   
    19   13   27 1   
    20   14   15 1   
    21   14   18 1   
    22   14   22 1   
    23   15   16 1   
    24   15   17 1   
    25   18   19 1   
    26   18   38 1   
    27   18   39 1   
    28   19   20 1   
    29   19   21 1   
    30   19   42 1   
    31   20   43 1   
    32   20   44 1   
    33   20   45 1   
    34   21   46 1   
    35   21   47 1   
    36   21   48 1   
    37   22   23 1   
    38   22   40 1   
    39   22   41 1   
    40   23   24 1   
    41   23   27 1   
    42   23   49 1   
    43   24   25 1   
    44   24   26 1   
    45   27   28 1   
    46   27   37 1   
    47   28   29 1   
    48   28   30 2   
    49   29   32 1   
    50   30   31 1   
    51   30   50 1   
    52   31   32 2   
    53   31   52 1   
    54   32   51 1   
@<TRIPOS>SUBSTRUCTURE
     1 699         1 TEMP              0 ****  ****    0 ROOT
