@<TRIPOS>MOLECULE
699
   52    49     1     0     0
SMALL
bcc


@<TRIPOS>ATOM
      1 F54        -1.9060    5.9620    1.7000 f         1 699     -0.185333
      2 C51        -2.7500    5.4410    0.7910 c3        1 699      0.467000
      3 F52        -2.7030    6.1670   -0.3320 f         1 699     -0.185333
      4 F53        -3.9890    5.4570    1.2770 f         1 699     -0.185333
      5 C2         -2.3450    4.0090    0.4840 c2        1 699     -0.179000
      6 C1         -3.2720    3.1250   -0.0510 c2        1 699     -0.112000
      7 C6         -2.9100    1.8080   -0.3000 c1        1 699     -0.106000
      8 C3         -1.0640    3.5790    0.7690 c1        1 699     -0.106000
      9 C4         -0.6980    2.2610    0.5200 c1        1 699     -0.087000
     10 C5         -1.6140    1.3760   -0.0110 c1        1 699     -0.046000
     11 C11        -1.1100   -0.0310   -0.5670 c2        1 699      0.390000
     12 O13        -1.8480   -0.7070   -1.2310 o         1 699     -0.380000
     13 N12         0.3190   -0.3880   -0.4690 n         1 699     -0.293000
     14 C17         0.9020   -1.4140   -1.0580 c3        1 699      0.011000
     15 C34         1.3820   -1.1880   -2.5270 c2        1 699      0.331000
     16 O36         2.6150   -1.2600   -2.8100 o         1 699     -0.578500
     17 O35         0.5360   -0.9200   -3.4370 o         1 699     -0.578500
     18 C33         0.0060   -2.7120   -1.2660 c3        1 699     -0.134000
     19 C37         0.7790   -3.7450   -2.1330 c3        1 699     -0.111000
     20 C44         1.2310   -4.8870   -1.2690 c3        1 699     -0.200000
     21 C40        -0.1280   -4.2700   -3.2300 c3        1 699     -0.200000
     22 C16         2.1070   -1.7200   -0.0580 c3        1 699     -0.144000
     23 C15         2.2120   -0.4970    0.9400 c3        1 699     -0.165000
     24 C22         1.7360   -0.9510    2.3780 c2        1 699      0.334000
     25 O25         2.5740   -1.1600    3.2700 o         1 699     -0.541000
     26 O24         0.5110   -1.2230    2.5820 o         1 699     -0.541000
     27 C14         1.4320    0.3980    0.3710 c3        1 699      0.124000
     28 C20         0.7610    1.2510    1.4430 c2        1 699     -0.491000
     29 S29        -0.5640    0.9100    2.1710 ss        1 699      0.980000
     30 C26         1.3500    2.4050    2.1070 c1        1 699     -0.187000
     31 C27         0.3870    2.8400    3.3070 c1        1 699     -0.212000
     32 C28        -0.7460    1.9390    3.3300 c1        1 699     -0.659000
     33 H1         -4.1880    3.4340   -0.2540 ha        1 699      0.126000
     34 H3         -0.4000    4.2150    1.1520 ha        1 699      0.134000
     35 H6         -3.5900    1.1590   -0.6230 ha        1 699      0.150000
     36 H4          0.2010    1.9630    0.7210 ha        1 699      0.216000
     37 H14         1.9560    0.9650   -0.2220 h1        1 699      0.070000
     38 H331       -0.8100   -2.4690   -1.7090 hc        1 699      0.084500
     39 H332       -0.2040   -3.1140   -0.3800 hc        1 699      0.084500
     40 H161        1.9250   -2.5350    0.4380 hc        1 699      0.098000
     41 H162        2.9560   -1.8160   -0.5680 hc        1 699      0.098000
     42 H37         1.5540   -3.3170   -2.5330 hc        1 699      0.134000
     43 H441        0.7040   -4.8980   -0.4400 hc        1 699      0.058167
     44 H442        1.1020   -5.7400   -1.7530 hc        1 699      0.058167
     45 H443        2.1710   -4.7760   -1.0540 hc        1 699      0.058167
     46 H401        0.3640   -4.9240   -3.7780 hc        1 699      0.058167
     47 H402       -0.4170   -3.5340   -3.7900 hc        1 699      0.058167
     48 H403       -0.9140   -4.7040   -2.8280 hc        1 699      0.058167
     49 H15         3.1080   -0.1260    1.1360 hc        1 699      0.100000
     50 H26         2.1910    2.8410    1.8600 DU        1 699      0.106667
     51 H28        -1.4430    1.9220    3.9990 DU        1 699      0.106667
     52 H27         0.5410    3.5980    3.9300 DU        1 699      0.106667
@<TRIPOS>BOND
     1    1    2 1   
     2    2    3 1   
     3    2    4 1   
     4    2    5 1   
     5    5    6 1   
     6    5    8 1   
     7    6    7 1   
     8    6   33 1   
     9    7   35 1   
    10    8   34 1   
    11    9   10 1   
    12    9   36 1   
    13   10   11 1   
    14   11   12 1   
    15   11   13 1   
    16   13   14 1   
    17   13   27 1   
    18   14   15 1   
    19   14   18 1   
    20   14   22 1   
    21   15   16 1   
    22   15   17 1   
    23   18   19 1   
    24   18   38 1   
    25   18   39 1   
    26   19   20 1   
    27   19   21 1   
    28   19   42 1   
    29   20   43 1   
    30   20   44 1   
    31   20   45 1   
    32   21   46 1   
    33   21   47 1   
    34   21   48 1   
    35   22   23 1   
    36   22   40 1   
    37   22   41 1   
    38   23   24 1   
    39   23   27 1   
    40   23   49 1   
    41   24   25 1   
    42   24   26 1   
    43   27   28 1   
    44   27   37 1   
    45   28   29 1   
    46   28   30 1   
    47   29   32 1   
    48   30   31 1   
    49   31   32 1   
@<TRIPOS>SUBSTRUCTURE
     1 699         1 TEMP              0 ****  ****    0 ROOT
