@<TRIPOS>MOLECULE
699
   52    54     1     0     0
SMALL
bcc


@<TRIPOS>ATOM
      1 F54        -9.3810   -0.5490    3.1090 f         1 699     -0.256967
      2 C51        -9.2410   -0.4850    1.7420 c3        1 699      0.689200
      3 F52       -10.3840    0.1740    1.3420 f         1 699     -0.256967
      4 F53        -9.4760   -1.7800    1.3390 f         1 699     -0.256967
      5 C2         -7.9440    0.1230    1.2440 ca        1 699     -0.183300
      6 C1         -6.8110    0.1310    2.0600 ca        1 699     -0.105000
      7 C6         -5.6210    0.6950    1.5960 ca        1 699     -0.074000
      8 C3         -7.8930    0.6610   -0.0450 ca        1 699     -0.105000
      9 C4         -6.7060    1.2220   -0.5070 ca        1 699     -0.074000
     10 C5         -5.5680    1.2420    0.3110 ca        1 699     -0.055600
     11 C11        -4.3660    1.9980   -0.1750 c         1 699      0.653700
     12 O13        -4.5250    3.2420   -0.3150 o         1 699     -0.679100
     13 N12        -3.1610    1.4110   -0.4340 n         1 699     -0.406800
     14 C17        -2.8350   -0.0350   -0.5810 c3        1 699      0.001400
     15 C34        -2.7060   -0.7200    0.8310 c         1 699      0.915600
     16 O36        -3.7640   -1.1240    1.3990 o         1 699     -0.838300
     17 O35        -1.5650   -0.8600    1.3450 o         1 699     -0.838300
     18 C33        -3.9210   -0.7650   -1.4000 c3        1 699     -0.072400
     19 C37        -3.7000   -2.2130   -1.8280 c3        1 699     -0.034700
     20 C44        -3.2470   -2.3310   -3.2700 c3        1 699     -0.098600
     21 C40        -2.8040   -3.0110   -0.9100 c3        1 699     -0.098600
     22 C16        -1.4710   -0.0470   -1.3300 c3        1 699     -0.070400
     23 C15        -1.3600    1.3060   -2.0180 c3        1 699     -0.173700
     24 C22         0.0460    1.7320   -2.4690 c         1 699      0.923600
     25 O25         0.1380    2.8150   -3.1230 o         1 699     -0.850800
     26 O24         1.0280    0.9680   -2.2580 o         1 699     -0.850800
     27 C14        -2.0940    2.2510   -1.0370 c3        1 699      0.189000
     28 C20        -1.2110    2.8610   -0.0030 cc        1 699     -0.047400
     29 S29        -0.8160    4.5030   -0.0270 ss        1 699     -0.003800
     30 C26        -0.6310    2.2320    1.0810 cd        1 699     -0.140000
     31 C27         0.1320    3.1420    1.8750 cd        1 699     -0.162000
     32 C28         0.0970    4.4230    1.3650 cc        1 699     -0.223100
     33 H1         -6.8480   -0.3180    3.0630 ha        1 699      0.131000
     34 H3         -8.7890    0.6460   -0.6810 ha        1 699      0.131000
     35 H6         -4.7080    0.6570    2.2190 ha        1 699      0.169500
     36 H4         -6.6570    1.6630   -1.5140 ha        1 699      0.169500
     37 H14        -2.5780    3.0910   -1.6190 h1        1 699      0.066700
     38 H331       -4.8490   -0.7640   -0.7620 hc        1 699      0.033700
     39 H332       -4.1360   -0.1640   -2.3260 hc        1 699      0.033700
     40 H161       -1.4170   -0.8770   -2.0680 hc        1 699      0.071700
     41 H162       -0.6300   -0.1750   -0.5980 hc        1 699      0.071700
     42 H37        -4.7240   -2.6980   -1.7850 hc        1 699      0.010700
     43 H441       -2.2080   -1.9510   -3.4110 hc        1 699      0.034033
     44 H442       -3.9250   -1.7530   -3.9430 hc        1 699      0.034033
     45 H443       -3.2680   -3.4030   -3.5880 hc        1 699      0.034033
     46 H401       -1.7930   -2.5430   -0.8190 hc        1 699      0.034033
     47 H402       -2.6870   -4.0520   -1.2980 hc        1 699      0.034033
     48 H403       -3.2500   -3.0470    0.1170 hc        1 699      0.034033
     49 H15        -1.9720    1.2840   -2.9660 hc        1 699      0.025700
     50 H26        -0.7370    1.1580    1.3020 ha        1 699      0.212000
     51 H28         0.6080    5.2850    1.7840 h4        1 699      0.132000
     52 H27         0.6720    2.8340    2.7710 ha        1 699      0.124000
@<TRIPOS>BOND
     1    1    2 1   
     2    2    3 1   
     3    2    4 1   
     4    2    5 1   
     5    5    6 ar  
     6    5    8 ar  
     7    6    7 ar  
     8    6   33 1   
     9    7   10 ar  
    10    7   35 1   
    11    8    9 ar  
    12    8   34 1   
    13    9   10 ar  
    14    9   36 1   
    15   10   11 1   
    16   11   12 2   
    17   11   13 1   
    18   13   14 1   
    19   13   27 1   
    20   14   15 1   
    21   14   18 1   
    22   14   22 1   
    23   15   16 1   
    24   15   17 1   
    25   18   19 1   
    26   18   38 1   
    27   18   39 1   
    28   19   20 1   
    29   19   21 1   
    30   19   42 1   
    31   20   43 1   
    32   20   44 1   
    33   20   45 1   
    34   21   46 1   
    35   21   47 1   
    36   21   48 1   
    37   22   23 1   
    38   22   40 1   
    39   22   41 1   
    40   23   24 1   
    41   23   27 1   
    42   23   49 1   
    43   24   25 1   
    44   24   26 1   
    45   27   28 1   
    46   27   37 1   
    47   28   29 1   
    48   28   30 2   
    49   29   32 1   
    50   30   31 1   
    51   30   50 1   
    52   31   32 2   
    53   31   52 1   
    54   32   51 1   
@<TRIPOS>SUBSTRUCTURE
     1 699         1 TEMP              0 ****  ****    0 ROOT
