@<TRIPOS>MOLECULE
69P
   27    22     1     0     0
SMALL
bcc


@<TRIPOS>ATOM
      1 N1          1.5470    0.7390   -1.1770 n1        1 69P     -0.164000
      2 C2          2.8670    0.6830   -1.2140 c1        1 69P     -0.016000
      3 N3          3.5650    0.0930   -0.1720 n1        1 69P     -0.163000
      4 C4          2.8930   -0.4300    0.8920 c1        1 69P     -0.083000
      5 C5          1.5910   -0.3750    0.9310 c1        1 69P     -0.083000
      6 C6          0.8820    0.2250   -0.1310 c1        1 69P      0.177000
      7 N6         -0.4290    0.4550   -0.6980 n3        1 69P     -0.226000
      8 N7          1.1810   -0.9650    2.0890 n1        1 69P     -0.171000
      9 C8          2.2620   -1.3750    2.7450 c1        1 69P     -0.036000
     10 N9          3.3240   -1.0540    2.0260 n1        1 69P     -0.171000
     11 CBV        -2.4790   -0.6300   -1.4910 c3        1 69P     -0.073000
     12 CBW        -2.6580    1.3950   -0.2340 c3        1 69P     -0.073000
     13 CBX        -1.0350   -0.7940   -1.0270 c3        1 69P     -0.058000
     14 CBY        -1.2200    1.2320    0.2270 c3        1 69P     -0.058000
     15 NDM        -3.2680    0.1510   -0.5620 n3        1 69P     -0.298000
     16 H2          3.3680    1.0690   -2.0040 ha        1 69P      0.196000
     17 H8          2.2670   -1.8720    3.5450 DU        1 69P      0.239000
     18 HN9         4.2000   -1.2240    2.2490 DU        1 69P      0.239000
     19 HBV        -2.4820   -0.2140   -2.3030 h1        1 69P      0.075500
     20 HBVA       -2.8810   -1.5050   -1.5870 h1        1 69P      0.075500
     21 HBW        -2.6740    1.9870   -1.0430 h1        1 69P      0.075500
     22 HBWA       -3.1090    1.7710    0.3960 h1        1 69P      0.075500
     23 HBX        -0.5200   -1.2160   -1.7360 h1        1 69P      0.091000
     24 HBXA       -1.0200   -1.4030   -0.1950 h1        1 69P      0.091000
     25 HBY        -0.8020    2.1520    0.3310 h1        1 69P      0.091000
     26 HBYA       -1.2160    0.7930    1.0800 h1        1 69P      0.091000
     27 HNDM       -4.1540    0.3110   -0.9360 hn        1 69P      0.158000
@<TRIPOS>BOND
     1    1    6 1   
     2    2    3 1   
     3    2   16 1   
     4    4    5 1   
     5    6    7 1   
     6    7   13 1   
     7    7   14 1   
     8    8    9 1   
     9    9   10 1   
    10   11   13 1   
    11   11   15 1   
    12   11   19 1   
    13   11   20 1   
    14   12   14 1   
    15   12   15 1   
    16   12   21 1   
    17   12   22 1   
    18   13   23 1   
    19   13   24 1   
    20   14   25 1   
    21   14   26 1   
    22   15   27 1   
@<TRIPOS>SUBSTRUCTURE
     1 69P         1 TEMP              0 ****  ****    0 ROOT
