@<TRIPOS>MOLECULE
69P
   27    29     1     0     0
SMALL
bcc


@<TRIPOS>ATOM
      1 N1          0.1330    0.1120   -0.0620 nb        1 69P     -0.780000
      2 C2          1.4760   -0.0720    0.0480 ca        1 69P      0.675900
      3 N3          2.2460   -0.1750    1.1540 nb        1 69P     -0.719000
      4 C4          1.5160   -0.0810    2.3040 ca        1 69P      0.437800
      5 C5          0.0640    0.1170    2.3440 ca        1 69P     -0.188200
      6 C6         -0.6170    0.2000    1.0820 ca        1 69P      0.733200
      7 N6         -2.0200    0.2670    1.0180 nh        1 69P     -0.730300
      8 N7         -0.3600    0.1500    3.6810 nc        1 69P     -0.539100
      9 C8          0.7510   -0.0130    4.4150 cd        1 69P      0.404700
     10 N9          1.9210   -0.1590    3.6420 na        1 69P     -0.380000
     11 CBV        -4.1630   -0.1100   -0.2000 c3        1 69P      0.155800
     12 CBW        -4.2050    1.0580    1.9120 c3        1 69P      0.155800
     13 CBX        -2.6360    0.0950   -0.2920 c3        1 69P      0.191300
     14 CBY        -2.6800    1.2790    1.8310 c3        1 69P      0.191300
     15 NDM        -4.8210    0.8940    0.6110 n3        1 69P     -0.821200
     16 H2          2.0180   -0.1390   -0.9210 h5        1 69P      0.054100
     17 H8          0.7860   -0.0400    5.5110 h5        1 69P      0.073800
     18 HN9         2.8430   -0.2890    3.9630 hn        1 69P      0.319700
     19 HBV        -4.3580   -1.1570    0.1750 h1        1 69P      0.038700
     20 HBVA       -4.5780   -0.0330   -1.2440 h1        1 69P      0.038700
     21 HBW        -4.6540    1.9730    2.3910 h1        1 69P      0.038700
     22 HBWA       -4.4000    0.1780    2.5930 h1        1 69P      0.038700
     23 HBX        -2.4250    0.9830   -0.9550 h1        1 69P      0.061200
     24 HBXA       -2.2030   -0.8230   -0.7800 h1        1 69P      0.061200
     25 HBY        -2.2860    1.2550    2.8820 h1        1 69P      0.061200
     26 HBYA       -2.4860    2.3050    1.4020 h1        1 69P      0.061200
     27 HNDM       -5.7940    0.6700    0.7150 hn        1 69P      0.365800
@<TRIPOS>BOND
     1    1    2 ar  
     2    1    6 ar  
     3    2    3 ar  
     4    2   16 1   
     5    3    4 ar  
     6    4    5 ar  
     7    4   10 1   
     8    5    6 ar  
     9    5    8 1   
    10    6    7 1   
    11    7   13 1   
    12    7   14 1   
    13    8    9 2   
    14    9   10 1   
    15    9   17 1   
    16   10   18 1   
    17   11   13 1   
    18   11   15 1   
    19   11   19 1   
    20   11   20 1   
    21   12   14 1   
    22   12   15 1   
    23   12   21 1   
    24   12   22 1   
    25   13   23 1   
    26   13   24 1   
    27   14   25 1   
    28   14   26 1   
    29   15   27 1   
@<TRIPOS>SUBSTRUCTURE
     1 69P         1 TEMP              0 ****  ****    0 ROOT
