@<TRIPOS>MOLECULE
69P
   27    29     1     0     0
SMALL
bcc


@<TRIPOS>ATOM
      1 N1          0.1340    0.1210   -0.0630 nb        1 69P     -0.780000
      2 C2          1.4780   -0.0570    0.0470 ca        1 69P      0.675900
      3 N3          2.2480   -0.1580    1.1530 nb        1 69P     -0.719000
      4 C4          1.5170   -0.0690    2.3040 ca        1 69P      0.437800
      5 C5          0.0650    0.1230    2.3440 ca        1 69P     -0.188200
      6 C6         -0.6160    0.2050    1.0810 ca        1 69P      0.733200
      7 N6         -2.0190    0.2650    1.0180 nh        1 69P     -0.730300
      8 N7         -0.3590    0.1520    3.6810 nc        1 69P     -0.539100
      9 C8          0.7530   -0.0070    4.4140 cd        1 69P      0.404700
     10 N9          1.9230   -0.1470    3.6400 na        1 69P     -0.380000
     11 CBV        -4.1610   -0.1180   -0.2010 c3        1 69P      0.155800
     12 CBW        -4.2090    1.0440    1.9140 c3        1 69P      0.155800
     13 CBX        -2.6350    0.0930   -0.2930 c3        1 69P      0.191300
     14 CBY        -2.6840    1.2730    1.8330 c3        1 69P      0.191300
     15 NDM        -4.8240    0.8800    0.6120 n7        1 69P     -0.821200
     16 H2          2.0200   -0.1200   -0.9220 h5        1 69P      0.054100
     17 H8          0.7880   -0.0350    5.5100 h5        1 69P      0.073800
     18 HN9         2.8460   -0.2730    3.9620 hn        1 69P      0.319700
     19 HBV        -4.3510   -1.1670    0.1710 h1        1 69P      0.038950
     20 HBVA       -4.5760   -0.0410   -1.2440 h1        1 69P      0.038950
     21 HBW        -4.3990    0.1630    2.5930 h1        1 69P      0.038950
     22 HBWA       -4.6610    1.9570    2.3940 h1        1 69P      0.038950
     23 HBX        -2.4280    0.9840   -0.9540 h1        1 69P      0.061200
     24 HBXA       -2.1980   -0.8210   -0.7830 h1        1 69P      0.061200
     25 HBY        -2.4950    2.3010    1.4060 h1        1 69P      0.061200
     26 HBYA       -2.2910    1.2480    2.8840 h1        1 69P      0.061200
     27 HNDM       -5.7950    0.6520    0.7160 hn        1 69P      0.365800
@<TRIPOS>BOND
     1    1    2 ar  
     2    1    6 ar  
     3    2    3 ar  
     4    2   16 1   
     5    3    4 ar  
     6    4    5 ar  
     7    4   10 1   
     8    5    6 ar  
     9    5    8 1   
    10    6    7 1   
    11    7   13 1   
    12    7   14 1   
    13    8    9 2   
    14    9   10 1   
    15    9   17 1   
    16   10   18 1   
    17   11   13 1   
    18   11   15 1   
    19   11   19 1   
    20   11   20 1   
    21   12   14 1   
    22   12   15 1   
    23   12   21 1   
    24   12   22 1   
    25   13   23 1   
    26   13   24 1   
    27   14   25 1   
    28   14   26 1   
    29   15   27 1   
@<TRIPOS>SUBSTRUCTURE
     1 69P         1 TEMP              0 ****  ****    0 ROOT
