@<TRIPOS>MOLECULE
69P
   27    29     1     0     0
SMALL
bcc


@<TRIPOS>ATOM
      1 N1         -0.4680   -1.9020    0.1760 nb        1 69P     -0.782000
      2 C2         -1.7720   -2.2870    0.1910 ca        1 69P      0.676900
      3 N3         -2.8950   -1.5370    0.1190 nb        1 69P     -0.719000
      4 C4         -2.6210   -0.2030    0.0120 ca        1 69P      0.438800
      5 C5         -1.2680    0.3600   -0.0160 ca        1 69P     -0.188200
      6 C6         -0.1740   -0.5680    0.0580 ca        1 69P      0.733200
      7 N6          1.1580   -0.1400   -0.0860 nh        1 69P     -0.728300
      8 N7         -1.3540    1.7540   -0.1480 nc        1 69P     -0.541100
      9 C8         -2.6650    2.0320   -0.1960 cd        1 69P      0.405700
     10 N9         -3.4860    0.8900   -0.1040 na        1 69P     -0.380000
     11 CBV         3.5530   -0.6060   -0.6200 c3        1 69P      0.145300
     12 CBW         2.9760    1.5300    0.2820 c3        1 69P      0.145300
     13 CBX         2.1740   -1.1770   -0.2230 c3        1 69P      0.153800
     14 CBY         1.5800    1.0100    0.6990 c3        1 69P      0.153800
     15 NDM         4.0040    0.5180    0.1740 n3        1 69P     -0.797200
     16 H2         -1.9330   -3.3830    0.2830 h5        1 69P      0.054100
     17 H8         -3.0940    3.0360   -0.3000 h5        1 69P      0.074800
     18 HN9        -4.4710    0.8540   -0.1190 hn        1 69P      0.319700
     19 HBV         4.3040   -1.4390   -0.5410 h1        1 69P      0.063200
     20 HBVA        3.5140   -0.2670   -1.6940 h1        1 69P      0.063200
     21 HBW         2.8900    2.0370   -0.7200 h1        1 69P      0.063200
     22 HBWA        3.2920    2.2990    1.0400 h1        1 69P      0.063200
     23 HBX         2.2810   -1.7620    0.7360 h1        1 69P      0.057700
     24 HBXA        1.8520   -1.8900   -1.0320 h1        1 69P      0.057700
     25 HBY         0.8580    1.8580    0.5610 h1        1 69P      0.057700
     26 HBYA        1.6040    0.7420    1.7950 h1        1 69P      0.057700
     27 HNDM        4.2770    0.2040    1.0890 hn        1 69P      0.350800
@<TRIPOS>BOND
     1    1    2 ar  
     2    1    6 ar  
     3    2    3 ar  
     4    2   16 1   
     5    3    4 ar  
     6    4    5 ar  
     7    4   10 1   
     8    5    6 ar  
     9    5    8 1   
    10    6    7 1   
    11    7   13 1   
    12    7   14 1   
    13    8    9 2   
    14    9   10 1   
    15    9   17 1   
    16   10   18 1   
    17   11   13 1   
    18   11   15 1   
    19   11   19 1   
    20   11   20 1   
    21   12   14 1   
    22   12   15 1   
    23   12   21 1   
    24   12   22 1   
    25   13   23 1   
    26   13   24 1   
    27   14   25 1   
    28   14   26 1   
    29   15   27 1   
@<TRIPOS>SUBSTRUCTURE
     1 69P         1 TEMP              0 ****  ****    0 ROOT
