@<TRIPOS>MOLECULE
6A1
   51    47     1     0     0
SMALL
bcc


@<TRIPOS>ATOM
      1 CAA        -6.6270   -0.9040   -1.1600 c3        1 6A1     -0.081000
      2 OAP        -5.4200   -0.2170   -1.0620 os        1 6A1     -0.206000
      3 CAQ        -4.7990   -0.3440    0.1780 c2        1 6A1      0.093000
      4 CAK        -3.4460   -0.5440   -0.1200 c2        1 6A1     -0.157000
      5 CAF        -5.1680    0.3200    1.3570 c1        1 6A1     -0.160000
      6 CAI        -4.1860    0.7820    2.2340 c1        1 6A1     -0.099000
      7 CAV        -2.8280    0.5820    1.9370 c1        1 6A1      0.046000
      8 CAU        -2.4600   -0.0810    0.7590 c1        1 6A1     -0.053000
      9 CAS        -1.0880   -0.2340    0.4310 c2        1 6A1      0.025000
     10 OAD        -1.0350   -0.7970   -0.8600 oh        1 6A1     -0.325000
     11 CAW        -0.1120    0.2740    1.2770 c1        1 6A1     -0.061000
     12 CAX        -0.4920    0.9660    2.4750 c1        1 6A1     -0.124000
     13 NAY        -1.8300    1.1010    2.8010 n2        1 6A1     -0.076000
     14 CAJ        -1.9340    1.1240    4.2070 c1        1 6A1     -0.077000
     15 NAN        -0.6600    0.9050    4.7390 n2        1 6A1     -0.095000
     16 CAT         0.2270    0.7480    3.6780 c1        1 6A1     -0.077000
     17 CAH         1.6770    0.2040    3.6260 c2        1 6A1     -0.089000
     18 CAG         2.1930   -0.3450    2.3360 c3        1 6A1     -0.158000
     19 CAR         1.3210   -0.2730    1.1250 c2        1 6A1      0.032000
     20 NAO         2.0260    0.5830    0.1150 n3        1 6A1     -0.301000
     21 CAL         2.9260   -0.2440   -0.6830 c3        1 6A1     -0.073000
     22 CAM         3.6180    0.6210   -1.7320 c3        1 6A1     -0.151000
     23 NAZ         3.6880   -0.1160   -3.0150 n4        1 6A1      0.143000
     24 CAB         2.5700    0.2600   -3.8470 c3        1 6A1     -0.177500
     25 CAC         4.9610    0.2170   -3.7120 c3        1 6A1     -0.177500
     26 OAE         3.6420   -1.4680   -2.7700 oh        1 6A1     -0.238000
     27 H1         -6.8360   -1.0610   -2.0990 h1        1 6A1      0.095333
     28 H2         -6.5530   -1.7590   -0.6950 h1        1 6A1      0.095333
     29 H3         -7.3380   -0.3730   -0.7540 h1        1 6A1      0.095333
     30 H4         -3.1900   -0.9240   -0.9790 ha        1 6A1      0.147000
     31 H5         -6.1240    0.3900    1.6050 ha        1 6A1      0.160000
     32 H6         -4.4420    1.2410    3.0520 ha        1 6A1      0.156000
     33 H7         -0.9550   -1.6770   -0.7940 ho        1 6A1      0.244000
     34 H8         -2.7570    1.2370    4.7180 DU        1 6A1      0.215000
     35 H9          2.2730    0.9300    3.8960 ha        1 6A1      0.111500
     36 H10         1.7490   -0.5100    4.3010 ha        1 6A1      0.111500
     37 H11         3.0320    0.1300    2.1250 hc        1 6A1      0.109000
     38 H12         2.4160   -1.2960    2.4860 hc        1 6A1      0.109000
     39 H13         1.2530   -1.1810    0.7530 h4        1 6A1      0.104000
     40 H14         1.3980    0.9870   -0.4440 hn        1 6A1      0.196000
     41 H16         2.4130   -0.9490   -1.1290 h1        1 6A1      0.091000
     42 H17         3.6010   -0.6500   -0.0990 h1        1 6A1      0.091000
     43 H18         4.5260    0.8400   -1.4290 hx        1 6A1      0.160000
     44 H19         3.1050    1.4540   -1.8600 hx        1 6A1      0.160000
     45 H20         1.7260   -0.0500   -3.4250 hx        1 6A1      0.147000
     46 H21         2.6660   -0.1570   -4.7360 hx        1 6A1      0.147000
     47 H22         2.5480    1.2390   -3.9440 hx        1 6A1      0.147000
     48 H23         5.7280   -0.0830   -3.1600 hx        1 6A1      0.147000
     49 H24         4.9870   -0.2430   -4.5960 hx        1 6A1      0.147000
     50 H25         5.0160    1.1850   -3.8460 hx        1 6A1      0.147000
     51 H26         2.9940   -1.8370   -3.2590 ho        1 6A1      0.282000
@<TRIPOS>BOND
     1    1    2 1   
     2    1   27 1   
     3    1   28 1   
     4    1   29 1   
     5    2    3 1   
     6    3    4 1   
     7    3    5 1   
     8    4    8 1   
     9    4   30 1   
    10    5   31 1   
    11    6    7 1   
    12    6   32 1   
    13    7   13 1   
    14    8    9 1   
    15    9   10 1   
    16    9   11 1   
    17   10   33 1   
    18   11   12 1   
    19   12   13 1   
    20   14   15 1   
    21   15   16 1   
    22   17   18 1   
    23   17   35 1   
    24   17   36 1   
    25   18   19 1   
    26   18   37 1   
    27   18   38 1   
    28   19   20 1   
    29   19   39 1   
    30   20   21 1   
    31   20   40 1   
    32   21   22 1   
    33   21   41 1   
    34   21   42 1   
    35   22   23 1   
    36   22   43 1   
    37   22   44 1   
    38   23   24 1   
    39   23   25 1   
    40   23   26 1   
    41   24   45 1   
    42   24   46 1   
    43   24   47 1   
    44   25   48 1   
    45   25   49 1   
    46   25   50 1   
    47   26   51 1   
@<TRIPOS>SUBSTRUCTURE
     1 6A1         1 TEMP              0 ****  ****    0 ROOT
