@<TRIPOS>MOLECULE
6A1
   52    55     1     0     0
SMALL
bcc


@<TRIPOS>ATOM
      1 CAA         0.1170   -0.0520   -0.2110 c3        1 6A1      0.104700
      2 OAP         1.5270    0.1310   -0.0540 os        1 6A1     -0.317900
      3 CAQ         2.0230    0.0460    1.2220 ca        1 6A1      0.154100
      4 CAK         3.4170    0.1340    1.3180 ca        1 6A1     -0.160000
      5 CAF         1.2340   -0.1060    2.3800 ca        1 6A1     -0.135000
      6 CAI         1.8370   -0.1530    3.6230 ca        1 6A1     -0.096000
      7 CAV         3.2440   -0.0590    3.7440 ca        1 6A1      0.036700
      8 CAU         4.0490    0.0710    2.5680 ca        1 6A1     -0.080000
      9 CAS         5.5000    0.1240    2.6780 cc        1 6A1      0.135100
     10 OAD         6.2760    0.2570    1.5380 oh        1 6A1     -0.593100
     11 CAW         6.1220    0.0980    3.9000 cd        1 6A1     -0.140300
     12 CAX         5.2850   -0.0030    5.0480 cd        1 6A1     -0.154300
     13 NAY         3.8790   -0.0880    4.9880 na        1 6A1     -0.062200
     14 CAJ         3.4570   -0.2380    6.3220 cd        1 6A1      0.411700
     15 NAN         4.5080   -0.2470    7.1840 nc        1 6A1     -0.498300
     16 CAT         5.6500   -0.1090    6.4090 cc        1 6A1      0.050400
     17 CAH         7.0790   -0.0980    6.7720 c3        1 6A1      0.004800
     18 CAG         7.8820    0.5840    5.6650 c3        1 6A1     -0.097400
     19 CAR         7.5780    0.0360    4.2530 c3        1 6A1      0.217800
     20 NAO         8.4400    0.7350    3.2090 n4        1 6A1     -0.766000
     21 CAL         8.1540    2.1920    3.1110 c3        1 6A1      0.087800
     22 CAM         8.4480    2.7440    1.7020 c3        1 6A1      0.111800
     23 NAZ         8.3380    4.2560    1.6200 n4        1 6A1     -0.382300
     24 CAB         8.8310    4.7100    0.2690 c3        1 6A1      0.072100
     25 CAC         6.9210    4.7120    1.8330 c3        1 6A1      0.072100
     26 OAE         9.1440    4.7330    2.6110 oh        1 6A1     -0.385300
     27 H1         -0.1940   -1.0550    0.1680 h1        1 6A1      0.065700
     28 H2         -0.4400    0.7650    0.3060 h1        1 6A1      0.065700
     29 H3         -0.0210    0.0130   -1.3220 h1        1 6A1      0.065700
     30 H4          3.9930    0.2570    0.3900 ha        1 6A1      0.147000
     31 H5          0.1370   -0.1870    2.3030 ha        1 6A1      0.176000
     32 H6          1.2140   -0.2680    4.5260 ha        1 6A1      0.169000
     33 H7          5.8710   -0.2840    0.8370 ho        1 6A1      0.473000
     34 H8          2.4020   -0.3340    6.6090 h5        1 6A1      0.102800
     35 H9          7.2520    0.4560    7.7360 hc        1 6A1      0.099200
     36 H10         7.4370   -1.1530    6.9230 hc        1 6A1      0.099200
     37 H11         7.6540    1.6820    5.6930 hc        1 6A1      0.064700
     38 H12         8.9730    0.4400    5.8870 hc        1 6A1      0.064700
     39 H13         7.9050   -1.0540    4.2100 hx        1 6A1      0.129700
     40 H14         8.2430    0.2810    2.3030 hn        1 6A1      0.466300
     41 H16         8.7710    2.7320    3.8890 hx        1 6A1      0.135700
     42 H17         7.0570    2.3410    3.3500 hx        1 6A1      0.135700
     43 H18         7.7060    2.3230    0.9600 hx        1 6A1      0.127700
     44 H19         9.5000    2.4800    1.3870 hx        1 6A1      0.127700
     45 H20         8.6960    5.8230    0.1870 hx        1 6A1      0.123867
     46 H21         8.2280    4.1940   -0.5250 hx        1 6A1      0.123867
     47 H22         9.9200    4.4540    0.1670 hx        1 6A1      0.123867
     48 H23         6.6060    4.4700    2.8830 hx        1 6A1      0.123867
     49 H24         6.2590    4.1930    1.0900 hx        1 6A1      0.123867
     50 H25         6.8670    5.8250    1.6770 hx        1 6A1      0.123867
     51 H26         9.1920    5.7150    2.5450 ho        1 6A1      0.488000
     52 HAO2        9.4260    0.5910    3.4520 hn        1 6A1      0.466300
@<TRIPOS>BOND
     1    1    2 1   
     2    1   27 1   
     3    1   28 1   
     4    1   29 1   
     5    2    3 1   
     6    3    4 ar  
     7    3    5 ar  
     8    4    8 ar  
     9    4   30 1   
    10    5    6 ar  
    11    5   31 1   
    12    6    7 ar  
    13    6   32 1   
    14    7    8 ar  
    15    7   13 1   
    16    8    9 1   
    17    9   10 1   
    18    9   11 2   
    19   10   33 1   
    20   11   12 1   
    21   11   19 1   
    22   12   13 1   
    23   12   16 2   
    24   13   14 1   
    25   14   15 2   
    26   14   34 1   
    27   15   16 1   
    28   16   17 1   
    29   17   18 1   
    30   17   35 1   
    31   17   36 1   
    32   18   19 1   
    33   18   37 1   
    34   18   38 1   
    35   19   20 1   
    36   19   39 1   
    37   20   21 1   
    38   20   40 1   
    39   20   52 1   
    40   21   22 1   
    41   21   41 1   
    42   21   42 1   
    43   22   23 1   
    44   22   43 1   
    45   22   44 1   
    46   23   24 1   
    47   23   25 1   
    48   23   26 1   
    49   24   45 1   
    50   24   46 1   
    51   24   47 1   
    52   25   48 1   
    53   25   49 1   
    54   25   50 1   
    55   26   51 1   
@<TRIPOS>SUBSTRUCTURE
     1 6A1         1 TEMP              0 ****  ****    0 ROOT
