@<TRIPOS>MOLECULE
6A1
   52    55     1     0     0
SMALL
bcc


@<TRIPOS>ATOM
      1 CAA         0.1190   -0.0450   -0.2190 c3        1 6A1      0.104700
      2 OAP         1.5290    0.1360   -0.0600 os        1 6A1     -0.317900
      3 CAQ         2.0240    0.0500    1.2170 ca        1 6A1      0.154100
      4 CAK         3.4170    0.1370    1.3150 ca        1 6A1     -0.160000
      5 CAF         1.2330   -0.1010    2.3740 ca        1 6A1     -0.135000
      6 CAI         1.8350   -0.1500    3.6170 ca        1 6A1     -0.096000
      7 CAV         3.2420   -0.0580    3.7400 ca        1 6A1      0.036700
      8 CAU         4.0480    0.0720    2.5660 ca        1 6A1     -0.080000
      9 CAS         5.4990    0.1250    2.6770 cc        1 6A1      0.135100
     10 OAD         6.2760    0.2570    1.5380 oh        1 6A1     -0.593100
     11 CAW         6.1190    0.0970    3.9000 cd        1 6A1     -0.140300
     12 CAX         5.2810   -0.0040    5.0460 cd        1 6A1     -0.154300
     13 NAY         3.8750   -0.0880    4.9850 na        1 6A1     -0.062200
     14 CAJ         3.4520   -0.2390    6.3180 cd        1 6A1      0.411700
     15 NAN         4.5010   -0.2490    7.1820 nc        1 6A1     -0.498300
     16 CAT         5.6450   -0.1110    6.4080 cc        1 6A1      0.050400
     17 CAH         7.0730   -0.1010    6.7730 c3        1 6A1      0.004800
     18 CAG         7.8780    0.5800    5.6670 c3        1 6A1     -0.097400
     19 CAR         7.5750    0.0340    4.2550 c3        1 6A1      0.217800
     20 NAO         8.4390    0.7330    3.2120 ny        1 6A1     -0.766000
     21 CAL         8.1550    2.1890    3.1140 c3        1 6A1      0.087800
     22 CAM         8.4510    2.7420    1.7060 c3        1 6A1      0.111800
     23 NAZ         8.3420    4.2540    1.6250 n4        1 6A1     -0.382300
     24 CAB         8.8380    4.7080    0.2750 c3        1 6A1      0.072100
     25 CAC         6.9250    4.7120    1.8350 c3        1 6A1      0.072100
     26 OAE         9.1470    4.7300    2.6180 oh        1 6A1     -0.385300
     27 H1         -0.0170    0.0210   -1.3290 h1        1 6A1      0.065700
     28 H2         -0.4380    0.7720    0.2990 h1        1 6A1      0.065700
     29 H3         -0.1930   -1.0480    0.1600 h1        1 6A1      0.065700
     30 H4          3.9950    0.2600    0.3870 ha        1 6A1      0.147000
     31 H5          0.1360   -0.1820    2.2960 ha        1 6A1      0.176000
     32 H6          1.2100   -0.2660    4.5190 ha        1 6A1      0.169000
     33 H7          5.8720   -0.2820    0.8360 ho        1 6A1      0.473000
     34 H8          2.3950   -0.3340    6.6040 h5        1 6A1      0.102800
     35 H9          7.4290   -1.1570    6.9240 hc        1 6A1      0.099200
     36 H10         7.2450    0.4520    7.7370 hc        1 6A1      0.099200
     37 H11         7.6510    1.6790    5.6960 hc        1 6A1      0.064700
     38 H12         8.9690    0.4350    5.8910 hc        1 6A1      0.064700
     39 H13         7.9010   -1.0560    4.2120 hx        1 6A1      0.129700
     40 H14         9.4250    0.5880    3.4570 hn        1 6A1      0.466300
     41 H16         7.0570    2.3390    3.3520 hx        1 6A1      0.135700
     42 H17         8.7700    2.7290    3.8940 hx        1 6A1      0.135700
     43 H18         7.7100    2.3220    0.9630 hx        1 6A1      0.127700
     44 H19         9.5030    2.4780    1.3930 hx        1 6A1      0.127700
     45 H20         9.9280    4.4520    0.1750 hx        1 6A1      0.123867
     46 H21         8.7040    5.8220    0.1930 hx        1 6A1      0.123867
     47 H22         8.2370    4.1930   -0.5210 hx        1 6A1      0.123867
     48 H23         6.8720    5.8240    1.6810 hx        1 6A1      0.123867
     49 H24         6.6080    4.4680    2.8840 hx        1 6A1      0.123867
     50 H25         6.2640    4.1930    1.0910 hx        1 6A1      0.123867
     51 H26         9.1950    5.7120    2.5520 ho        1 6A1      0.488000
     52 HAO2        8.2420    0.2790    2.3050 hn        1 6A1      0.466300
@<TRIPOS>BOND
     1    1    2 1   
     2    1   27 1   
     3    1   28 1   
     4    1   29 1   
     5    2    3 1   
     6    3    4 ar  
     7    3    5 ar  
     8    4    8 ar  
     9    4   30 1   
    10    5    6 ar  
    11    5   31 1   
    12    6    7 ar  
    13    6   32 1   
    14    7    8 ar  
    15    7   13 1   
    16    8    9 1   
    17    9   10 1   
    18    9   11 2   
    19   10   33 1   
    20   11   12 1   
    21   11   19 1   
    22   12   13 1   
    23   12   16 2   
    24   13   14 1   
    25   14   15 2   
    26   14   34 1   
    27   15   16 1   
    28   16   17 1   
    29   17   18 1   
    30   17   35 1   
    31   17   36 1   
    32   18   19 1   
    33   18   37 1   
    34   18   38 1   
    35   19   20 1   
    36   19   39 1   
    37   20   21 1   
    38   20   40 1   
    39   20   52 1   
    40   21   22 1   
    41   21   41 1   
    42   21   42 1   
    43   22   23 1   
    44   22   43 1   
    45   22   44 1   
    46   23   24 1   
    47   23   25 1   
    48   23   26 1   
    49   24   45 1   
    50   24   46 1   
    51   24   47 1   
    52   25   48 1   
    53   25   49 1   
    54   25   50 1   
    55   26   51 1   
@<TRIPOS>SUBSTRUCTURE
     1 6A1         1 TEMP              0 ****  ****    0 ROOT
