@<TRIPOS>MOLECULE
6A1
   51    54     1     0     0
SMALL
bcc


@<TRIPOS>ATOM
      1 CAA         4.8230   -3.6790    0.4490 c3        1 6A1      0.108700
      2 OAP         3.4950   -3.3570    0.0390 os        1 6A1     -0.325900
      3 CAQ         3.1100   -2.0430    0.1910 ca        1 6A1      0.123100
      4 CAK         1.8790   -1.7180   -0.3890 ca        1 6A1     -0.137000
      5 CAF         3.8530   -1.0730    0.8870 ca        1 6A1     -0.159000
      6 CAI         3.3620    0.2170    1.0060 ca        1 6A1     -0.106000
      7 CAV         2.1180    0.5650    0.4360 ca        1 6A1      0.016700
      8 CAU         1.3650   -0.4200   -0.2740 ca        1 6A1     -0.044000
      9 CAS         0.0820   -0.0750   -0.8800 cc        1 6A1      0.090100
     10 OAD        -0.5480   -1.1200   -1.5320 oh        1 6A1     -0.544100
     11 CAW        -0.4530    1.1770   -0.7470 cd        1 6A1     -0.082300
     12 CAX         0.3380    2.1380   -0.0490 cd        1 6A1     -0.138300
     13 NAY         1.5890    1.8540    0.5370 na        1 6A1     -0.069200
     14 CAJ         2.0400    3.0720    1.0730 cd        1 6A1      0.380700
     15 NAN         1.1500    4.0760    0.8610 nc        1 6A1     -0.523300
     16 CAT         0.0900    3.5140    0.1610 cc        1 6A1      0.047400
     17 CAH        -1.1510    4.1020   -0.3770 c3        1 6A1      0.002800
     18 CAG        -2.1950    3.0060   -0.5490 c3        1 6A1     -0.105400
     19 CAR        -1.7220    1.7510   -1.3310 c3        1 6A1      0.232800
     20 NAO        -2.7820    0.7580   -1.4920 n3        1 6A1     -0.843200
     21 CAL        -3.2430    0.1290   -0.2740 c3        1 6A1      0.159800
     22 CAM        -3.4510   -1.3840   -0.5260 c3        1 6A1      0.133800
     23 NAZ        -3.2920   -2.2460    0.7200 n4        1 6A1     -0.386300
     24 CAB        -3.5840   -3.6750    0.3570 c3        1 6A1      0.069600
     25 CAC        -1.9070   -2.1370    1.2890 c3        1 6A1      0.069600
     26 OAE        -4.2180   -1.7910    1.6110 oh        1 6A1     -0.375300
     27 H1          4.9250   -3.5710    1.5560 h1        1 6A1      0.054367
     28 H2          4.9320   -4.7510    0.1440 h1        1 6A1      0.054367
     29 H3          5.5680   -3.0390   -0.0830 h1        1 6A1      0.054367
     30 H4          1.3210   -2.4820   -0.9530 ha        1 6A1      0.162000
     31 H5          4.8260   -1.3250    1.3340 ha        1 6A1      0.158000
     32 H6          3.9520    0.9740    1.5470 ha        1 6A1      0.154000
     33 H7         -0.8720   -0.7720   -2.3790 ho        1 6A1      0.444000
     34 H8          2.9970    3.1730    1.5970 h5        1 6A1      0.084800
     35 H9         -1.5560    4.8940    0.3080 hc        1 6A1      0.076200
     36 H10        -0.9320    4.5900   -1.3650 hc        1 6A1      0.076200
     37 H11        -2.5450    2.6840    0.4670 hc        1 6A1      0.050200
     38 H12        -3.0730    3.4460   -1.0920 hc        1 6A1      0.050200
     39 H13        -1.4640    2.0860   -2.3860 h1        1 6A1      0.090700
     40 H14        -3.5490    1.1570   -1.9990 hn        1 6A1      0.390800
     41 H16        -2.4800    0.2800    0.5420 h1        1 6A1      0.066200
     42 H17        -4.2210    0.5510    0.0970 h1        1 6A1      0.066200
     43 H18        -4.4950   -1.5580   -0.9080 hx        1 6A1      0.114200
     44 H19        -2.6930   -1.7820   -1.2610 hx        1 6A1      0.114200
     45 H20        -2.8320   -4.0070   -0.4070 hx        1 6A1      0.113867
     46 H21        -3.5090   -4.3140    1.2750 hx        1 6A1      0.113867
     47 H22        -4.6230   -3.7410   -0.0630 hx        1 6A1      0.113867
     48 H23        -1.8290   -1.1960    1.8980 hx        1 6A1      0.113867
     49 H24        -1.7030   -3.0250    1.9430 hx        1 6A1      0.113867
     50 H25        -1.1660   -2.0970    0.4410 hx        1 6A1      0.113867
     51 H26        -4.1330   -2.3030    2.4440 ho        1 6A1      0.457000
@<TRIPOS>BOND
     1    1    2 1   
     2    1   27 1   
     3    1   28 1   
     4    1   29 1   
     5    2    3 1   
     6    3    4 ar  
     7    3    5 ar  
     8    4    8 ar  
     9    4   30 1   
    10    5    6 ar  
    11    5   31 1   
    12    6    7 ar  
    13    6   32 1   
    14    7    8 ar  
    15    7   13 1   
    16    8    9 1   
    17    9   10 1   
    18    9   11 2   
    19   10   33 1   
    20   11   12 1   
    21   11   19 1   
    22   12   13 1   
    23   12   16 2   
    24   13   14 1   
    25   14   15 2   
    26   14   34 1   
    27   15   16 1   
    28   16   17 1   
    29   17   18 1   
    30   17   35 1   
    31   17   36 1   
    32   18   19 1   
    33   18   37 1   
    34   18   38 1   
    35   19   20 1   
    36   19   39 1   
    37   20   21 1   
    38   20   40 1   
    39   21   22 1   
    40   21   41 1   
    41   21   42 1   
    42   22   23 1   
    43   22   43 1   
    44   22   44 1   
    45   23   24 1   
    46   23   25 1   
    47   23   26 1   
    48   24   45 1   
    49   24   46 1   
    50   24   47 1   
    51   25   48 1   
    52   25   49 1   
    53   25   50 1   
    54   26   51 1   
@<TRIPOS>SUBSTRUCTURE
     1 6A1         1 TEMP              0 ****  ****    0 ROOT
