@<TRIPOS>MOLECULE
6A1
   52    55     1     0     0
SMALL
bcc


@<TRIPOS>ATOM
      1 CAA         0.1120   -0.0590   -0.2050 c3        1 6A1      0.104700
      2 OAP         1.5220    0.1240   -0.0500 os        1 6A1     -0.317900
      3 CAQ         2.0210    0.0390    1.2260 ca        1 6A1      0.154100
      4 CAK         3.4140    0.1280    1.3200 ca        1 6A1     -0.160000
      5 CAF         1.2330   -0.1130    2.3850 ca        1 6A1     -0.135000
      6 CAI         1.8380   -0.1610    3.6270 ca        1 6A1     -0.096000
      7 CAV         3.2450   -0.0670    3.7460 ca        1 6A1      0.036700
      8 CAU         4.0480    0.0650    2.5690 ca        1 6A1     -0.080000
      9 CAS         5.4990    0.1190    2.6770 cc        1 6A1      0.134100
     10 OAD         6.2730    0.2520    1.5350 oh        1 6A1     -0.593100
     11 CAW         6.1230    0.0920    3.8980 cd        1 6A1     -0.140300
     12 CAX         5.2880   -0.0100    5.0470 cd        1 6A1     -0.154300
     13 NAY         3.8820   -0.0960    4.9890 na        1 6A1     -0.062200
     14 CAJ         3.4620   -0.2470    6.3230 cd        1 6A1      0.411700
     15 NAN         4.5140   -0.2550    7.1840 nc        1 6A1     -0.498300
     16 CAT         5.6550   -0.1160    6.4070 cc        1 6A1      0.050400
     17 CAH         7.0850   -0.1040    6.7690 c3        1 6A1      0.004800
     18 CAG         7.8860    0.5790    5.6600 c3        1 6A1     -0.097400
     19 CAR         7.5800    0.0310    4.2490 c3        1 6A1      0.217800
     20 NAO         8.4400    0.7310    3.2040 n4        1 6A1     -0.766000
     21 CAL         8.1530    2.1870    3.1060 c3        1 6A1      0.087800
     22 CAM         8.4430    2.7400    1.6960 c3        1 6A1      0.111800
     23 NAZ         8.3320    4.2520    1.6150 n4        1 6A1     -0.382300
     24 CAB         8.8200    4.7050    0.2620 c3        1 6A1      0.072100
     25 CAC         6.9160    4.7080    1.8320 c3        1 6A1      0.072100
     26 OAE         9.1410    4.7290    2.6030 oh        1 6A1     -0.385300
     27 H1         -0.1970   -1.0630    0.1750 h1        1 6A1      0.065700
     28 H2         -0.4450    0.7570    0.3150 h1        1 6A1      0.065700
     29 H3         -0.0270    0.0060   -1.3150 h1        1 6A1      0.065700
     30 H4          3.9890    0.2520    0.3910 ha        1 6A1      0.147000
     31 H5          0.1360   -0.1960    2.3100 ha        1 6A1      0.176000
     32 H6          1.2160   -0.2770    4.5310 ha        1 6A1      0.169000
     33 H7          5.8680   -0.2880    0.8350 ho        1 6A1      0.473000
     34 H8          2.4070   -0.3430    6.6120 h5        1 6A1      0.102800
     35 H9          7.4430   -1.1590    6.9190 hc        1 6A1      0.099200
     36 H10         7.2580    0.4500    7.7320 hc        1 6A1      0.099200
     37 H11         7.6570    1.6770    5.6890 hc        1 6A1      0.064700
     38 H12         8.9770    0.4350    5.8810 hc        1 6A1      0.064700
     39 H13         7.9070   -1.0580    4.2050 hx        1 6A1      0.129700
     40 H14         9.4270    0.5880    3.4460 hn        1 6A1      0.466300
     41 H16         7.0560    2.3360    3.3480 hx        1 6A1      0.135700
     42 H17         8.7710    2.7280    3.8830 hx        1 6A1      0.135700
     43 H18         7.6990    2.3190    0.9570 hx        1 6A1      0.127700
     44 H19         9.4940    2.4760    1.3790 hx        1 6A1      0.127700
     45 H20         9.9090    4.4500    0.1570 hx        1 6A1      0.123867
     46 H21         8.2150    4.1900   -0.5300 hx        1 6A1      0.123867
     47 H22         8.6860    5.8190    0.1810 hx        1 6A1      0.123867
     48 H23         6.6050    4.4650    2.8830 hx        1 6A1      0.123867
     49 H24         6.8610    5.8210    1.6770 hx        1 6A1      0.123867
     50 H25         6.2510    4.1880    1.0920 hx        1 6A1      0.123867
     51 H26         9.1890    5.7110    2.5370 ho        1 6A1      0.488000
     52 HAO2        8.2420    0.2770    2.2970 hn        1 6A1      0.466300
@<TRIPOS>BOND
     1    1    2 1   
     2    1   27 1   
     3    1   28 1   
     4    1   29 1   
     5    2    3 1   
     6    3    4 ar  
     7    3    5 ar  
     8    4    8 ar  
     9    4   30 1   
    10    5    6 ar  
    11    5   31 1   
    12    6    7 ar  
    13    6   32 1   
    14    7    8 ar  
    15    7   13 1   
    16    8    9 1   
    17    9   10 1   
    18    9   11 2   
    19   10   33 1   
    20   11   12 1   
    21   11   19 1   
    22   12   13 1   
    23   12   16 2   
    24   13   14 1   
    25   14   15 2   
    26   14   34 1   
    27   15   16 1   
    28   16   17 1   
    29   17   18 1   
    30   17   35 1   
    31   17   36 1   
    32   18   19 1   
    33   18   37 1   
    34   18   38 1   
    35   19   20 1   
    36   19   39 1   
    37   20   21 1   
    38   20   40 1   
    39   20   52 1   
    40   21   22 1   
    41   21   41 1   
    42   21   42 1   
    43   22   23 1   
    44   22   43 1   
    45   22   44 1   
    46   23   24 1   
    47   23   25 1   
    48   23   26 1   
    49   24   45 1   
    50   24   46 1   
    51   24   47 1   
    52   25   48 1   
    53   25   49 1   
    54   25   50 1   
    55   26   51 1   
@<TRIPOS>SUBSTRUCTURE
     1 6A1         1 TEMP              0 ****  ****    0 ROOT
