@<TRIPOS>MOLECULE
6A5
   48    51     1     0     0
SMALL
bcc


@<TRIPOS>ATOM
      1 C1          0.1600    0.1130   -0.0110 cc        1 6A5      0.150700
      2 C2          1.5530    0.2060   -0.0490 cd        1 6A5     -0.359600
      3 C3          2.3010    0.3130    1.1930 cd        1 6A5      0.449600
      4 N4          1.7280    0.3630    2.3840 nc        1 6A5     -0.572000
      5 N5         -0.4610    0.1560    1.2080 na        1 6A5     -0.152100
      6 C6          0.3430    0.3020    2.4420 cc        1 6A5      0.385500
      7 N7         -0.4870    0.3580    3.5220 nd        1 6A5     -0.192600
      8 C8         -1.7820    0.2510    3.0150 cd        1 6A5      0.035400
      9 C9         -1.7940    0.1310    1.6080 cc        1 6A5     -0.134100
     10 C10        -3.0340    0.3890    3.8150 c         1 6A5      0.700300
     11 O11        -3.9610    1.0700    3.3280 o         1 6A5     -0.594100
     12 N12        -3.1620   -0.2460    5.0290 n         1 6A5     -0.444800
     13 C13         3.7980    0.3470    1.1220 c3        1 6A5     -0.159400
     14 C14        -0.6550   -0.0550   -1.2320 ca        1 6A5     -0.125000
     15 C15         2.2590    0.1710   -1.3520 c3        1 6A5      0.192100
     16 N16         2.4330    1.5590   -1.8990 n4        1 6A5     -0.865600
     17 C17        -1.1130   -1.3350   -1.5710 ca        1 6A5     -0.078000
     18 C18        -1.9130   -1.5260   -2.6940 ca        1 6A5     -0.110000
     19 C19        -2.2760   -0.4310   -3.4870 ca        1 6A5      0.048400
     20 C20        -1.8310    0.8580   -3.1590 ca        1 6A5     -0.112000
     21 C21        -1.0180    1.0340   -2.0390 ca        1 6A5      0.012400
     22 CL22       -0.4870    2.6140   -1.6590 cl        1 6A5     -0.072400
     23 CL23       -3.2560   -0.6520   -4.8410 cl        1 6A5     -0.012400
     24 C24        -4.2670    0.1220    5.8960 c3        1 6A5      0.057000
     25 C25        -4.7410   -1.0330    6.7850 c3        1 6A5      0.113900
     26 O26        -3.6520   -1.6490    7.4600 os        1 6A5     -0.399600
     27 C27        -2.6830   -2.1540    6.5540 c3        1 6A5      0.113900
     28 C28        -2.1280   -1.0640    5.6210 c3        1 6A5      0.057000
     29 H17        -0.8450   -2.1980   -0.9380 ha        1 6A5      0.168000
     30 H18        -2.2710   -2.5390   -2.9480 ha        1 6A5      0.181000
     31 H20        -2.1350    1.7240   -3.7730 ha        1 6A5      0.185000
     32 H9         -2.6360    0.0570    0.9180 h4        1 6A5      0.217000
     33 H24        -3.9330    0.9740    6.5570 h1        1 6A5      0.067450
     34 HN16        2.8480    1.5240   -2.8320 hn        1 6A5      0.458133
     35 H24A       -5.1310    0.4780    5.2660 h1        1 6A5      0.067450
     36 HN1A        3.0400    2.1030   -1.2800 hn        1 6A5      0.458133
     37 H28        -1.5450   -1.5870    4.8140 h1        1 6A5      0.067450
     38 H28A       -1.4240   -0.4050    6.2070 h1        1 6A5      0.067450
     39 H25        -5.3950   -0.6370    7.6070 h1        1 6A5      0.062450
     40 H25A       -5.2980   -1.8000    6.1830 h1        1 6A5      0.062450
     41 H27        -1.8580   -2.5410    7.2090 h1        1 6A5      0.062450
     42 H27A       -3.1270   -2.9930    5.9550 h1        1 6A5      0.062450
     43 H13         4.1760   -0.6430    0.7610 hc        1 6A5      0.066033
     44 H13A        4.2590    0.5450    2.1250 hc        1 6A5      0.066033
     45 H13B        4.1320    1.1520    0.4240 hc        1 6A5      0.066033
     46 H15         3.2840   -0.2920   -1.2520 hx        1 6A5      0.114200
     47 H15A        1.6700   -0.4170   -2.1170 hx        1 6A5      0.114200
     48 H163        1.5020    2.0300   -1.9450 hn        1 6A5      0.458133
@<TRIPOS>BOND
     1    1    2 2   
     2    1    5 1   
     3    1   14 1   
     4    2    3 1   
     5    2   15 1   
     6    3    4 2   
     7    3   13 1   
     8    4    6 1   
     9    5    6 1   
    10    5    9 1   
    11    6    7 2   
    12    7    8 1   
    13    8    9 2   
    14    8   10 1   
    15    9   32 1   
    16   10   11 2   
    17   10   12 1   
    18   12   24 1   
    19   12   28 1   
    20   13   43 1   
    21   13   44 1   
    22   13   45 1   
    23   14   17 ar  
    24   14   21 ar  
    25   15   16 1   
    26   15   46 1   
    27   15   47 1   
    28   16   34 1   
    29   16   36 1   
    30   16   48 1   
    31   17   18 ar  
    32   17   29 1   
    33   18   19 ar  
    34   18   30 1   
    35   19   20 ar  
    36   19   23 1   
    37   20   21 ar  
    38   20   31 1   
    39   21   22 1   
    40   24   25 1   
    41   24   33 1   
    42   24   35 1   
    43   25   26 1   
    44   25   39 1   
    45   25   40 1   
    46   26   27 1   
    47   27   28 1   
    48   27   41 1   
    49   27   42 1   
    50   28   37 1   
    51   28   38 1   
@<TRIPOS>SUBSTRUCTURE
     1 6A5         1 TEMP              0 ****  ****    0 ROOT
