@<TRIPOS>MOLECULE
6A5
   48    51     1     0     0
SMALL
bcc


@<TRIPOS>ATOM
      1 C1          0.1580    0.1140   -0.0130 cc        1 6A5      0.150700
      2 C2          1.5510    0.2040   -0.0530 cd        1 6A5     -0.359600
      3 C3          2.3010    0.3090    1.1880 cd        1 6A5      0.449600
      4 N4          1.7300    0.3580    2.3800 nc        1 6A5     -0.572000
      5 N5         -0.4620    0.1560    1.2080 na        1 6A5     -0.152100
      6 C6          0.3450    0.2990    2.4400 cc        1 6A5      0.385500
      7 N7         -0.4820    0.3550    3.5220 nd        1 6A5     -0.192600
      8 C8         -1.7790    0.2510    3.0170 cd        1 6A5      0.035400
      9 C9         -1.7930    0.1320    1.6100 cc        1 6A5     -0.134100
     10 C10        -3.0290    0.3900    3.8200 c         1 6A5      0.700300
     11 O11        -3.9560    1.0730    3.3350 o         1 6A5     -0.594100
     12 N12        -3.1560   -0.2470    5.0330 n         1 6A5     -0.444800
     13 C13         3.7980    0.3410    1.1150 c3        1 6A5     -0.159400
     14 C14        -0.6590   -0.0510   -1.2320 ca        1 6A5     -0.125000
     15 C15         2.2540    0.1710   -1.3570 c3        1 6A5      0.192100
     16 N16         2.4290    1.5590   -1.9030 nz        1 6A5     -0.865600
     17 C17        -1.1200   -1.3300   -1.5720 ca        1 6A5     -0.078000
     18 C18        -1.9230   -1.5190   -2.6940 ca        1 6A5     -0.110000
     19 C19        -2.2850   -0.4220   -3.4850 ca        1 6A5      0.048400
     20 C20        -1.8380    0.8650   -3.1560 ca        1 6A5     -0.112000
     21 C21        -1.0220    1.0400   -2.0370 ca        1 6A5      0.012400
     22 Cl22       -0.4890    2.6180   -1.6560 cl        1 6A5     -0.072400
     23 Cl23       -3.2690   -0.6400   -4.8370 cl        1 6A5     -0.012400
     24 C24        -4.2590    0.1210    5.9030 c3        1 6A5      0.057000
     25 C25        -4.7340   -1.0350    6.7900 c3        1 6A5      0.113900
     26 O26        -3.6440   -1.6540    7.4630 os        1 6A5     -0.399600
     27 C27        -2.6770   -2.1580    6.5540 c3        1 6A5      0.113900
     28 C28        -2.1220   -1.0670    5.6220 c3        1 6A5      0.057000
     29 H17        -0.8530   -2.1950   -0.9410 ha        1 6A5      0.168000
     30 H18        -2.2820   -2.5310   -2.9490 ha        1 6A5      0.181000
     31 H20        -2.1410    1.7330   -3.7680 ha        1 6A5      0.185000
     32 H9         -2.6370    0.0600    0.9210 h4        1 6A5      0.217000
     33 H24        -3.9230    0.9720    6.5640 h1        1 6A5      0.067450
     34 HN16        1.4990    2.0320   -1.9460 hn        1 6A5      0.458133
     35 H24A       -5.1240    0.4790    5.2750 h1        1 6A5      0.067450
     36 HN1A        2.8430    1.5250   -2.8360 hn        1 6A5      0.458133
     37 H28        -1.4160   -0.4110    6.2080 h1        1 6A5      0.067450
     38 H28A       -1.5410   -1.5910    4.8130 h1        1 6A5      0.067450
     39 H25        -5.2920   -1.8000    6.1880 h1        1 6A5      0.062450
     40 H25A       -5.3850   -0.6400    7.6140 h1        1 6A5      0.062450
     41 H27        -3.1240   -2.9950    5.9550 h1        1 6A5      0.062450
     42 H27A       -1.8520   -2.5480    7.2070 h1        1 6A5      0.062450
     43 H13         4.1740   -0.6490    0.7510 hc        1 6A5      0.066033
     44 H13A        4.2610    0.5370    2.1160 hc        1 6A5      0.066033
     45 H13B        4.1320    1.1470    0.4170 hc        1 6A5      0.066033
     46 H15         1.6630   -0.4160   -2.1220 hx        1 6A5      0.114200
     47 H15A        3.2780   -0.2940   -1.2600 hx        1 6A5      0.114200
     48 H163        3.0380    2.1020   -1.2830 hn        1 6A5      0.458133
@<TRIPOS>BOND
     1    1    2 2   
     2    1    5 1   
     3    1   14 1   
     4    2    3 1   
     5    2   15 1   
     6    3    4 2   
     7    3   13 1   
     8    4    6 1   
     9    5    6 1   
    10    5    9 1   
    11    6    7 2   
    12    7    8 1   
    13    8    9 2   
    14    8   10 1   
    15    9   32 1   
    16   10   11 2   
    17   10   12 1   
    18   12   24 1   
    19   12   28 1   
    20   13   43 1   
    21   13   44 1   
    22   13   45 1   
    23   14   17 ar  
    24   14   21 ar  
    25   15   16 1   
    26   15   46 1   
    27   15   47 1   
    28   16   34 1   
    29   16   36 1   
    30   16   48 1   
    31   17   18 ar  
    32   17   29 1   
    33   18   19 ar  
    34   18   30 1   
    35   19   20 ar  
    36   19   23 1   
    37   20   21 ar  
    38   20   31 1   
    39   21   22 1   
    40   24   25 1   
    41   24   33 1   
    42   24   35 1   
    43   25   26 1   
    44   25   39 1   
    45   25   40 1   
    46   26   27 1   
    47   27   28 1   
    48   27   41 1   
    49   27   42 1   
    50   28   37 1   
    51   28   38 1   
@<TRIPOS>SUBSTRUCTURE
     1 6A5         1 TEMP              0 ****  ****    0 ROOT
