@<TRIPOS>MOLECULE
6A5
   48    51     1     0     0
SMALL
bcc


@<TRIPOS>ATOM
      1 C1          0.1590    0.1130   -0.0110 cc        1 6A5      0.150700
      2 C2          1.5520    0.2110   -0.0510 cd        1 6A5     -0.359600
      3 C3          2.3000    0.3230    1.1910 cd        1 6A5      0.449600
      4 N4          1.7270    0.3720    2.3830 nc        1 6A5     -0.572000
      5 N5         -0.4620    0.1570    1.2080 na        1 6A5     -0.152100
      6 C6          0.3420    0.3080    2.4410 cc        1 6A5      0.385500
      7 N7         -0.4870    0.3630    3.5210 nd        1 6A5     -0.192600
      8 C8         -1.7820    0.2520    3.0150 cd        1 6A5      0.035400
      9 C9         -1.7940    0.1290    1.6090 cc        1 6A5     -0.134100
     10 C10        -3.0340    0.3880    3.8160 c         1 6A5      0.700300
     11 O11        -3.9630    1.0660    3.3280 o         1 6A5     -0.594100
     12 N12        -3.1600   -0.2470    5.0300 n         1 6A5     -0.444800
     13 C13         3.7970    0.3610    1.1200 c3        1 6A5     -0.159400
     14 C14        -0.6550   -0.0590   -1.2320 ca        1 6A5     -0.125000
     15 C15         2.2570    0.1760   -1.3530 c3        1 6A5      0.192100
     16 N16         2.4260    1.5640   -1.9030 n4        1 6A5     -0.865600
     17 C17        -1.1090   -1.3410   -1.5680 ca        1 6A5     -0.078000
     18 C18        -1.9090   -1.5380   -2.6910 ca        1 6A5     -0.110000
     19 C19        -2.2760   -0.4440   -3.4860 ca        1 6A5      0.048400
     20 C20        -1.8350    0.8460   -3.1600 ca        1 6A5     -0.112000
     21 C21        -1.0230    1.0280   -2.0410 ca        1 6A5      0.012400
     22 CL22       -0.4980    2.6100   -1.6630 cl        1 6A5     -0.072400
     23 CL23       -3.2560   -0.6720   -4.8390 cl        1 6A5     -0.012400
     24 C24        -4.2660    0.1200    5.8980 c3        1 6A5      0.057000
     25 C25        -4.7370   -1.0360    6.7870 c3        1 6A5      0.113900
     26 O26        -3.6460   -1.6500    7.4620 os        1 6A5     -0.399600
     27 C27        -2.6770   -2.1530    6.5560 c3        1 6A5      0.113900
     28 C28        -2.1240   -1.0620    5.6220 c3        1 6A5      0.057000
     29 H17        -0.8390   -2.2020   -0.9340 ha        1 6A5      0.168000
     30 H18        -2.2630   -2.5520   -2.9430 ha        1 6A5      0.181000
     31 H20        -2.1420    1.7100   -3.7750 ha        1 6A5      0.185000
     32 H9         -2.6370    0.0510    0.9190 h4        1 6A5      0.217000
     33 H24        -5.1310    0.4740    5.2680 h1        1 6A5      0.067450
     34 HN16        2.8410    1.5290   -2.8360 hn        1 6A5      0.458133
     35 H24A       -3.9330    0.9730    6.5580 h1        1 6A5      0.067450
     36 HN1A        1.4940    2.0320   -1.9490 hn        1 6A5      0.458133
     37 H28        -1.5400   -1.5850    4.8150 h1        1 6A5      0.067450
     38 H28A       -1.4210   -0.4020    6.2080 h1        1 6A5      0.067450
     39 H25        -5.2930   -1.8040    6.1860 h1        1 6A5      0.062450
     40 H25A       -5.3910   -0.6410    7.6090 h1        1 6A5      0.062450
     41 H27        -3.1200   -2.9930    5.9570 h1        1 6A5      0.062450
     42 H27A       -1.8510   -2.5390    7.2110 h1        1 6A5      0.062450
     43 H13         4.1280    1.1660    0.4200 hc        1 6A5      0.066033
     44 H13A        4.1780   -0.6280    0.7600 hc        1 6A5      0.066033
     45 H13B        4.2580    0.5630    2.1220 hc        1 6A5      0.066033
     46 H15         3.2830   -0.2830   -1.2530 hx        1 6A5      0.114200
     47 H15A        1.6700   -0.4150   -2.1170 hx        1 6A5      0.114200
     48 H163        3.0320    2.1110   -1.2840 hn        1 6A5      0.458133
@<TRIPOS>BOND
     1    1    2 2   
     2    1    5 1   
     3    1   14 1   
     4    2    3 1   
     5    2   15 1   
     6    3    4 2   
     7    3   13 1   
     8    4    6 1   
     9    5    6 1   
    10    5    9 1   
    11    6    7 2   
    12    7    8 1   
    13    8    9 2   
    14    8   10 1   
    15    9   32 1   
    16   10   11 2   
    17   10   12 1   
    18   12   24 1   
    19   12   28 1   
    20   13   43 1   
    21   13   44 1   
    22   13   45 1   
    23   14   17 ar  
    24   14   21 ar  
    25   15   16 1   
    26   15   46 1   
    27   15   47 1   
    28   16   34 1   
    29   16   36 1   
    30   16   48 1   
    31   17   18 ar  
    32   17   29 1   
    33   18   19 ar  
    34   18   30 1   
    35   19   20 ar  
    36   19   23 1   
    37   20   21 ar  
    38   20   31 1   
    39   21   22 1   
    40   24   25 1   
    41   24   33 1   
    42   24   35 1   
    43   25   26 1   
    44   25   39 1   
    45   25   40 1   
    46   26   27 1   
    47   27   28 1   
    48   27   41 1   
    49   27   42 1   
    50   28   37 1   
    51   28   38 1   
@<TRIPOS>SUBSTRUCTURE
     1 6A5         1 TEMP              0 ****  ****    0 ROOT
