@<TRIPOS>MOLECULE
6A5
   47    39     1     0     0
SMALL
bcc


@<TRIPOS>ATOM
      1 C1          1.6200    0.5570   -0.5460 c1        1 6A5      0.065000
      2 C2          2.9860    0.6360   -0.5060 c1        1 6A5     -0.150000
      3 C3          3.6320    0.7410    0.7010 c1        1 6A5      0.022000
      4 N4          2.9220    0.7670    1.8440 n1        1 6A5     -0.089000
      5 N5          0.9030    0.5830    0.6100 n1        1 6A5     -0.089000
      6 C6          1.5440    0.6870    1.8030 c1        1 6A5      0.065000
      7 N7          0.5930    0.7100    2.7950 n1        1 6A5     -0.091000
      8 C8         -0.6170    0.6210    2.2150 c1        1 6A5     -0.130000
      9 C9         -0.4300    0.5410    0.8530 c1        1 6A5     -0.100000
     10 C10        -1.6200   -0.5100    2.1630 c1        1 6A5      0.386000
     11 O11        -1.3760   -1.5640    2.7170 o         1 6A5     -0.381000
     12 N12        -2.8770   -0.3150    1.5330 n3        1 6A5     -0.308000
     13 C13         5.0440    0.9390    1.2050 c3        1 6A5     -0.177000
     14 C14         1.1520   -0.3350   -1.5010 c1        1 6A5     -0.080000
     15 C15         4.1660    0.8190   -1.4360 c3        1 6A5     -0.034000
     16 N16         3.7430    1.5050   -2.6100 n3        1 6A5     -0.350000
     17 C17         0.6450    0.0340   -2.7370 c1        1 6A5     -0.097500
     18 C18         0.0910   -0.9230   -3.5720 c1        1 6A5     -0.097500
     19 C19         0.0420   -2.2480   -3.1710 c1        1 6A5     -0.037000
     20 C20         0.5490   -2.6170   -1.9350 c1        1 6A5     -0.131000
     21 C21         1.1040   -1.6600   -1.1000 c1        1 6A5     -0.035000
     22 CL22        1.7620   -2.1280    0.4460 cl        1 6A5      0.018000
     23 CL23       -0.6140   -3.4590   -4.2400 cl        1 6A5      0.007000
     24 C24        -4.0620   -1.2450    1.4110 c3        1 6A5     -0.057000
     25 C25        -5.3030   -0.6840    2.0720 c3        1 6A5     -0.038500
     26 O26        -5.1910    0.5960    2.2540 os        1 6A5     -0.275000
     27 C27        -4.6560    1.4570    1.4440 c3        1 6A5     -0.038500
     28 C28        -3.4190    0.8840    0.7870 c3        1 6A5     -0.057000
     29 H17         0.6790    0.9670   -3.0190 ha        1 6A5      0.163000
     30 H18        -0.2660   -0.6630   -4.4420 ha        1 6A5      0.163000
     31 H20         0.5150   -3.5500   -1.6520 ha        1 6A5      0.168000
     32 H9         -1.1330    0.4680    0.1810 DU        1 6A5      0.210000
     33 H24        -4.2490   -1.3980    0.4630 h1        1 6A5      0.108750
     34 HN16        4.1250    1.1160   -3.3460 hn        1 6A5      0.150500
     35 H24A       -3.8390   -2.1000    1.8320 h1        1 6A5      0.108750
     36 HN1A        4.0010    2.3820   -2.5610 hn        1 6A5      0.150500
     37 H28        -3.6410    0.6140   -0.1270 h1        1 6A5      0.108750
     38 H28A       -2.7280    1.5750    0.7550 h1        1 6A5      0.108750
     39 H25        -5.4330   -1.1230    2.9380 h1        1 6A5      0.092750
     40 H25A       -6.0790   -0.8610    1.5010 h1        1 6A5      0.092750
     41 H27        -4.4100    2.2620    1.9460 h1        1 6A5      0.092750
     42 H27A       -5.3070    1.6960    0.7520 h1        1 6A5      0.092750
     43 H13         5.0520    0.8820    2.1840 hc        1 6A5      0.100000
     44 H13A        5.6240    0.2420    0.8330 hc        1 6A5      0.100000
     45 H13B        5.3700    1.8200    0.9260 hc        1 6A5      0.100000
     46 H15         4.5270   -0.0570   -1.6820 h1        1 6A5      0.084000
     47 H15A        4.8590    1.3430   -0.9830 h1        1 6A5      0.084000
@<TRIPOS>BOND
     1    1    5 1   
     2    2    3 1   
     3    2   15 1   
     4    3   13 1   
     5    4    6 1   
     6    7    8 1   
     7    8    9 1   
     8   10   11 1   
     9   10   12 1   
    10   12   24 1   
    11   12   28 1   
    12   13   43 1   
    13   13   44 1   
    14   13   45 1   
    15   14   21 1   
    16   15   16 1   
    17   15   46 1   
    18   15   47 1   
    19   16   34 1   
    20   16   36 1   
    21   17   18 1   
    22   17   29 1   
    23   18   30 1   
    24   19   20 1   
    25   19   23 1   
    26   20   31 1   
    27   21   22 1   
    28   24   25 1   
    29   24   33 1   
    30   24   35 1   
    31   25   26 1   
    32   25   39 1   
    33   25   40 1   
    34   26   27 1   
    35   27   28 1   
    36   27   41 1   
    37   27   42 1   
    38   28   37 1   
    39   28   38 1   
@<TRIPOS>SUBSTRUCTURE
     1 6A5         1 TEMP              0 ****  ****    0 ROOT
