@<TRIPOS>MOLECULE
6A5
   47    50     1     0     0
SMALL
bcc


@<TRIPOS>ATOM
      1 C1         -1.1940   -1.0200    0.2780 cc        1 6A5      0.087700
      2 C2         -1.5690   -2.3420    0.4520 cd        1 6A5     -0.225600
      3 C3         -0.5780   -3.3930    0.2800 cd        1 6A5      0.445600
      4 N4          0.6920   -3.1630   -0.0240 nc        1 6A5     -0.606000
      5 N5          0.1270   -0.7440   -0.0310 na        1 6A5     -0.136100
      6 C6          1.0820   -1.8390   -0.1850 cc        1 6A5      0.370500
      7 N7          2.3200   -1.3350   -0.4910 nd        1 6A5     -0.231600
      8 C8          2.1590    0.0460   -0.5310 cd        1 6A5     -0.006600
      9 C9          0.8240    0.4320   -0.2600 cc        1 6A5     -0.139100
     10 C10         3.2140    1.0160   -0.9190 c         1 6A5      0.713300
     11 O11         2.9220    1.9610   -1.6820 o         1 6A5     -0.606100
     12 N12         4.4940    0.8960   -0.4090 n         1 6A5     -0.458800
     13 C13        -1.0190   -4.8140    0.4620 c3        1 6A5     -0.153400
     14 C14        -2.1380    0.1060    0.4210 ca        1 6A5     -0.071000
     15 C15        -2.9830   -2.6870    0.8130 c3        1 6A5      0.214100
     16 N16        -3.8410   -2.8570   -0.3370 n3        1 6A5     -0.911800
     17 C17        -2.4580    0.5730    1.7030 ca        1 6A5     -0.089000
     18 C18        -3.3550    1.6230    1.8710 ca        1 6A5     -0.132000
     19 C19        -3.9420    2.2140    0.7460 ca        1 6A5      0.041400
     20 C20        -3.6320    1.7650   -0.5400 ca        1 6A5     -0.125000
     21 C21        -2.7240    0.7120   -0.7010 ca        1 6A5      0.064400
     22 CL22       -2.3500    0.1890   -2.2680 cl        1 6A5     -0.050400
     23 CL23       -5.0400    3.4920    0.9440 cl        1 6A5     -0.071400
     24 C24         5.5640    1.6650   -1.0120 c3        1 6A5      0.061500
     25 C25         6.6670    2.0370   -0.0140 c3        1 6A5      0.113900
     26 O26         7.1170    0.9020    0.7150 os        1 6A5     -0.410600
     27 C27         6.0580    0.2650    1.4170 c3        1 6A5      0.113900
     28 C28         4.9020   -0.1530    0.4950 c3        1 6A5      0.061500
     29 H17        -1.9940    0.1030    2.5840 ha        1 6A5      0.150000
     30 H18        -3.6000    1.9830    2.8820 ha        1 6A5      0.157000
     31 H20        -4.0960    2.2340   -1.4230 ha        1 6A5      0.169000
     32 H9          0.3680    1.4210   -0.2410 h4        1 6A5      0.205000
     33 H24         6.0230    1.0580   -1.8450 h1        1 6A5      0.065450
     34 HN16       -3.4110   -3.4290   -1.0360 hn        1 6A5      0.356300
     35 H24A        5.1380    2.6100   -1.4550 h1        1 6A5      0.065450
     36 HN1A       -4.7130   -3.2640   -0.0610 hn        1 6A5      0.356300
     37 H28         4.0400   -0.4420    1.1590 h1        1 6A5      0.065450
     38 H28A        5.2170   -1.0590   -0.0990 h1        1 6A5      0.065450
     39 H25         7.5750    2.3950   -0.5660 h1        1 6A5      0.054950
     40 H25A        6.3120    2.8270    0.6990 h1        1 6A5      0.054950
     41 H27         6.5290   -0.6480    1.8670 h1        1 6A5      0.054950
     42 H27A        5.6880    0.9460    2.2290 h1        1 6A5      0.054950
     43 H13        -1.9260   -5.0070   -0.1610 hc        1 6A5      0.060700
     44 H13A       -0.2240   -5.5430    0.1630 hc        1 6A5      0.060700
     45 H13B       -1.2670   -4.9880    1.5390 hc        1 6A5      0.060700
     46 H15        -2.9650   -3.5970    1.4860 h1        1 6A5      0.039700
     47 H15A       -3.4220   -1.8440    1.4270 h1        1 6A5      0.039700
@<TRIPOS>BOND
     1    1    2 2   
     2    1    5 1   
     3    1   14 1   
     4    2    3 1   
     5    2   15 1   
     6    3    4 2   
     7    3   13 1   
     8    4    6 1   
     9    5    6 1   
    10    5    9 1   
    11    6    7 2   
    12    7    8 1   
    13    8    9 2   
    14    8   10 1   
    15    9   32 1   
    16   10   11 2   
    17   10   12 1   
    18   12   24 1   
    19   12   28 1   
    20   13   43 1   
    21   13   44 1   
    22   13   45 1   
    23   14   17 ar  
    24   14   21 ar  
    25   15   16 1   
    26   15   46 1   
    27   15   47 1   
    28   16   34 1   
    29   16   36 1   
    30   17   18 ar  
    31   17   29 1   
    32   18   19 ar  
    33   18   30 1   
    34   19   20 ar  
    35   19   23 1   
    36   20   21 ar  
    37   20   31 1   
    38   21   22 1   
    39   24   25 1   
    40   24   33 1   
    41   24   35 1   
    42   25   26 1   
    43   25   39 1   
    44   25   40 1   
    45   26   27 1   
    46   27   28 1   
    47   27   41 1   
    48   27   42 1   
    49   28   37 1   
    50   28   38 1   
@<TRIPOS>SUBSTRUCTURE
     1 6A5         1 TEMP              0 ****  ****    0 ROOT
