@<TRIPOS>MOLECULE
6AB
   16    16     1     0     0
SMALL
bcc


@<TRIPOS>ATOM
      1 C1'         0.0020   -0.0220    0.0620 c         1 6AB      0.913200
      2 O1'         1.2160    0.3420    0.1090 o         1 6AB     -0.838300
      3 O2'        -0.6630   -0.3390    1.0880 o         1 6AB     -0.838300
      4 C1         -0.7100   -0.0460   -1.2810 ca        1 6AB     -0.172600
      5 C2         -2.0900    0.1500   -1.2880 ca        1 6AB     -0.082000
      6 C3         -2.8120    0.2170   -2.4800 ca        1 6AB     -0.201000
      7 C4         -2.1420    0.0840   -3.6930 ca        1 6AB     -0.127000
      8 C5         -0.7690   -0.1320   -3.7180 ca        1 6AB     -0.215000
      9 C6         -0.0280   -0.2220   -2.5150 ca        1 6AB      0.148600
     10 N6          1.3340   -0.5610   -2.5680 nh        1 6AB     -0.817200
     11 H2         -2.5990    0.2530   -0.3160 ha        1 6AB      0.146000
     12 H3         -3.8970    0.3770   -2.4610 ha        1 6AB      0.103000
     13 H4         -2.6980    0.1480   -4.6390 ha        1 6AB      0.097000
     14 H5         -0.2590   -0.2410   -4.6860 ha        1 6AB      0.105000
     15 HN61        1.7860   -0.4690   -1.6730 hn        1 6AB      0.388300
     16 HN62        1.8180   -0.0550   -3.2790 hn        1 6AB      0.388300
@<TRIPOS>BOND
     1    1    2 1   
     2    1    3 1   
     3    1    4 1   
     4    4    5 ar  
     5    4    9 ar  
     6    5    6 ar  
     7    5   11 1   
     8    6    7 ar  
     9    6   12 1   
    10    7    8 ar  
    11    7   13 1   
    12    8    9 ar  
    13    8   14 1   
    14    9   10 1   
    15   10   15 1   
    16   10   16 1   
@<TRIPOS>SUBSTRUCTURE
     1 6AB         1 TEMP              0 ****  ****    0 ROOT
