@<TRIPOS>MOLECULE
6AB
   16    16     1     0     0
SMALL
bcc


@<TRIPOS>ATOM
      1 C1'        -0.0060   -0.0110    0.0680 c         1 6AB      0.913200
      2 O1'         1.2070    0.3550    0.1180 o         1 6AB     -0.838300
      3 O2'        -0.6750   -0.3260    1.0920 o         1 6AB     -0.838300
      4 C1         -0.7130   -0.0400   -1.2790 ca        1 6AB     -0.172600
      5 C2         -2.0930    0.1540   -1.2920 ca        1 6AB     -0.082000
      6 C3         -2.8100    0.2170   -2.4870 ca        1 6AB     -0.201000
      7 C4         -2.1350    0.0820   -3.6970 ca        1 6AB     -0.127000
      8 C5         -0.7620   -0.1330   -3.7160 ca        1 6AB     -0.215000
      9 C6         -0.0260   -0.2180   -2.5090 ca        1 6AB      0.148600
     10 N6          1.3370   -0.5560   -2.5560 nv        1 6AB     -0.817200
     11 H2         -2.6060    0.2600   -0.3220 ha        1 6AB      0.146000
     12 H3         -3.8960    0.3750   -2.4730 ha        1 6AB      0.103000
     13 H4         -2.6870    0.1420   -4.6450 ha        1 6AB      0.097000
     14 H5         -0.2470   -0.2440   -4.6810 ha        1 6AB      0.105000
     15 HN61        1.8230   -0.0520   -3.2660 hn        1 6AB      0.388300
     16 HN62        1.7860   -0.4610   -1.6590 hn        1 6AB      0.388300
@<TRIPOS>BOND
     1    1    2 1   
     2    1    3 1   
     3    1    4 1   
     4    4    5 ar  
     5    4    9 ar  
     6    5    6 ar  
     7    5   11 1   
     8    6    7 ar  
     9    6   12 1   
    10    7    8 ar  
    11    7   13 1   
    12    8    9 ar  
    13    8   14 1   
    14    9   10 1   
    15   10   15 1   
    16   10   16 1   
@<TRIPOS>SUBSTRUCTURE
     1 6AB         1 TEMP              0 ****  ****    0 ROOT
