@<TRIPOS>MOLECULE
6AB
   16    13     1     0     0
SMALL
bcc


@<TRIPOS>ATOM
      1 C1'         0.7700   -0.1040    2.0990 c1        1 6AB      0.362000
      2 O1'         1.6480   -0.9490    2.4140 o         1 6AB     -0.590000
      3 O2'         0.4620    0.8130    2.9050 os        1 6AB     -0.556000
      4 C1          0.0730   -0.2000    0.7600 c2        1 6AB     -0.152000
      5 C2         -1.0730   -0.9690    0.6290 c2        1 6AB     -0.082000
      6 C3         -1.7330   -1.0270   -0.5880 c1        1 6AB     -0.201000
      7 C4         -1.2470   -0.3170   -1.6750 c1        1 6AB     -0.171000
      8 C5         -0.1010    0.4520   -1.5440 c1        1 6AB     -0.171000
      9 C6          0.5600    0.5100   -0.3270 c1        1 6AB      0.067000
     10 N6          1.7600    1.2560   -0.2070 n3        1 6AB     -0.326000
     11 H2         -1.4020   -1.4870    1.3880 ha        1 6AB      0.146000
     12 H3         -2.5400   -1.5680   -0.6800 ha        1 6AB      0.103000
     13 H4         -1.7220   -0.3420   -2.5270 ha        1 6AB      0.101000
     14 H5          0.2420    0.9520   -2.3100 ha        1 6AB      0.101000
     15 HN61        2.1220    1.6620   -0.9420 hn        1 6AB      0.183500
     16 HN62        2.1810    1.3180    0.6030 hn        1 6AB      0.183500
@<TRIPOS>BOND
     1    1    2 1   
     2    1    4 1   
     3    4    5 1   
     4    4    9 1   
     5    5    6 1   
     6    5   11 1   
     7    6   12 1   
     8    7    8 1   
     9    7   13 1   
    10    8   14 1   
    11    9   10 1   
    12   10   15 1   
    13   10   16 1   
@<TRIPOS>SUBSTRUCTURE
     1 6AB         1 TEMP              0 ****  ****    0 ROOT
