@<TRIPOS>MOLECULE
6AB
   16    16     1     0     0
SMALL
bcc


@<TRIPOS>ATOM
      1 C1'        -0.2640    0.0250   -1.6870 c         1 6AB      0.913200
      2 O1'         0.7220    0.5250   -2.3100 o         1 6AB     -0.838300
      3 O2'        -1.3010   -0.4020   -2.2660 o         1 6AB     -0.838300
      4 C1         -0.2230   -0.0320   -0.1670 ca        1 6AB     -0.172600
      5 C2         -1.4370    0.0050    0.5160 ca        1 6AB     -0.082000
      6 C3         -1.4890    0.0310    1.9100 ca        1 6AB     -0.201000
      7 C4         -0.3030    0.0180    2.6390 ca        1 6AB     -0.127000
      8 C5          0.9230   -0.0390    1.9860 ca        1 6AB     -0.215000
      9 C6          0.9880   -0.0860    0.5720 ca        1 6AB      0.148600
     10 N6          2.2330   -0.2660   -0.0540 nh        1 6AB     -0.817200
     11 H2         -2.3630    0.0150   -0.0820 ha        1 6AB      0.146000
     12 H3         -2.4570    0.0650    2.4270 ha        1 6AB      0.103000
     13 H4         -0.3310    0.0510    3.7370 ha        1 6AB      0.097000
     14 H5          1.8480   -0.0550    2.5790 ha        1 6AB      0.105000
     15 HN61        2.9390    0.3170    0.3430 hn        1 6AB      0.388300
     16 HN62        2.1780   -0.1540   -1.0530 hn        1 6AB      0.388300
@<TRIPOS>BOND
     1    1    2 1   
     2    1    3 1   
     3    1    4 1   
     4    4    5 ar  
     5    4    9 ar  
     6    5    6 ar  
     7    5   11 1   
     8    6    7 ar  
     9    6   12 1   
    10    7    8 ar  
    11    7   13 1   
    12    8    9 ar  
    13    8   14 1   
    14    9   10 1   
    15   10   15 1   
    16   10   16 1   
@<TRIPOS>SUBSTRUCTURE
     1 6AB         1 TEMP              0 ****  ****    0 ROOT
