@<TRIPOS>MOLECULE
6AB
   17    17     1     0     0
SMALL
bcc


@<TRIPOS>ATOM
      1 C1'        -0.1990   -0.1550    0.0180 c         1 6AB      0.641700
      2 O1'         0.6470   -0.9830    0.3570 o         1 6AB     -0.486000
      3 O2'        -0.4870    0.7550    1.0000 oh        1 6AB     -0.590100
      4 C1         -0.8900   -0.0650   -1.2790 ca        1 6AB     -0.246600
      5 C2         -0.1170   -0.0530   -2.4450 ca        1 6AB     -0.039000
      6 C3         -0.7180    0.0300   -3.6950 ca        1 6AB     -0.181000
      7 C4         -2.1110    0.0850   -3.7870 ca        1 6AB     -0.064000
      8 C5         -2.9000    0.0510   -2.6470 ca        1 6AB     -0.202000
      9 C6         -2.3060   -0.0230   -1.3610 ca        1 6AB      0.184600
     10 N6         -3.0960    0.0160   -0.2140 nh        1 6AB     -0.839200
     11 H2          0.9810   -0.1150   -2.3560 ha        1 6AB      0.150000
     12 H3         -0.1020    0.0470   -4.6050 ha        1 6AB      0.142000
     13 H4         -2.5900    0.1490   -4.7760 ha        1 6AB      0.137000
     14 H5         -3.9950    0.0850   -2.7420 ha        1 6AB      0.139000
     15 HN61       -1.0490    1.4590    0.6470 ho        1 6AB      0.437000
     16 HN62       -2.6850   -0.3760    0.6060 hn        1 6AB      0.408300
     17 H63        -4.0510   -0.2270   -0.3480 hn        1 6AB      0.408300
@<TRIPOS>BOND
     1    1    2 2   
     2    1    3 1   
     3    1    4 1   
     4    3   15 1   
     5    4    5 ar  
     6    4    9 ar  
     7    5    6 ar  
     8    5   11 1   
     9    6    7 ar  
    10    6   12 1   
    11    7    8 ar  
    12    7   13 1   
    13    8    9 ar  
    14    8   14 1   
    15    9   10 1   
    16   10   16 1   
    17   10   17 1   
@<TRIPOS>SUBSTRUCTURE
     1 6AB         1 TEMP              0 ****  ****    0 ROOT
