@<TRIPOS>MOLECULE
6AC
    7     6     1     0     0
SMALL
bcc


@<TRIPOS>ATOM
      1 N1         -1.8280    0.1420   -0.0000 n1        1 6AC     -0.364800
      2 C1         -0.6970   -0.1340    0.0000 cg        1 6AC      0.181500
      3 C2          0.6760   -0.4910    0.0010 ce        1 6AC     -0.065700
      4 C3          1.6660    0.4040    0.0000 c2        1 6AC     -0.156000
      5 H1          0.8680   -1.5790    0.0010 ha        1 6AC      0.151000
      6 H2          1.4950    1.4900   -0.0000 ha        1 6AC      0.127000
      7 H3          2.7200    0.0950    0.0010 ha        1 6AC      0.127000
@<TRIPOS>BOND
     1    1    2 3   
     2    2    3 1   
     3    3    4 2   
     4    3    5 1   
     5    4    6 1   
     6    4    7 1   
@<TRIPOS>SUBSTRUCTURE
     1 6AC         1 TEMP              0 ****  ****    0 ROOT
