@<TRIPOS>MOLECULE
6AC
    7     6     1     0     0
SMALL
bcc


@<TRIPOS>ATOM
      1 N1         -1.4280   -0.0320    2.1570 n1        1 6AC     -0.364800
      2 C1         -0.7520   -0.0190    1.2090 cg        1 6AC      0.181500
      3 C2          0.0550   -0.0020    0.0420 ce        1 6AC     -0.065700
      4 C3          1.3860   -0.0980    0.0690 c2        1 6AC     -0.156000
      5 H1         -0.5080    0.0980   -0.9040 ha        1 6AC      0.151000
      6 H2          1.9620   -0.1970    0.9990 ha        1 6AC      0.127000
      7 H3          1.9820   -0.0810   -0.8540 ha        1 6AC      0.127000
@<TRIPOS>BOND
     1    1    2 3   
     2    2    3 1   
     3    3    4 2   
     4    3    5 1   
     5    4    6 1   
     6    4    7 1   
@<TRIPOS>SUBSTRUCTURE
     1 6AC         1 TEMP              0 ****  ****    0 ROOT
