@<TRIPOS>MOLECULE
6AC
    7     6     1     0     0
SMALL
bcc


@<TRIPOS>ATOM
      1 N1         -1.4210   -0.0270    2.1600 n1        1 6AC     -0.364800
      2 C1         -0.7470   -0.0180    1.2110 cg        1 6AC      0.181500
      3 C2          0.0570   -0.0060    0.0410 ce        1 6AC     -0.065700
      4 C3          1.3880   -0.0850    0.0670 c2        1 6AC     -0.156000
      5 H1         -0.5100    0.0760   -0.9040 ha        1 6AC      0.151000
      6 H2          1.9680   -0.1670    0.9960 ha        1 6AC      0.127000
      7 H3          1.9820   -0.0730   -0.8580 ha        1 6AC      0.127000
@<TRIPOS>BOND
     1    1    2 3   
     2    2    3 1   
     3    3    4 2   
     4    3    5 1   
     5    4    6 1   
     6    4    7 1   
@<TRIPOS>SUBSTRUCTURE
     1 6AC         1 TEMP              0 ****  ****    0 ROOT
