@<TRIPOS>MOLECULE
6AC
    7     6     1     0     0
SMALL
bcc


@<TRIPOS>ATOM
      1 N1         -1.4260   -0.0380    2.1580 n1        1 6AC     -0.364800
      2 C1         -0.7510   -0.0200    1.2100 cg        1 6AC      0.181500
      3 C2          0.0550    0.0030    0.0420 ce        1 6AC     -0.065700
      4 C3          1.3850   -0.1010    0.0680 c2        1 6AC     -0.156000
      5 H1         -0.5080    0.1150   -0.9020 ha        1 6AC      0.151000
      6 H2          1.9620   -0.2130    0.9960 ha        1 6AC      0.127000
      7 H3          1.9800   -0.0790   -0.8560 ha        1 6AC      0.127000
@<TRIPOS>BOND
     1    1    2 3   
     2    2    3 1   
     3    3    4 2   
     4    3    5 1   
     5    4    6 1   
     6    4    7 1   
@<TRIPOS>SUBSTRUCTURE
     1 6AC         1 TEMP              0 ****  ****    0 ROOT
