@<TRIPOS>MOLECULE
6AC
    7     4     1     0     0
SMALL
bcc


@<TRIPOS>ATOM
      1 N1         -1.7120    0.0270    1.8720 n1        1 6AC     -0.364800
      2 C1         -1.1310    0.0430    0.8910 c1        1 6AC      0.214800
      3 C2         -0.3740    0.0430   -0.4190 c1        1 6AC     -0.070000
      4 C3          0.9730    0.0430   -0.4190 c1        1 6AC     -0.070000
      5 H1         -0.8410    0.0330   -1.2770 ha        1 6AC      0.081500
      6 H2          1.3800   -0.2460    0.4200 DU        1 6AC      0.127000
      7 H3          1.7040    0.0580   -1.0670 ha        1 6AC      0.081500
@<TRIPOS>BOND
     1    1    2 3   
     2    3    4 3   
     3    3    5 1   
     4    4    7 1   
@<TRIPOS>SUBSTRUCTURE
     1 6AC         1 TEMP              0 ****  ****    0 ROOT
