@<TRIPOS>MOLECULE
6AD
   43    45     1     0     0
SMALL
bcc


@<TRIPOS>ATOM
      1 O2B         0.0000    0.0000    0.0000 o         1 6AD     -0.645167
      2 PB          1.6100    0.0000    0.0000 p5        1 6AD      0.826900
      3 O3B         2.1460    0.0000    1.5180 o         1 6AD     -0.645167
      4 O1B         2.1030   -1.2090   -0.6970 o         1 6AD     -0.645167
      5 O3A         2.1470    1.3130   -0.7600 os        1 6AD     -0.473800
      6 PA          3.5460    1.7140   -1.4490 p5        1 6AD      0.936800
      7 O2A         3.6290    1.0550   -2.9160 o         1 6AD     -0.700500
      8 O1A         4.6660    1.2120   -0.6200 o         1 6AD     -0.700500
      9 O5'         3.6450    3.3160   -1.5730 os        1 6AD     -0.489200
     10 C5'         4.8130    3.9890   -2.0470 c3        1 6AD      0.308400
     11 C4'         4.5700    5.4990   -2.0370 c3        1 6AD      0.148100
     12 O4'         4.5010    5.9890   -0.6810 os        1 6AD     -0.356600
     13 C3'         5.7710    6.2410   -2.6650 c3        1 6AD      0.119100
     14 O3'         5.5010    6.5690   -4.0280 oh        1 6AD     -0.559800
     15 C2'         5.9060    7.5230   -1.8130 c3        1 6AD      0.107100
     16 O2'         5.7210    8.6850   -2.6240 oh        1 6AD     -0.549800
     17 C1'         4.7690    7.4050   -0.7730 c3        1 6AD      0.144800
     18 N9          5.2100    7.9250    0.5240 na        1 6AD      0.204000
     19 C8          5.7810    7.2050    1.5320 cc        1 6AD      0.195700
     20 N7          6.0460    7.9840    2.5400 nd        1 6AD     -0.531100
     21 C5          5.6630    9.2510    2.2450 ca        1 6AD     -0.223200
     22 C4          5.1260    9.2280    0.9450 ca        1 6AD      0.270800
     23 N3          4.6720   10.3580    0.4130 nb        1 6AD     -0.648000
     24 C2          4.7230   11.4920    1.0950 ca        1 6AD      0.651300
     25 S1          4.1080   12.9640    0.3470 ss        1 6AD     -0.464400
     26 C11         4.4190   14.1480    1.6800 c3        1 6AD      0.111000
     27 N1          5.2200   11.5580    2.3250 nb        1 6AD     -0.686000
     28 C6          5.7040   10.4780    2.9280 ca        1 6AD      0.455200
     29 N6          6.2190   10.5560    4.2100 nv        1 6AD     -0.575500
     30 H4          5.0310    3.6640   -3.0580 h1        1 6AD     -0.020300
     31 H5          5.6520    3.7530   -1.4030 h1        1 6AD     -0.020300
     32 H6          3.6590    5.7440   -2.5700 h1        1 6AD      0.038700
     33 H7          6.6690    5.6400   -2.5840 h1        1 6AD      0.011700
     34 H8          6.2650    6.3930   -4.5520 ho        1 6AD      0.365000
     35 H9          6.8690    7.5480   -1.3180 h1        1 6AD      0.006700
     36 H10         6.5600    9.0030   -2.9130 ho        1 6AD      0.367000
     37 H11         3.8880    7.9320   -1.1180 h2        1 6AD      0.056700
     38 H12         5.9820    6.1410    1.4990 h5        1 6AD      0.050800
     39 H13         3.8670   13.8500    2.5630 h1        1 6AD      0.022033
     40 H14         4.0970   15.1340    1.3690 h1        1 6AD      0.022033
     41 H15         5.4780   14.1680    1.9050 h1        1 6AD      0.022033
     42 H16         5.7210   11.0540    4.9200 hn        1 6AD      0.247300
     43 H17         7.1190   10.1670    4.4110 hn        1 6AD      0.247300
@<TRIPOS>BOND
     1    1    2 1   
     2    2    3 1   
     3    2    4 1   
     4    2    5 1   
     5    5    6 1   
     6    6    7 1   
     7    6    8 1   
     8    6    9 1   
     9    9   10 1   
    10   10   11 1   
    11   10   30 1   
    12   10   31 1   
    13   11   12 1   
    14   11   13 1   
    15   11   32 1   
    16   12   17 1   
    17   13   14 1   
    18   13   15 1   
    19   13   33 1   
    20   14   34 1   
    21   15   16 1   
    22   15   17 1   
    23   15   35 1   
    24   16   36 1   
    25   17   18 1   
    26   17   37 1   
    27   18   19 1   
    28   18   22 1   
    29   19   20 2   
    30   19   38 1   
    31   20   21 1   
    32   21   22 ar  
    33   21   28 ar  
    34   22   23 ar  
    35   23   24 ar  
    36   24   25 1   
    37   24   27 ar  
    38   25   26 1   
    39   26   39 1   
    40   26   40 1   
    41   26   41 1   
    42   27   28 ar  
    43   28   29 1   
    44   29   42 1   
    45   29   43 1   
@<TRIPOS>SUBSTRUCTURE
     1 6AD         1 TEMP              0 ****  ****    0 ROOT
