@<TRIPOS>MOLECULE
6AH
   24    23     1     0     0
SMALL
bcc


@<TRIPOS>ATOM
      1 O           0.0040   -0.0010    0.1070 oh        1 6AH     -0.596800
      2 C1          1.4170    0.0000    0.0010 c3        1 6AH      0.135400
      3 C2          1.9550    0.0000    1.4230 c3        1 6AH     -0.087400
      4 C3          3.4670    0.0010    1.4230 c3        1 6AH     -0.078400
      5 C4          3.9960    0.0010    2.8430 c3        1 6AH     -0.078400
      6 C5          5.5130    0.0020    2.8490 c3        1 6AH     -0.111400
      7 C6          6.0050    0.0010    4.2910 c3        1 6AH      0.098800
      8 N           7.4960    0.0020    4.3900 n4        1 6AH     -0.839600
      9 H1         -0.3430   -0.0010   -0.7930 ho        1 6AH      0.412000
     10 H2          1.5650   -0.9030    1.9620 hc        1 6AH      0.062700
     11 H3          1.5630    0.9020    1.9630 hc        1 6AH      0.062700
     12 H4          3.8470   -0.9020    0.8770 hc        1 6AH      0.048700
     13 H5          3.8450    0.9060    0.8780 hc        1 6AH      0.048700
     14 H6          3.6130    0.9050    3.3860 hc        1 6AH      0.059700
     15 H7          3.6140   -0.9050    3.3850 hc        1 6AH      0.059700
     16 H8          5.8880    0.9100    2.3060 hc        1 6AH      0.069700
     17 H9          5.8890   -0.9050    2.3050 hc        1 6AH      0.069700
     18 H10         5.6270   -0.9170    4.8280 hx        1 6AH      0.114700
     19 H11         5.6260    0.9180    4.8300 hx        1 6AH      0.114700
     20 H12         7.8800   -0.8290    3.9280 hn        1 6AH      0.461800
     21 H13         7.8780    0.8350    3.9290 hn        1 6AH      0.461800
     22 H16         1.7640   -0.9130   -0.5540 h1        1 6AH      0.024700
     23 H14         1.7630    0.9150   -0.5530 h1        1 6AH      0.024700
     24 HN3         7.7840    0.0020    5.3730 hn        1 6AH      0.461800
@<TRIPOS>BOND
     1    1    2 1   
     2    1    9 1   
     3    2    3 1   
     4    2   22 1   
     5    2   23 1   
     6    3    4 1   
     7    3   10 1   
     8    3   11 1   
     9    4    5 1   
    10    4   12 1   
    11    4   13 1   
    12    5    6 1   
    13    5   14 1   
    14    5   15 1   
    15    6    7 1   
    16    6   16 1   
    17    6   17 1   
    18    7    8 1   
    19    7   18 1   
    20    7   19 1   
    21    8   20 1   
    22    8   21 1   
    23    8   24 1   
@<TRIPOS>SUBSTRUCTURE
     1 6AH         1 TEMP              0 ****  ****    0 ROOT
