@<TRIPOS>MOLECULE
6AH
   24    23     1     0     0
SMALL
bcc


@<TRIPOS>ATOM
      1 O           0.0040   -0.0070    0.1080 oh        1 6AH     -0.596800
      2 C1          1.4170   -0.0000    0.0020 c3        1 6AH      0.135400
      3 C2          1.9540   -0.0020    1.4240 c3        1 6AH     -0.087400
      4 C3          3.4670    0.0030    1.4240 c3        1 6AH     -0.078400
      5 C4          3.9960    0.0010    2.8430 c3        1 6AH     -0.078400
      6 C5          5.5130    0.0030    2.8490 c3        1 6AH     -0.111400
      7 C6          6.0050    0.0020    4.2900 c3        1 6AH      0.098800
      8 N           7.4960    0.0030    4.3890 n4        1 6AH     -0.839600
      9 H1         -0.3440   -0.0050   -0.7920 ho        1 6AH      0.412000
     10 H2          1.5620    0.8990    1.9650 hc        1 6AH      0.062700
     11 H3          1.5670   -0.9070    1.9610 hc        1 6AH      0.062700
     12 H4          3.8430    0.9090    0.8790 hc        1 6AH      0.048700
     13 H5          3.8480   -0.9000    0.8760 hc        1 6AH      0.048700
     14 H6          3.6150   -0.9050    3.3840 hc        1 6AH      0.059700
     15 H7          3.6120    0.9050    3.3870 hc        1 6AH      0.059700
     16 H8          5.8890   -0.9030    2.3030 hc        1 6AH      0.069700
     17 H9          5.8870    0.9120    2.3060 hc        1 6AH      0.069700
     18 H10         5.6280   -0.9170    4.8270 hx        1 6AH      0.114700
     19 H11         5.6260    0.9180    4.8300 hx        1 6AH      0.114700
     20 H12         7.8790    0.8360    3.9290 hn        1 6AH      0.461800
     21 H13         7.8800   -0.8280    3.9270 hn        1 6AH      0.461800
     22 H16         1.7670   -0.9100   -0.5550 h1        1 6AH      0.024700
     23 H14         1.7590    0.9170   -0.5500 h1        1 6AH      0.024700
     24 HN3         7.7840    0.0020    5.3730 hn        1 6AH      0.461800
@<TRIPOS>BOND
     1    1    2 1   
     2    1    9 1   
     3    2    3 1   
     4    2   22 1   
     5    2   23 1   
     6    3    4 1   
     7    3   10 1   
     8    3   11 1   
     9    4    5 1   
    10    4   12 1   
    11    4   13 1   
    12    5    6 1   
    13    5   14 1   
    14    5   15 1   
    15    6    7 1   
    16    6   16 1   
    17    6   17 1   
    18    7    8 1   
    19    7   18 1   
    20    7   19 1   
    21    8   20 1   
    22    8   21 1   
    23    8   24 1   
@<TRIPOS>SUBSTRUCTURE
     1 6AH         1 TEMP              0 ****  ****    0 ROOT
