@<TRIPOS>MOLECULE
6AH
   23    22     1     0     0
SMALL
bcc


@<TRIPOS>ATOM
      1 O           4.2120   -0.3480   -0.0220 oh        1 6AH     -0.601800
      2 C1          3.0790    0.5060    0.0160 c3        1 6AH      0.132400
      3 C2          1.8490   -0.3840   -0.0130 c3        1 6AH     -0.084400
      4 C3          0.5880    0.4500    0.0130 c3        1 6AH     -0.078400
      5 C4         -0.6460   -0.4270   -0.0080 c3        1 6AH     -0.078400
      6 C5         -1.9080    0.4080    0.0110 c3        1 6AH     -0.083400
      7 C6         -3.1390   -0.4970   -0.0040 c3        1 6AH      0.158800
      8 N          -4.3850    0.2290    0.0630 n3        1 6AH     -0.916800
      9 H1          4.9880    0.2240    0.0040 ho        1 6AH      0.399000
     10 H2          1.8750   -1.0210   -0.9350 hc        1 6AH      0.055200
     11 H3          1.8740   -1.0770    0.8680 hc        1 6AH      0.055200
     12 H4          0.5770    1.0910    0.9340 hc        1 6AH      0.040700
     13 H5          0.5730    1.1410   -0.8710 hc        1 6AH      0.040700
     14 H6         -0.6320   -1.0720   -0.9260 hc        1 6AH      0.042200
     15 H7         -0.6330   -1.1130    0.8790 hc        1 6AH      0.042200
     16 H8         -1.9220    1.0530    0.9280 hc        1 6AH      0.046200
     17 H9         -1.9230    1.0900   -0.8780 hc        1 6AH      0.046200
     18 H10        -3.0730   -1.1590   -0.9190 h1        1 6AH      0.024200
     19 H11        -3.1010   -1.1770    0.8950 h1        1 6AH      0.024200
     20 H12        -4.4200    0.9510   -0.6290 hn        1 6AH      0.348300
     21 H13        -5.1570   -0.3930   -0.0710 hn        1 6AH      0.348300
     22 H16         3.0980    1.1250    0.9530 h1        1 6AH      0.020200
     23 H14         3.0900    1.1950   -0.8720 h1        1 6AH      0.020200
@<TRIPOS>BOND
     1    1    2 1   
     2    1    9 1   
     3    2    3 1   
     4    2   22 1   
     5    2   23 1   
     6    3    4 1   
     7    3   10 1   
     8    3   11 1   
     9    4    5 1   
    10    4   12 1   
    11    4   13 1   
    12    5    6 1   
    13    5   14 1   
    14    5   15 1   
    15    6    7 1   
    16    6   16 1   
    17    6   17 1   
    18    7    8 1   
    19    7   18 1   
    20    7   19 1   
    21    8   20 1   
    22    8   21 1   
@<TRIPOS>SUBSTRUCTURE
     1 6AH         1 TEMP              0 ****  ****    0 ROOT
