@<TRIPOS>MOLECULE
6AH
   23    22     1     0     0
SMALL
bcc


@<TRIPOS>ATOM
      1 O          -3.8550   -0.0020   -2.2340 oh        1 6AH     -0.601800
      2 C1         -2.4450   -0.0020   -2.2340 c3        1 6AH      0.132400
      3 C2         -1.9410   -0.0020   -0.8070 c3        1 6AH     -0.084400
      4 C3         -0.4280    0.0000   -0.8070 c3        1 6AH     -0.078400
      5 C4          0.0770   -0.0020    0.6190 c3        1 6AH     -0.078400
      6 C5          1.5890    0.0030    0.6190 c3        1 6AH     -0.083400
      7 C6          2.0940   -0.0010    2.0460 c3        1 6AH      0.158800
      8 N           3.5200    0.0050    2.0460 n3        1 6AH     -0.916800
      9 H1         -4.1510   -0.0020   -3.0700 ho        1 6AH      0.399000
     10 H2         -2.2650   -0.7990   -0.3470 hc        1 6AH      0.055200
     11 H3         -2.2670    0.7950   -0.3470 hc        1 6AH      0.055200
     12 H4         -0.1010   -0.7960   -1.2690 hc        1 6AH      0.040700
     13 H5         -0.1030    0.7980   -1.2660 hc        1 6AH      0.040700
     14 H6         -0.2470   -0.8010    1.0780 hc        1 6AH      0.042200
     15 H7         -0.2510    0.7940    1.0810 hc        1 6AH      0.042200
     16 H8          1.9130    0.8020    0.1620 hc        1 6AH      0.046200
     17 H9          1.9170   -0.7920    0.1560 hc        1 6AH      0.046200
     18 H10         1.7650    0.7930    2.5090 h1        1 6AH      0.024200
     19 H11         1.7720   -0.8010    2.5030 h1        1 6AH      0.024200
     20 H12         3.8210    0.7490    2.4790 hn        1 6AH      0.348300
     21 H13         3.8270   -0.7400    2.4720 hn        1 6AH      0.348300
     22 H16        -2.1190    0.7950   -2.6940 h1        1 6AH      0.020200
     23 H14        -2.1190   -0.7990   -2.6940 h1        1 6AH      0.020200
@<TRIPOS>BOND
     1    1    2 1   
     2    1    9 1   
     3    2    3 1   
     4    2   22 1   
     5    2   23 1   
     6    3    4 1   
     7    3   10 1   
     8    3   11 1   
     9    4    5 1   
    10    4   12 1   
    11    4   13 1   
    12    5    6 1   
    13    5   14 1   
    14    5   15 1   
    15    6    7 1   
    16    6   16 1   
    17    6   17 1   
    18    7    8 1   
    19    7   18 1   
    20    7   19 1   
    21    8   20 1   
    22    8   21 1   
@<TRIPOS>SUBSTRUCTURE
     1 6AH         1 TEMP              0 ****  ****    0 ROOT
