@<TRIPOS>MOLECULE
6AI
   17    18     1     0     0
SMALL
bcc


@<TRIPOS>ATOM
      1 NAA        -0.0360   -0.1480   -0.0070 nv        1 6AI     -0.825200
      2 CAB         2.3630   -0.1380    0.4520 ca        1 6AI     -0.215000
      3 CAC         3.6800   -0.1360    0.0300 ca        1 6AI     -0.026000
      4 CAD         5.1460   -0.0030   -2.1710 cc        1 6AI      0.365800
      5 CAE         1.5300    0.0620   -1.8540 ca        1 6AI     -0.219000
      6 NAF         4.7950    0.1040   -3.4630 nd        1 6AI     -0.527100
      7 NAG         3.4540    0.2100   -3.5410 na        1 6AI     -0.021100
      8 CAH         1.2770   -0.0490   -0.4720 ca        1 6AI      0.177600
      9 CAI         3.9540   -0.0440   -1.3300 ca        1 6AI     -0.255900
     10 CAJ         2.8620    0.0560   -2.2690 ca        1 6AI     -0.017200
     11 HNAA       -0.7270    0.2320   -0.6140 hn        1 6AI      0.395300
     12 HNAB       -0.1620    0.0990    0.9490 hn        1 6AI      0.395300
     13 HAC         4.5000   -0.2030    0.7610 ha        1 6AI      0.138000
     14 HAD         6.1850   -0.0470   -1.8430 h4        1 6AI      0.051800
     15 HAE         0.7120    0.1410   -2.5820 ha        1 6AI      0.139000
     16 HNAG        3.0070   -0.0280   -4.3970 hn        1 6AI      0.309700
     17 HAB         2.1450   -0.2190    1.5280 ha        1 6AI      0.133000
@<TRIPOS>BOND
     1    1    8 1   
     2    1   11 1   
     3    1   12 1   
     4    2    3 ar  
     5    2    8 ar  
     6    2   17 1   
     7    3    9 ar  
     8    3   13 1   
     9    4    6 2   
    10    4    9 1   
    11    4   14 1   
    12    5    8 ar  
    13    5   10 ar  
    14    5   15 1   
    15    6    7 1   
    16    7   10 1   
    17    7   16 1   
    18    9   10 ar  
@<TRIPOS>SUBSTRUCTURE
     1 6AI         1 TEMP              0 ****  ****    0 ROOT
