@<TRIPOS>MOLECULE
6AI
   17    18     1     0     0
SMALL
bcc


@<TRIPOS>ATOM
      1 NAA         3.1920   -0.6300   -0.1630 nh        1 6AI     -0.825200
      2 CAB         1.5880    1.2080   -0.0440 ca        1 6AI     -0.215000
      3 CAC         0.2910    1.6900   -0.0210 ca        1 6AI     -0.026000
      4 CAD        -2.2210    0.8570    0.0360 cc        1 6AI      0.365800
      5 CAE         0.8180   -1.1280   -0.0060 ca        1 6AI     -0.219000
      6 NAF        -2.7440   -0.3800    0.0570 nd        1 6AI     -0.527100
      7 NAG        -1.7380   -1.2750    0.1120 na        1 6AI     -0.021100
      8 CAH         1.8710   -0.1920   -0.0460 ca        1 6AI      0.177600
      9 CAI        -0.7650    0.7850    0.0030 ca        1 6AI     -0.255900
     10 CAJ        -0.4860   -0.6320    0.0110 ca        1 6AI     -0.017200
     11 HNAA        3.8780    0.0260    0.1340 hn        1 6AI      0.395300
     12 HNAB        3.3570   -1.5570    0.1570 hn        1 6AI      0.395300
     13 HAC         0.0980    2.7730   -0.0170 ha        1 6AI      0.138000
     14 HAD        -2.8370    1.7580    0.0470 h4        1 6AI      0.051800
     15 HAE         1.0110   -2.2080    0.0030 ha        1 6AI      0.139000
     16 HNAG       -1.9140   -2.2060   -0.1910 hn        1 6AI      0.309700
     17 HAB         2.4240    1.9240   -0.0700 ha        1 6AI      0.133000
@<TRIPOS>BOND
     1    1    8 1   
     2    1   11 1   
     3    1   12 1   
     4    2    3 ar  
     5    2    8 ar  
     6    2   17 1   
     7    3    9 ar  
     8    3   13 1   
     9    4    6 2   
    10    4    9 1   
    11    4   14 1   
    12    5    8 ar  
    13    5   10 ar  
    14    5   15 1   
    15    6    7 1   
    16    7   10 1   
    17    7   16 1   
    18    9   10 ar  
@<TRIPOS>SUBSTRUCTURE
     1 6AI         1 TEMP              0 ****  ****    0 ROOT
