@<TRIPOS>MOLECULE
6AI
   17    18     1     0     0
SMALL
bcc


@<TRIPOS>ATOM
      1 NAA        -0.0430   -0.1440   -0.0210 nh        1 6AI     -0.825200
      2 CAB         2.3540   -0.1520    0.4500 ca        1 6AI     -0.215000
      3 CAC         3.6740   -0.1540    0.0340 ca        1 6AI     -0.026000
      4 CAD         5.1500   -0.0090   -2.1590 cc        1 6AI      0.365800
      5 CAE         1.5330    0.0740   -1.8590 ca        1 6AI     -0.219000
      6 NAF         4.8060    0.1120   -3.4520 nd        1 6AI     -0.527100
      7 NAG         3.4660    0.2270   -3.5350 na        1 6AI     -0.021100
      8 CAH         1.2730   -0.0480   -0.4790 ca        1 6AI      0.177600
      9 CAI         3.9540   -0.0510   -1.3240 ca        1 6AI     -0.255900
     10 CAJ         2.8670    0.0650   -2.2670 ca        1 6AI     -0.017200
     11 HNAA       -0.7280    0.2460   -0.6270 hn        1 6AI      0.395300
     12 HNAB       -0.1710    0.0950    0.9370 hn        1 6AI      0.395300
     13 HAC         4.4900   -0.2330    0.7680 ha        1 6AI      0.138000
     14 HAD         6.1870   -0.0630   -1.8270 h4        1 6AI      0.051800
     15 HAE         0.7190    0.1650   -2.5900 ha        1 6AI      0.139000
     16 HNAG        3.0220   -0.0010   -4.3950 hn        1 6AI      0.309700
     17 HAB         2.1310   -0.2420    1.5240 ha        1 6AI      0.133000
@<TRIPOS>BOND
     1    1    8 1   
     2    1   11 1   
     3    1   12 1   
     4    2    3 ar  
     5    2    8 ar  
     6    2   17 1   
     7    3    9 ar  
     8    3   13 1   
     9    4    6 2   
    10    4    9 1   
    11    4   14 1   
    12    5    8 ar  
    13    5   10 ar  
    14    5   15 1   
    15    6    7 1   
    16    7   10 1   
    17    7   16 1   
    18    9   10 ar  
@<TRIPOS>SUBSTRUCTURE
     1 6AI         1 TEMP              0 ****  ****    0 ROOT
