@<TRIPOS>MOLECULE
6AI
   18    19     1     0     0
SMALL
bcc


@<TRIPOS>ATOM
      1 NAA        -0.0600    0.0320    0.0040 n4        1 6AI     -0.703000
      2 CAB         2.3670   -0.0790    0.4480 ca        1 6AI     -0.160000
      3 CAC         3.6890   -0.1050    0.0270 ca        1 6AI     -0.014000
      4 CAD         5.1580   -0.0450   -2.1670 cc        1 6AI      0.361800
      5 CAE         1.5370    0.0710   -1.8790 ca        1 6AI     -0.101000
      6 NAF         4.8080    0.0350   -3.4670 nd        1 6AI     -0.446100
      7 NAG         3.4750    0.0880   -3.5560 na        1 6AI      0.002900
      8 CAH         1.3170    0.0080   -0.5000 ca        1 6AI     -0.043400
      9 CAI         3.9630   -0.0450   -1.3360 ca        1 6AI     -0.173900
     10 CAJ         2.8730    0.0440   -2.2950 ca        1 6AI     -0.048200
     11 HNAA       -0.2430   -0.8280    0.5350 hn        1 6AI      0.463800
     12 HNAB       -0.1820    0.8410    0.6240 hn        1 6AI      0.463800
     13 HAD         6.2000   -0.1000   -1.8400 h4        1 6AI      0.086800
     14 HAE         0.7200    0.1390   -2.6140 ha        1 6AI      0.161000
     15 HNAG        3.0270    0.1500   -4.4430 hn        1 6AI      0.349700
     16 HAB         2.1470   -0.1270    1.5270 ha        1 6AI      0.157000
     17 HAA3       -0.7250    0.0970   -0.7730 hn        1 6AI      0.463800
     18 HAC         4.5080   -0.1730    0.7630 ha        1 6AI      0.179000
@<TRIPOS>BOND
     1    1    8 1   
     2    1   11 1   
     3    1   12 1   
     4    1   17 1   
     5    2    3 ar  
     6    2    8 ar  
     7    2   16 1   
     8    3    9 ar  
     9    3   18 1   
    10    4    6 2   
    11    4    9 1   
    12    4   13 1   
    13    5    8 ar  
    14    5   10 ar  
    15    5   14 1   
    16    6    7 1   
    17    7   10 1   
    18    7   15 1   
    19    9   10 ar  
@<TRIPOS>SUBSTRUCTURE
     1 6AI         1 TEMP              0 ****  ****    0 ROOT
