@<TRIPOS>MOLECULE
6AI
   17    13     1     0     0
SMALL
bcc


@<TRIPOS>ATOM
      1 NAA        -2.6540   -0.0000    1.2170 n3        1 6AI     -0.773400
      2 CAB        -0.2720   -0.0000    1.6640 c1        1 6AI     -0.068500
      3 CAC         1.0390   -0.0000    1.2170 c1        1 6AI     -0.068500
      4 CAD         2.5000   -0.0000   -0.8740 c1        1 6AI      0.140900
      5 CAE        -1.0450   -0.0000   -0.6060 c1        1 6AI     -0.059500
      6 NAF         2.1980   -0.0000   -2.1940 ne        1 6AI     -0.341400
      7 NAG         0.8280   -0.0000   -2.3180 ne        1 6AI     -0.341400
      8 CAH        -1.3140   -0.0000    0.7530 c1        1 6AI      0.071800
      9 CAI         1.3130   -0.0000   -0.1640 c1        1 6AI     -0.135000
     10 CAJ         0.2880   -0.0000   -1.0600 c1        1 6AI      0.140900
     11 HNAA       -3.0870    0.7900    1.3620 hn        1 6AI      0.361800
     12 HNAB       -3.0870   -0.7900    1.3620 hn        1 6AI      0.361800
     13 HAB        -0.4620   -0.0000    2.6220 ha        1 6AI      0.076500
     14 HAC         1.7740   -0.0000    1.8600 ha        1 6AI      0.076500
     15 HAD         3.3980   -0.0000   -0.4910 DU        1 6AI      0.230500
     16 HAE        -1.7800   -0.0000   -1.2490 ha        1 6AI      0.095500
     17 HNAG        0.3610   -0.0000   -3.1010 DU        1 6AI      0.230500
@<TRIPOS>BOND
     1    1    8 1   
     2    1   11 1   
     3    1   12 1   
     4    2    3 3   
     5    2   13 1   
     6    3   14 1   
     7    4    6 2   
     8    4    9 2   
     9    5    8 3   
    10    5   16 1   
    11    6    7 1   
    12    7   10 2   
    13    9   10 2   
@<TRIPOS>SUBSTRUCTURE
     1 6AI         1 TEMP              0 ****  ****    0 ROOT
