@<TRIPOS>MOLECULE
6AM
   16    16     1     0     0
SMALL
bcc


@<TRIPOS>ATOM
      1 OAC        -0.0280    0.2380   -0.2040 oh        1 6AM     -0.470300
      2 CAI         1.3040    0.1520   -0.0850 ca        1 6AM      0.985300
      3 NAF         1.9250    0.1560    1.1610 nb        1 6AM     -0.687000
      4 NAE         1.9740    0.0600   -1.3070 nb        1 6AM     -0.687000
      5 CAG         3.3250   -0.0280   -1.1900 ca        1 6AM      0.827400
      6 NAA         4.0980   -0.1290   -2.4640 n4        1 6AM     -0.826300
      7 NAD         4.0650   -0.0350   -0.0180 nb        1 6AM     -0.731000
      8 CAH         3.2840    0.0610    1.1120 ca        1 6AM      0.827400
      9 NAB         4.0010    0.0610    2.4230 n4        1 6AM     -0.826300
     10 H1          4.6330   -1.0140   -2.4730 hn        1 6AM      0.510633
     11 H2          4.7530    0.6670   -2.5330 hn        1 6AM      0.510633
     12 H4          5.0220   -0.0190    2.2820 hn        1 6AM      0.510633
     13 H5          3.7920    0.9420    2.9250 hn        1 6AM      0.510633
     14 H3         -0.4740    0.3020    0.6760 ho        1 6AM      0.523000
     15 HAA3        3.4520   -0.1120   -3.2760 hn        1 6AM      0.510633
     16 HAB3        3.6700   -0.7370    2.9930 hn        1 6AM      0.510633
@<TRIPOS>BOND
     1    1    2 1   
     2    1   14 1   
     3    2    3 ar  
     4    2    4 ar  
     5    3    8 ar  
     6    4    5 ar  
     7    5    6 1   
     8    5    7 ar  
     9    6   10 1   
    10    6   11 1   
    11    6   15 1   
    12    7    8 ar  
    13    8    9 1   
    14    9   12 1   
    15    9   13 1   
    16    9   16 1   
@<TRIPOS>SUBSTRUCTURE
     1 6AM         1 TEMP              0 ****  ****    0 ROOT
