@<TRIPOS>MOLECULE
6AM
   14    14     1     0     0
SMALL
bcc


@<TRIPOS>ATOM
      1 OAC        -0.0070    0.1720   -0.1580 oh        1 6AM     -0.581300
      2 CAI         1.3650    0.1210   -0.0880 ca        1 6AM      0.920300
      3 NAF         1.9470    0.1390    1.1560 nb        1 6AM     -0.849500
      4 NAE         1.9790    0.0580   -1.3070 nb        1 6AM     -0.849500
      5 CAG         3.3730   -0.0110   -1.2150 ca        1 6AM      0.946400
      6 NAA         4.0780   -0.1560   -2.3970 nh        1 6AM     -0.945000
      7 NAD         4.1010    0.0170   -0.0340 nb        1 6AM     -0.865000
      8 CAH         3.3390    0.1040    1.1230 ca        1 6AM      0.946400
      9 NAB         4.0130    0.2060    2.3290 nh        1 6AM     -0.945000
     10 H1          5.0640   -0.0600   -2.3830 hn        1 6AM      0.444550
     11 H2          3.5970   -0.0460   -3.2560 hn        1 6AM      0.444550
     12 H4          3.4980    0.1030    3.1690 hn        1 6AM      0.444550
     13 H5          4.9860    0.0170    2.3450 hn        1 6AM      0.444550
     14 H3         -0.3590    0.2230    0.7490 ho        1 6AM      0.446000
@<TRIPOS>BOND
     1    1    2 1   
     2    1   14 1   
     3    2    3 ar  
     4    2    4 ar  
     5    3    8 ar  
     6    4    5 ar  
     7    5    6 1   
     8    5    7 ar  
     9    6   10 1   
    10    6   11 1   
    11    7    8 ar  
    12    8    9 1   
    13    9   12 1   
    14    9   13 1   
@<TRIPOS>SUBSTRUCTURE
     1 6AM         1 TEMP              0 ****  ****    0 ROOT
