@<TRIPOS>MOLECULE
6AM
   14    14     1     0     0
SMALL
bcc


@<TRIPOS>ATOM
      1 OAC        -0.0080    0.0700   -0.1910 oh        1 6AM     -0.581300
      2 CAI         1.3650    0.0650   -0.1070 ca        1 6AM      0.920300
      3 NAF         1.9340    0.1310    1.1410 nb        1 6AM     -0.849500
      4 NAE         1.9930   -0.0070   -1.3190 nb        1 6AM     -0.849500
      5 CAG         3.3880   -0.0280   -1.2130 ca        1 6AM      0.946400
      6 NAA         4.1080   -0.1770   -2.3840 nv        1 6AM     -0.945000
      7 NAD         4.1020    0.0520   -0.0260 nb        1 6AM     -0.865000
      8 CAH         3.3260    0.1410    1.1210 ca        1 6AM      0.946400
      9 NAB         3.9850    0.2940    2.3320 nv        1 6AM     -0.945000
     10 H1          5.0900   -0.0490   -2.3630 hn        1 6AM      0.444550
     11 H2          3.6320   -0.1030   -3.2500 hn        1 6AM      0.444550
     12 H4          3.4650    0.1940    3.1690 hn        1 6AM      0.444550
     13 H5          4.9630    0.1380    2.3610 hn        1 6AM      0.444550
     14 H3         -0.3700    0.1300    0.7110 ho        1 6AM      0.446000
@<TRIPOS>BOND
     1    1    2 1   
     2    1   14 1   
     3    2    3 ar  
     4    2    4 ar  
     5    3    8 ar  
     6    4    5 ar  
     7    5    6 1   
     8    5    7 ar  
     9    6   10 1   
    10    6   11 1   
    11    7    8 ar  
    12    8    9 1   
    13    9   12 1   
    14    9   13 1   
@<TRIPOS>SUBSTRUCTURE
     1 6AM         1 TEMP              0 ****  ****    0 ROOT
