@<TRIPOS>MOLECULE
6AM
   14    11     1     0     0
SMALL
bcc


@<TRIPOS>ATOM
      1 OAC        -2.9910   -0.0530   -0.0000 oh        1 6AM     -0.210000
      2 CAI        -1.5840   -0.0530   -0.0000 c2        1 6AM      0.224000
      3 NAF        -0.9130   -0.0530    1.1610 n2        1 6AM     -0.362000
      4 NAE        -0.9130   -0.0530   -1.1620 n1        1 6AM     -0.285000
      5 CAG         0.4280   -0.0530   -1.1620 c1        1 6AM      0.223000
      6 NAA         1.1370   -0.0680   -2.3900 n2        1 6AM     -0.343000
      7 NAD         1.0980   -0.0530    0.0000 n1        1 6AM     -0.339000
      8 CAH         0.4280   -0.0530    1.1620 c1        1 6AM      0.232000
      9 NAB         1.1370   -0.0640    2.3900 n3        1 6AM     -0.342000
     10 H1          1.3700    0.7170   -2.7920 hn        1 6AM      0.241500
     11 H2          1.3610   -0.8630   -2.7780 hn        1 6AM      0.241500
     12 H4          0.6810   -0.0660    3.1800 hn        1 6AM      0.238000
     13 H5          2.0490   -0.0650    2.3900 hn        1 6AM      0.238000
     14 H3         -3.2870    0.7830   -0.0000 ho        1 6AM      0.245000
@<TRIPOS>BOND
     1    1    2 1   
     2    1   14 1   
     3    2    3 1   
     4    2    4 1   
     5    3    8 1   
     6    5    7 1   
     7    6   10 1   
     8    6   11 1   
     9    8    9 1   
    10    9   12 1   
    11    9   13 1   
@<TRIPOS>SUBSTRUCTURE
     1 6AM         1 TEMP              0 ****  ****    0 ROOT
