@<TRIPOS>MOLECULE
6AM
   14    14     1     0     0
SMALL
bcc


@<TRIPOS>ATOM
      1 OAC        -2.6750    0.2270    0.2490 oh        1 6AM     -0.581300
      2 CAI        -1.3060    0.1250    0.1600 ca        1 6AM      0.920300
      3 NAF        -0.7540   -1.1320    0.1460 nb        1 6AM     -0.849500
      4 NAE        -0.6650    1.3300    0.0960 nb        1 6AM     -0.849500
      5 CAG         0.7240    1.2060   -0.0120 ca        1 6AM      0.946400
      6 NAA         1.4530    2.3720   -0.1610 nh        1 6AM     -0.945000
      7 NAD         1.4240    0.0070   -0.0190 nb        1 6AM     -0.865000
      8 CAH         0.6360   -1.1320    0.0740 ca        1 6AM      0.946400
      9 NAB         1.2840   -2.3560    0.1410 nh        1 6AM     -0.945000
     10 H1          0.9960    3.2410   -0.0260 hn        1 6AM      0.444550
     11 H2          2.4400    2.3330   -0.0920 hn        1 6AM      0.444550
     12 H4          2.2510   -2.3920   -0.0740 hn        1 6AM      0.444550
     13 H5          0.7460   -3.1820    0.0410 hn        1 6AM      0.444550
     14 H3         -3.0470   -0.6720    0.2980 ho        1 6AM      0.446000
@<TRIPOS>BOND
     1    1    2 1   
     2    1   14 1   
     3    2    3 ar  
     4    2    4 ar  
     5    3    8 ar  
     6    4    5 ar  
     7    5    6 1   
     8    5    7 ar  
     9    6   10 1   
    10    6   11 1   
    11    7    8 ar  
    12    8    9 1   
    13    9   12 1   
    14    9   13 1   
@<TRIPOS>SUBSTRUCTURE
     1 6AM         1 TEMP              0 ****  ****    0 ROOT
