@<TRIPOS>MOLECULE
6AN
   33    35     1     0     0
SMALL
bcc


@<TRIPOS>ATOM
      1 C7          0.9280   -1.4240   -0.0230 ca        1 6AN     -0.103000
      2 C8         -0.4380   -1.0390   -0.0450 ca        1 6AN     -0.018000
      3 C16        -1.4430   -1.8930   -0.5740 ca        1 6AN     -0.172000
      4 C15        -2.7570   -1.4930   -0.5870 ca        1 6AN     -0.031000
      5 C14        -3.1470   -0.2330   -0.0750 ca        1 6AN     -0.243500
      6 S          -4.8680    0.2370   -0.1010 s6        1 6AN      1.459100
      7 O3         -5.4000   -0.2770    1.1010 o         1 6AN     -0.742533
      8 O1         -4.8450    1.6490   -0.1550 o         1 6AN     -0.742533
      9 O2         -5.3830   -0.3850   -1.2610 o         1 6AN     -0.742533
     10 C13        -2.1880    0.6070    0.4340 ca        1 6AN     -0.035000
     11 C12        -0.8180    0.2300    0.4640 ca        1 6AN     -0.061000
     12 C11         0.1890    1.0840    0.9880 ca        1 6AN     -0.096000
     13 C10         1.5060    0.7090    0.9910 ca        1 6AN     -0.174000
     14 C9          1.9050   -0.5680    0.4740 ca        1 6AN      0.103400
     15 N           3.2410   -1.0170    0.5470 ne        1 6AN     -0.556100
     16 C6          4.2510   -0.3140    0.1320 cf        1 6AN      0.500900
     17 C1          5.6120   -0.8650    0.3070 cf        1 6AN     -0.228600
     18 C2          6.7100   -0.1810   -0.0390 c2        1 6AN     -0.157200
     19 C3          6.6820    1.1760   -0.6340 c3        1 6AN     -0.024000
     20 C4          5.3090    1.6770   -0.8790 c2        1 6AN     -0.157200
     21 C5          4.2050    1.0040   -0.5310 cf        1 6AN     -0.228600
     22 H7          1.1940   -2.4160   -0.4190 ha        1 6AN      0.133000
     23 H16        -1.1450   -2.8740   -0.9720 ha        1 6AN      0.116000
     24 H15        -3.5430   -2.1420   -1.0110 ha        1 6AN      0.149000
     25 H13        -2.4780    1.6010    0.8180 ha        1 6AN      0.149000
     26 H11        -0.1150    2.0610    1.3940 ha        1 6AN      0.129000
     27 H10         2.2720    1.3770    1.4110 ha        1 6AN      0.122000
     28 H1          5.6870   -1.8740    0.7460 ha        1 6AN      0.147000
     29 H5          3.2010    1.4110   -0.7460 ha        1 6AN      0.147000
     30 H2          7.7130   -0.6120    0.1100 ha        1 6AN      0.121500
     31 H31C        7.2210    1.8910    0.0500 hc        1 6AN      0.058200
     32 H32C        7.2500    1.1650   -1.6070 hc        1 6AN      0.058200
     33 H4          5.2430    2.6560   -1.3780 ha        1 6AN      0.121500
@<TRIPOS>BOND
     1    1    2 ar  
     2    1   14 ar  
     3    1   22 1   
     4    2    3 ar  
     5    2   11 ar  
     6    3    4 ar  
     7    3   23 1   
     8    4    5 ar  
     9    4   24 1   
    10    5    6 1   
    11    5   10 ar  
    12    6    7 1   
    13    6    8 1   
    14    6    9 1   
    15   10   11 ar  
    16   10   25 1   
    17   11   12 ar  
    18   12   13 ar  
    19   12   26 1   
    20   13   14 ar  
    21   13   27 1   
    22   14   15 1   
    23   15   16 2   
    24   16   17 1   
    25   16   21 1   
    26   17   18 2   
    27   17   28 1   
    28   18   19 1   
    29   18   30 1   
    30   19   20 1   
    31   19   31 1   
    32   19   32 1   
    33   20   21 2   
    34   20   33 1   
    35   21   29 1   
@<TRIPOS>SUBSTRUCTURE
     1 6AN         1 TEMP              0 ****  ****    0 ROOT
