@<TRIPOS>MOLECULE
6AN
   33    27     1     0     0
SMALL
bcc


@<TRIPOS>ATOM
      1 C7         -0.0700   -0.7260    0.8790 c1        1 6AN     -0.042000
      2 C8          1.3370   -0.7790    0.8890 cg        1 6AN     -0.039500
      3 C16         2.0340   -0.7500    2.1120 c1        1 6AN     -0.062750
      4 C15         3.4220   -0.8020    2.1210 c1        1 6AN     -0.062750
      5 C14         4.1240   -0.8830    0.9220 c1        1 6AN     -0.229400
      6 S           5.8910   -0.7590    0.8410 s4        1 6AN      1.630200
      7 O3          6.2970    0.5960    0.3130 os        1 6AN     -1.062000
      8 O1          6.5220   -1.0340    2.1850 o         1 6AN     -0.674900
      9 O2          6.4810   -1.8710    0.0070 o         1 6AN     -0.674900
     10 C13         3.4370   -0.9120   -0.2850 c1        1 6AN      0.022500
     11 C12         2.0300   -0.8590   -0.2950 cg        1 6AN     -0.039500
     12 C11         1.3330   -0.8880   -1.5180 c1        1 6AN     -0.042000
     13 C10        -0.0550   -0.8350   -1.5270 c1        1 6AN     -0.116500
     14 C9         -0.7570   -0.7540   -0.3280 cg        1 6AN      0.016000
     15 N          -2.1550   -0.9840   -0.2880 ne        1 6AN     -0.401400
     16 C6         -2.9830    0.0170   -0.4050 c1        1 6AN      0.323500
     17 C1         -4.4520   -0.2230   -0.3630 c1        1 6AN     -0.062750
     18 C2         -5.4100    0.9400   -0.4900 c1        1 6AN     -0.062750
     19 C3         -4.9070    2.2970   -1.0050 c2        1 6AN     -0.111000
     20 C4         -3.4240    2.5600   -0.7020 ce        1 6AN     -0.145000
     21 C5         -2.4610    1.4000   -0.5790 ce        1 6AN     -0.230100
     22 H7         -0.5620   -0.6690    1.7200 ha        1 6AN      0.073500
     23 H16         1.5420   -0.7210    2.9540 ha        1 6AN      0.074500
     24 H15         3.9070   -0.7620    2.9680 ha        1 6AN      0.074500
     25 H13         3.9290   -0.9690   -1.1260 ha        1 6AN      0.091500
     26 H11         1.8240   -0.9670   -2.3580 ha        1 6AN      0.073500
     27 H10        -0.5390   -0.8550   -2.3750 ha        1 6AN      0.064500
     28 H1         -4.7960   -1.1350   -0.3070 ha        1 6AN      0.074500
     29 H5         -1.5010    1.5520   -0.6700 ha        1 6AN      0.151000
     30 H2         -6.3490    0.8280   -0.2470 ha        1 6AN      0.074500
     31 H31C       -5.1640    2.4810   -1.9300 ha        1 6AN      0.097500
     32 H32C       -5.4200    2.9930   -0.5470 ha        1 6AN      0.097500
     33 H4         -3.1080    3.4730   -0.5680 ha        1 6AN      0.123000
@<TRIPOS>BOND
     1    1    2 3   
     2    1   22 1   
     3    2   11 1   
     4    3    4 3   
     5    3   23 1   
     6    4   24 1   
     7    5    6 1   
     8    5   10 3   
     9    6    8 1   
    10    6    9 1   
    11   10   25 1   
    12   11   12 3   
    13   12   26 1   
    14   13   14 3   
    15   13   27 1   
    16   14   15 1   
    17   15   16 2   
    18   16   21 2   
    19   17   18 3   
    20   17   28 1   
    21   18   30 1   
    22   19   20 2   
    23   19   31 1   
    24   19   32 1   
    25   20   21 1   
    26   20   33 1   
    27   21   29 1   
@<TRIPOS>SUBSTRUCTURE
     1 6AN         1 TEMP              0 ****  ****    0 ROOT
