@<TRIPOS>MOLECULE
6AN
   33    35     1     0     0
SMALL
bcc


@<TRIPOS>ATOM
      1 C7          0.0740    0.1310   -0.1390 ca        1 6AN     -0.103000
      2 C8          1.4880    0.0650   -0.0550 ca        1 6AN     -0.018000
      3 C16         2.1650    0.1740    1.1900 ca        1 6AN     -0.172000
      4 C15         3.5370    0.1100    1.2420 ca        1 6AN     -0.031000
      5 C14         4.3090   -0.0680    0.0700 ca        1 6AN     -0.243500
      6 S           6.0870   -0.1580    0.1890 s6        1 6AN      1.459100
      7 O3          6.3640   -1.5210    0.4290 o         1 6AN     -0.742533
      8 O1          6.5460    0.3030   -1.0660 o         1 6AN     -0.742533
      9 O2          6.4080    0.6860    1.2760 o         1 6AN     -0.742533
     10 C13         3.6720   -0.1700   -1.1420 ca        1 6AN     -0.035000
     11 C12         2.2550   -0.1070   -1.2370 ca        1 6AN     -0.061000
     12 C11         1.5770   -0.2120   -2.4800 ca        1 6AN     -0.096000
     13 C10         0.2110   -0.1320   -2.5530 ca        1 6AN     -0.174000
     14 C9         -0.5750    0.0490   -1.3670 ca        1 6AN      0.103400
     15 N          -1.9860    0.0430   -1.4010 ne        1 6AN     -0.556100
     16 C6         -2.6800    0.7850   -2.2110 cf        1 6AN      0.500900
     17 C1         -4.1540    0.6580   -2.1930 cf        1 6AN     -0.228600
     18 C2         -4.9390    1.3420   -3.0350 c2        1 6AN     -0.157200
     19 C3         -4.4290    2.2910   -4.0520 c3        1 6AN     -0.024000
     20 C4         -2.9580    2.4680   -3.9970 c2        1 6AN     -0.157200
     21 C5         -2.1630    1.7850   -3.1640 cf        1 6AN     -0.228600
     22 H7         -0.4970    0.2590    0.7930 ha        1 6AN      0.133000
     23 H16         1.5690    0.3120    2.1030 ha        1 6AN      0.116000
     24 H15         4.0730    0.2110    2.2010 ha        1 6AN      0.149000
     25 H13         4.2650   -0.2890   -2.0650 ha        1 6AN      0.149000
     26 H11         2.1770   -0.3580   -3.3920 ha        1 6AN      0.129000
     27 H10        -0.3000   -0.2260   -3.5220 ha        1 6AN      0.122000
     28 H1         -4.5840   -0.0370   -1.4530 ha        1 6AN      0.147000
     29 H5         -1.0730    1.9610   -3.1510 ha        1 6AN      0.147000
     30 H2         -6.0340    1.2230   -3.0070 ha        1 6AN      0.121500
     31 H31C       -4.7210    1.9270   -5.0770 hc        1 6AN      0.058200
     32 H32C       -4.9260    3.2910   -3.9070 hc        1 6AN      0.058200
     33 H4         -2.5440    3.2130   -4.6950 ha        1 6AN      0.121500
@<TRIPOS>BOND
     1    1    2 ar  
     2    1   14 ar  
     3    1   22 1   
     4    2    3 ar  
     5    2   11 ar  
     6    3    4 ar  
     7    3   23 1   
     8    4    5 ar  
     9    4   24 1   
    10    5    6 1   
    11    5   10 ar  
    12    6    7 1   
    13    6    8 1   
    14    6    9 1   
    15   10   11 ar  
    16   10   25 1   
    17   11   12 ar  
    18   12   13 ar  
    19   12   26 1   
    20   13   14 ar  
    21   13   27 1   
    22   14   15 1   
    23   15   16 2   
    24   16   17 1   
    25   16   21 1   
    26   17   18 2   
    27   17   28 1   
    28   18   19 1   
    29   18   30 1   
    30   19   20 1   
    31   19   31 1   
    32   19   32 1   
    33   20   21 2   
    34   20   33 1   
    35   21   29 1   
@<TRIPOS>SUBSTRUCTURE
     1 6AN         1 TEMP              0 ****  ****    0 ROOT
