@<TRIPOS>MOLECULE
6AN
   33    35     1     0     0
SMALL
bcc


@<TRIPOS>ATOM
      1 C7          0.0770    0.1140   -0.1410 ca        1 6AN     -0.103000
      2 C8          1.4910    0.0510   -0.0570 ca        1 6AN     -0.018000
      3 C16         2.1670    0.1520    1.1900 ca        1 6AN     -0.172000
      4 C15         3.5390    0.0910    1.2420 ca        1 6AN     -0.031000
      5 C14         4.3120   -0.0760    0.0690 ca        1 6AN     -0.243500
      6 S           6.0900   -0.1620    0.1890 s6        1 6AN      1.459100
      7 O3          6.3700   -1.5260    0.4200 o         1 6AN     -0.742533
      8 O1          6.5490    0.3090   -1.0630 o         1 6AN     -0.742533
      9 O2          6.4090    0.6750    1.2820 o         1 6AN     -0.742533
     10 C13         3.6760   -0.1700   -1.1440 ca        1 6AN     -0.035000
     11 C12         2.2590   -0.1110   -1.2390 ca        1 6AN     -0.061000
     12 C11         1.5820   -0.2070   -2.4830 ca        1 6AN     -0.096000
     13 C10         0.2160   -0.1300   -2.5560 ca        1 6AN     -0.174000
     14 C9         -0.5710    0.0390   -1.3690 ca        1 6AN      0.103400
     15 N          -1.9830    0.0300   -1.4040 ne        1 6AN     -0.556100
     16 C6         -2.6780    0.7770   -2.2080 cf        1 6AN      0.500900
     17 C1         -4.1510    0.6460   -2.1930 cf        1 6AN     -0.228600
     18 C2         -4.9380    1.3340   -3.0290 c2        1 6AN     -0.157200
     19 C3         -4.4300    2.2940   -4.0370 c3        1 6AN     -0.024000
     20 C4         -2.9600    2.4740   -3.9810 c2        1 6AN     -0.157200
     21 C5         -2.1630    1.7860   -3.1530 cf        1 6AN     -0.228600
     22 H7         -0.4950    0.2330    0.7930 ha        1 6AN      0.133000
     23 H16         1.5710    0.2810    2.1040 ha        1 6AN      0.116000
     24 H15         4.0740    0.1860    2.2030 ha        1 6AN      0.149000
     25 H13         4.2700   -0.2800   -2.0670 ha        1 6AN      0.149000
     26 H11         2.1820   -0.3450   -3.3960 ha        1 6AN      0.129000
     27 H10        -0.2940   -0.2180   -3.5260 ha        1 6AN      0.122000
     28 H1         -4.5800   -0.0560   -1.4580 ha        1 6AN      0.147000
     29 H5         -1.0740    1.9640   -3.1380 ha        1 6AN      0.147000
     30 H2         -6.0330    1.2120   -3.0020 ha        1 6AN      0.121500
     31 H31C       -4.7210    1.9380   -5.0660 hc        1 6AN      0.058200
     32 H32C       -4.9300    3.2920   -3.8840 hc        1 6AN      0.058200
     33 H4         -2.5470    3.2260   -4.6720 ha        1 6AN      0.121500
@<TRIPOS>BOND
     1    1    2 ar  
     2    1   14 ar  
     3    1   22 1   
     4    2    3 ar  
     5    2   11 ar  
     6    3    4 ar  
     7    3   23 1   
     8    4    5 ar  
     9    4   24 1   
    10    5    6 1   
    11    5   10 ar  
    12    6    7 1   
    13    6    8 1   
    14    6    9 1   
    15   10   11 ar  
    16   10   25 1   
    17   11   12 ar  
    18   12   13 ar  
    19   12   26 1   
    20   13   14 ar  
    21   13   27 1   
    22   14   15 1   
    23   15   16 2   
    24   16   17 1   
    25   16   21 1   
    26   17   18 2   
    27   17   28 1   
    28   18   19 1   
    29   18   30 1   
    30   19   20 1   
    31   19   31 1   
    32   19   32 1   
    33   20   21 2   
    34   20   33 1   
    35   21   29 1   
@<TRIPOS>SUBSTRUCTURE
     1 6AN         1 TEMP              0 ****  ****    0 ROOT
