@<TRIPOS>MOLECULE
6AN
   33    35     1     0     0
SMALL
bcc


@<TRIPOS>ATOM
      1 C7          0.0760    0.1150   -0.1410 ca        1 6AN     -0.103000
      2 C8          1.4910    0.0530   -0.0550 ca        1 6AN     -0.018000
      3 C16         2.1660    0.1560    1.1910 ca        1 6AN     -0.172000
      4 C15         3.5380    0.0970    1.2440 ca        1 6AN     -0.031000
      5 C14         4.3120   -0.0710    0.0720 ca        1 6AN     -0.243500
      6 S           6.0900   -0.1550    0.1930 s6        1 6AN      1.459100
      7 O3          6.3720   -1.5180    0.4230 o         1 6AN     -0.742533
      8 O1          6.5490    0.3170   -1.0580 o         1 6AN     -0.742533
      9 O2          6.4070    0.6820    1.2860 o         1 6AN     -0.742533
     10 C13         3.6760   -0.1660   -1.1410 ca        1 6AN     -0.035000
     11 C12         2.2590   -0.1080   -1.2370 ca        1 6AN     -0.061000
     12 C11         1.5830   -0.2070   -2.4820 ca        1 6AN     -0.096000
     13 C10         0.2170   -0.1310   -2.5550 ca        1 6AN     -0.174000
     14 C9         -0.5710    0.0380   -1.3690 ca        1 6AN      0.103400
     15 N          -1.9820    0.0280   -1.4050 ne        1 6AN     -0.556100
     16 C6         -2.6770    0.7730   -2.2100 cf        1 6AN      0.500900
     17 C1         -4.1510    0.6410   -2.1950 cf        1 6AN     -0.228600
     18 C2         -4.9380    1.3280   -3.0320 c2        1 6AN     -0.157200
     19 C3         -4.4300    2.2880   -4.0400 c3        1 6AN     -0.024000
     20 C4         -2.9600    2.4690   -3.9840 c2        1 6AN     -0.157200
     21 C5         -2.1640    1.7820   -3.1560 cf        1 6AN     -0.228600
     22 H7         -0.4960    0.2340    0.7920 ha        1 6AN      0.133000
     23 H16         1.5690    0.2850    2.1050 ha        1 6AN      0.116000
     24 H15         4.0720    0.1930    2.2050 ha        1 6AN      0.149000
     25 H13         4.2710   -0.2770   -2.0640 ha        1 6AN      0.149000
     26 H11         2.1840   -0.3450   -3.3940 ha        1 6AN      0.129000
     27 H10        -0.2920   -0.2210   -3.5260 ha        1 6AN      0.122000
     28 H1         -4.5790   -0.0620   -1.4610 ha        1 6AN      0.147000
     29 H5         -1.0740    1.9610   -3.1400 ha        1 6AN      0.147000
     30 H2         -6.0320    1.2050   -3.0060 ha        1 6AN      0.121500
     31 H31C       -4.9310    3.2850   -3.8880 hc        1 6AN      0.058200
     32 H32C       -4.7200    1.9310   -5.0690 hc        1 6AN      0.058200
     33 H4         -2.5480    3.2200   -4.6750 ha        1 6AN      0.121500
@<TRIPOS>BOND
     1    1    2 ar  
     2    1   14 ar  
     3    1   22 1   
     4    2    3 ar  
     5    2   11 ar  
     6    3    4 ar  
     7    3   23 1   
     8    4    5 ar  
     9    4   24 1   
    10    5    6 1   
    11    5   10 ar  
    12    6    7 1   
    13    6    8 1   
    14    6    9 1   
    15   10   11 ar  
    16   10   25 1   
    17   11   12 ar  
    18   12   13 ar  
    19   12   26 1   
    20   13   14 ar  
    21   13   27 1   
    22   14   15 1   
    23   15   16 2   
    24   16   17 1   
    25   16   21 1   
    26   17   18 2   
    27   17   28 1   
    28   18   19 1   
    29   18   30 1   
    30   19   20 1   
    31   19   31 1   
    32   19   32 1   
    33   20   21 2   
    34   20   33 1   
    35   21   29 1   
@<TRIPOS>SUBSTRUCTURE
     1 6AN         1 TEMP              0 ****  ****    0 ROOT
