@<TRIPOS>MOLECULE
6AO
   48    49     1     0     0
SMALL
bcc


@<TRIPOS>ATOM
      1 C1          1.1740    0.4300   -0.2290 c3        1 6AO      0.047500
      2 N2         -0.3030    0.6680   -0.3490 nz        1 6AO     -0.838600
      3 C3          1.4940   -0.2890    1.0930 c         1 6AO      0.506100
      4 O4          0.7010   -0.3660    2.0230 o         1 6AO     -0.381100
      5 N5          2.8280   -0.9170    1.2210 ny        1 6AO     -0.661800
      6 C6          4.6730   -1.5360    2.7880 c3        1 6AO     -0.054100
      7 C7          3.5530   -0.5250    2.5090 c3        1 6AO      0.029200
      8 C8          4.1720   -2.9340    2.7250 ca        1 6AO     -0.205300
      9 C9          4.3540   -3.6960    1.5610 ca        1 6AO     -0.130500
     10 C10         3.9420   -5.0230    1.5170 ca        1 6AO     -0.117500
     11 C11         3.3390   -5.6230    2.6370 cp        1 6AO      0.043000
     12 C12         3.1610   -4.8540    3.8000 ca        1 6AO     -0.117500
     13 C13         3.5770   -3.5270    3.8450 ca        1 6AO     -0.130500
     14 C14         2.9260   -7.0210    2.5980 cp        1 6AO     -0.098000
     15 C15         3.0690   -7.8330    3.7330 ca        1 6AO     -0.104000
     16 C16         2.6850   -9.1720    3.6910 ca        1 6AO     -0.121500
     17 C17         2.1490   -9.7120    2.5220 ca        1 6AO     -0.088000
     18 C18         2.0030   -8.9090    1.3890 ca        1 6AO     -0.121500
     19 C19         2.3910   -7.5730    1.4230 ca        1 6AO     -0.104000
     20 C20         1.9610    1.7520   -0.3040 c3        1 6AO     -0.111400
     21 C21         1.7490    2.4640   -1.6150 c3        1 6AO     -0.137100
     22 C22         4.0420    0.9110    2.4160 c2        1 6AO      0.359200
     23 N23         5.1970    1.3940    2.6030 n2        1 6AO     -0.630100
     24 H22         3.2240    1.6410    2.2200 h4        1 6AO      0.014800
     25 H1          1.4690   -0.2300   -1.1070 hx        1 6AO      0.149700
     26 H21N       -0.8140   -0.2210   -0.4300 hn        1 6AO      0.489800
     27 H22N       -0.4770    1.2420   -1.1900 hn        1 6AO      0.489800
     28 H201        3.0530    1.5070   -0.1910 hc        1 6AO      0.099700
     29 H202        1.6780    2.4240    0.5530 hc        1 6AO      0.099700
     30 H5          3.4240   -0.6830    0.4200 hn        1 6AO      0.487800
     31 H7          2.7820   -0.5970    3.3390 hx        1 6AO      0.141700
     32 H61C        5.0600   -1.3120    3.8230 hc        1 6AO      0.102200
     33 H62C        5.5240   -1.3940    2.0690 hc        1 6AO      0.102200
     34 H9          4.8930   -3.2700    0.7000 ha        1 6AO      0.136000
     35 H13         3.4570   -2.9510    4.7760 ha        1 6AO      0.136000
     36 H10         4.1230   -5.6250    0.6110 ha        1 6AO      0.167000
     37 H12         2.6990   -5.3130    4.6910 ha        1 6AO      0.167000
     38 H15         3.5050   -7.4200    4.6560 ha        1 6AO      0.130000
     39 H19         2.2730   -6.9490    0.5250 ha        1 6AO      0.130000
     40 H16         2.8080   -9.8050    4.5840 ha        1 6AO      0.152500
     41 H17         1.8460  -10.7710    2.4910 ha        1 6AO      0.157000
     42 H18         1.5830   -9.3350    0.4650 ha        1 6AO      0.152500
     43 H211        2.5170    3.2770   -1.7180 hc        1 6AO      0.083033
     44 H212        1.8700    1.7740   -2.4860 hc        1 6AO      0.083033
     45 H213        0.7480    2.9580   -1.6690 hc        1 6AO      0.083033
     46 H23         5.9680    0.7940    2.8230 hn        1 6AO      0.437400
     47 H231       -0.6550    1.1740    0.4780 hn        1 6AO      0.489800
     48 H52         2.7190   -1.9600    1.2610 hn        1 6AO      0.487800
@<TRIPOS>BOND
     1    1    2 1   
     2    1    3 1   
     3    1   20 1   
     4    1   25 1   
     5    2   26 1   
     6    2   27 1   
     7    2   47 1   
     8    3    4 2   
     9    3    5 1   
    10    5    7 1   
    11    5   30 1   
    12    5   48 1   
    13    6    7 1   
    14    6    8 1   
    15    6   32 1   
    16    6   33 1   
    17    7   22 1   
    18    7   31 1   
    19    8    9 ar  
    20    8   13 ar  
    21    9   10 ar  
    22    9   34 1   
    23   10   11 ar  
    24   10   36 1   
    25   11   12 ar  
    26   11   14 1   
    27   12   13 ar  
    28   12   37 1   
    29   13   35 1   
    30   14   15 ar  
    31   14   19 ar  
    32   15   16 ar  
    33   15   38 1   
    34   16   17 ar  
    35   16   40 1   
    36   17   18 ar  
    37   17   41 1   
    38   18   19 ar  
    39   18   42 1   
    40   19   39 1   
    41   20   21 1   
    42   20   28 1   
    43   20   29 1   
    44   21   43 1   
    45   21   44 1   
    46   21   45 1   
    47   22   23 2   
    48   22   24 1   
    49   23   46 1   
@<TRIPOS>SUBSTRUCTURE
     1 6AO         1 TEMP              0 ****  ****    0 ROOT
