@<TRIPOS>MOLECULE
6AO
   48    49     1     0     0
SMALL
bcc


@<TRIPOS>ATOM
      1 C1          1.1770    0.4320   -0.2290 c3        1 6AO      0.047500
      2 N2         -0.3000    0.6630   -0.3620 n4        1 6AO     -0.838600
      3 C3          1.4870   -0.2920    1.0920 c         1 6AO      0.506100
      4 O4          0.6870   -0.3770    2.0150 o         1 6AO     -0.381100
      5 N5          2.8230   -0.9150    1.2300 n4        1 6AO     -0.661800
      6 C6          4.6570   -1.5340    2.8120 c3        1 6AO     -0.054100
      7 C7          3.5340   -0.5260    2.5270 c3        1 6AO      0.029200
      8 C8          4.1620   -2.9330    2.7370 ca        1 6AO     -0.205300
      9 C9          4.3590   -3.6880    1.5700 ca        1 6AO     -0.130500
     10 C10         3.9540   -5.0170    1.5160 ca        1 6AO     -0.117500
     11 C11         3.3430   -5.6250    2.6270 cp        1 6AO      0.043000
     12 C12         3.1500   -4.8640    3.7920 ca        1 6AO     -0.117500
     13 C13         3.5590   -3.5340    3.8480 ca        1 6AO     -0.130500
     14 C14         2.9370   -7.0250    2.5770 cp        1 6AO     -0.098000
     15 C15         3.0740   -7.8420    3.7100 ca        1 6AO     -0.104000
     16 C16         2.6960   -9.1820    3.6580 ca        1 6AO     -0.121500
     17 C17         2.1750   -9.7200    2.4800 ca        1 6AO     -0.088000
     18 C18         2.0350   -8.9120    1.3500 ca        1 6AO     -0.121500
     19 C19         2.4170   -7.5740    1.3950 ca        1 6AO     -0.104000
     20 C20         1.9580    1.7580   -0.2890 c3        1 6AO     -0.111400
     21 C21         1.7560    2.4760   -1.5990 c3        1 6AO     -0.137100
     22 C22         4.0170    0.9130    2.4460 c2        1 6AO      0.359200
     23 N23         5.1680    1.4000    2.6470 n2        1 6AO     -0.630100
     24 H22         3.1980    1.6400    2.2460 h4        1 6AO      0.014800
     25 H1          1.4840   -0.2220   -1.1070 hx        1 6AO      0.149700
     26 H21N       -0.6620    1.1640    0.4640 hn        1 6AO      0.489800
     27 H22N       -0.8050   -0.2270   -0.4530 hn        1 6AO      0.489800
     28 H201        3.0510    1.5180   -0.1670 hc        1 6AO      0.099700
     29 H202        1.6640    2.4240    0.5680 hc        1 6AO      0.099700
     30 H5          2.7190   -1.9580    1.2640 hn        1 6AO      0.487800
     31 H7          2.7560   -0.6060    3.3500 hx        1 6AO      0.141700
     32 H61C        5.0320   -1.3120    3.8520 hc        1 6AO      0.102200
     33 H62C        5.5140   -1.3840    2.1010 hc        1 6AO      0.102200
     34 H9          4.9040   -3.2550    0.7170 ha        1 6AO      0.136000
     35 H13         3.4270   -2.9640    4.7810 ha        1 6AO      0.136000
     36 H10         4.1470   -5.6140    0.6090 ha        1 6AO      0.167000
     37 H12         2.6810   -5.3280    4.6760 ha        1 6AO      0.167000
     38 H15         3.4980   -7.4320    4.6390 ha        1 6AO      0.130000
     39 H19         2.3040   -6.9460    0.4990 ha        1 6AO      0.130000
     40 H16         2.8140   -9.8190    4.5490 ha        1 6AO      0.152500
     41 H17         1.8770  -10.7800    2.4410 ha        1 6AO      0.157000
     42 H18         1.6260   -9.3360    0.4200 ha        1 6AO      0.152500
     43 H211        1.8890    1.7910   -2.4720 hc        1 6AO      0.083033
     44 H212        0.7530    2.9650   -1.6600 hc        1 6AO      0.083033
     45 H213        2.5210    3.2940   -1.6900 hc        1 6AO      0.083033
     46 H23         5.9390    0.8030    2.8710 hn        1 6AO      0.437400
     47 H231       -0.4690    1.2410   -1.2020 hn        1 6AO      0.489800
     48 H52         3.4260   -0.6730    0.4360 hn        1 6AO      0.487800
@<TRIPOS>BOND
     1    1    2 1   
     2    1    3 1   
     3    1   20 1   
     4    1   25 1   
     5    2   26 1   
     6    2   27 1   
     7    2   47 1   
     8    3    4 2   
     9    3    5 1   
    10    5    7 1   
    11    5   30 1   
    12    5   48 1   
    13    6    7 1   
    14    6    8 1   
    15    6   32 1   
    16    6   33 1   
    17    7   22 1   
    18    7   31 1   
    19    8    9 ar  
    20    8   13 ar  
    21    9   10 ar  
    22    9   34 1   
    23   10   11 ar  
    24   10   36 1   
    25   11   12 ar  
    26   11   14 1   
    27   12   13 ar  
    28   12   37 1   
    29   13   35 1   
    30   14   15 ar  
    31   14   19 ar  
    32   15   16 ar  
    33   15   38 1   
    34   16   17 ar  
    35   16   40 1   
    36   17   18 ar  
    37   17   41 1   
    38   18   19 ar  
    39   18   42 1   
    40   19   39 1   
    41   20   21 1   
    42   20   28 1   
    43   20   29 1   
    44   21   43 1   
    45   21   44 1   
    46   21   45 1   
    47   22   23 2   
    48   22   24 1   
    49   23   46 1   
@<TRIPOS>SUBSTRUCTURE
     1 6AO         1 TEMP              0 ****  ****    0 ROOT
