@<TRIPOS>MOLECULE
6AO
   48    49     1     0     0
SMALL
bcc


@<TRIPOS>ATOM
      1 C1          1.1700    0.4310   -0.2240 c3        1 6AO      0.047500
      2 N2         -0.3080    0.6660   -0.3440 n4        1 6AO     -0.838600
      3 C3          1.4900   -0.2910    1.0970 c         1 6AO      0.506100
      4 O4          0.6960   -0.3720    2.0260 o         1 6AO     -0.381100
      5 N5          2.8250   -0.9160    1.2250 n4        1 6AO     -0.661800
      6 C6          4.6700   -1.5360    2.7930 c3        1 6AO     -0.054100
      7 C7          3.5480   -0.5260    2.5150 c3        1 6AO      0.029200
      8 C8          4.1710   -2.9340    2.7260 ca        1 6AO     -0.205300
      9 C9          4.3570   -3.6930    1.5600 ca        1 6AO     -0.130500
     10 C10         3.9480   -5.0210    1.5120 ca        1 6AO     -0.117500
     11 C11         3.3440   -5.6250    2.6290 cp        1 6AO      0.043000
     12 C12         3.1620   -4.8590    3.7930 ca        1 6AO     -0.117500
     13 C13         3.5750   -3.5310    3.8430 ca        1 6AO     -0.130500
     14 C14         2.9340   -7.0230    2.5860 cp        1 6AO     -0.098000
     15 C15         3.0770   -7.8380    3.7200 ca        1 6AO     -0.104000
     16 C16         2.6950   -9.1770    3.6740 ca        1 6AO     -0.121500
     17 C17         2.1630   -9.7160    2.5020 ca        1 6AO     -0.088000
     18 C18         2.0170   -8.9110    1.3700 ca        1 6AO     -0.121500
     19 C19         2.4030   -7.5740    1.4090 ca        1 6AO     -0.104000
     20 C20         1.9540    1.7550   -0.2930 c3        1 6AO     -0.111400
     21 C21         1.7420    2.4710   -1.6020 c3        1 6AO     -0.137100
     22 C22         4.0340    0.9110    2.4270 c2        1 6AO      0.359200
     23 N23         5.1880    1.3960    2.6160 n2        1 6AO     -0.630100
     24 H22         3.2150    1.6400    2.2320 h4        1 6AO      0.014800
     25 H1          1.4680   -0.2250   -1.1030 hx        1 6AO      0.149700
     26 H21N       -0.4820    1.2420   -1.1850 hn        1 6AO      0.489800
     27 H22N       -0.8160   -0.2240   -0.4290 hn        1 6AO      0.489800
     28 H201        3.0470    1.5130   -0.1800 hc        1 6AO      0.099700
     29 H202        1.6680    2.4240    0.5650 hc        1 6AO      0.099700
     30 H5          2.7190   -1.9590    1.2620 hn        1 6AO      0.487800
     31 H7          2.7760   -0.6020    3.3440 hx        1 6AO      0.141700
     32 H61C        5.5210   -1.3900    2.0750 hc        1 6AO      0.102200
     33 H62C        5.0540   -1.3130    3.8290 hc        1 6AO      0.102200
     34 H9          4.8970   -3.2630    0.7010 ha        1 6AO      0.136000
     35 H13         3.4520   -2.9580    4.7750 ha        1 6AO      0.136000
     36 H10         4.1320   -5.6200    0.6050 ha        1 6AO      0.167000
     37 H12         2.6990   -5.3210    4.6820 ha        1 6AO      0.167000
     38 H15         3.5100   -7.4270    4.6440 ha        1 6AO      0.130000
     39 H19         2.2850   -6.9480    0.5120 ha        1 6AO      0.130000
     40 H16         2.8180   -9.8120    4.5650 ha        1 6AO      0.152500
     41 H17         1.8630  -10.7750    2.4670 ha        1 6AO      0.157000
     42 H18         1.6000   -9.3360    0.4440 ha        1 6AO      0.152500
     43 H211        2.5090    3.2860   -1.7020 hc        1 6AO      0.083033
     44 H212        1.8660    1.7840   -2.4750 hc        1 6AO      0.083033
     45 H213        0.7400    2.9620   -1.6570 hc        1 6AO      0.083033
     46 H23         5.9590    0.7970    2.8360 hn        1 6AO      0.437400
     47 H231       -0.6610    1.1690    0.4830 hn        1 6AO      0.489800
     48 H52         3.4220   -0.6780    0.4260 hn        1 6AO      0.487800
@<TRIPOS>BOND
     1    1    2 1   
     2    1    3 1   
     3    1   20 1   
     4    1   25 1   
     5    2   26 1   
     6    2   27 1   
     7    2   47 1   
     8    3    4 2   
     9    3    5 1   
    10    5    7 1   
    11    5   30 1   
    12    5   48 1   
    13    6    7 1   
    14    6    8 1   
    15    6   32 1   
    16    6   33 1   
    17    7   22 1   
    18    7   31 1   
    19    8    9 ar  
    20    8   13 ar  
    21    9   10 ar  
    22    9   34 1   
    23   10   11 ar  
    24   10   36 1   
    25   11   12 ar  
    26   11   14 1   
    27   12   13 ar  
    28   12   37 1   
    29   13   35 1   
    30   14   15 ar  
    31   14   19 ar  
    32   15   16 ar  
    33   15   38 1   
    34   16   17 ar  
    35   16   40 1   
    36   17   18 ar  
    37   17   41 1   
    38   18   19 ar  
    39   18   42 1   
    40   19   39 1   
    41   20   21 1   
    42   20   28 1   
    43   20   29 1   
    44   21   43 1   
    45   21   44 1   
    46   21   45 1   
    47   22   23 2   
    48   22   24 1   
    49   23   46 1   
@<TRIPOS>SUBSTRUCTURE
     1 6AO         1 TEMP              0 ****  ****    0 ROOT
