@<TRIPOS>MOLECULE
6AP
   17    18     1     0     0
SMALL
bcc


@<TRIPOS>ATOM
      1 N9         -1.7670   -1.5720    0.0060 na        1 6AP     -0.388000
      2 C8         -2.7230   -0.5280    0.0040 cc        1 6AP      0.387700
      3 N7         -2.1780    0.6970    0.0010 nd        1 6AP     -0.533100
      4 C5         -0.7930    0.4780   -0.0010 ca        1 6AP     -0.270200
      5 C4         -0.5120   -0.9520   -0.0000 ca        1 6AP      0.492800
      6 N3          0.7310   -1.5010   -0.0020 nb        1 6AP     -0.795000
      7 C2          1.7410   -0.5510   -0.0330 ca        1 6AP      0.919900
      8 N2          3.0510   -1.0330   -0.1600 nh        1 6AP     -0.926500
      9 N1          1.6010    0.8350   -0.0080 nb        1 6AP     -0.843000
     10 C6          0.3390    1.3570    0.0100 ca        1 6AP      0.789200
     11 N6          0.1520    2.7160    0.0820 nh        1 6AP     -0.956500
     12 HN9        -1.9390   -2.5410    0.0010 hn        1 6AP      0.315700
     13 H8         -3.7970   -0.7460    0.0050 h5        1 6AP      0.070800
     14 HN21        3.7800   -0.4020    0.0830 hn        1 6AP      0.424800
     15 HN22        3.1980   -1.9850    0.0850 hn        1 6AP      0.424800
     16 HN61        0.9200    3.3310   -0.0260 hn        1 6AP      0.443800
     17 HN62       -0.7660    3.0650   -0.0400 hn        1 6AP      0.443800
@<TRIPOS>BOND
     1    1    2 1   
     2    1    5 1   
     3    1   12 1   
     4    2    3 2   
     5    2   13 1   
     6    3    4 1   
     7    4    5 ar  
     8    4   10 ar  
     9    5    6 ar  
    10    6    7 ar  
    11    7    8 1   
    12    7    9 ar  
    13    8   14 1   
    14    8   15 1   
    15    9   10 ar  
    16   10   11 1   
    17   11   16 1   
    18   11   17 1   
@<TRIPOS>SUBSTRUCTURE
     1 6AP         1 TEMP              0 ****  ****    0 ROOT
