@<TRIPOS>MOLECULE
6AP
   17    18     1     0     0
SMALL
bcc


@<TRIPOS>ATOM
      1 N9         -0.0290    0.0850   -0.0210 na        1 6AP     -0.388000
      2 C8          1.3860    0.0480   -0.0030 cc        1 6AP      0.387700
      3 N7          1.9040   -0.0090    1.2320 nd        1 6AP     -0.533100
      4 C5          0.7950   -0.0110    2.0910 ca        1 6AP     -0.270200
      5 C4         -0.4380    0.0440    1.3170 ca        1 6AP      0.492800
      6 N3         -1.6900    0.0560    1.8460 nb        1 6AP     -0.795000
      7 C2         -1.6920   -0.0210    3.2310 ca        1 6AP      0.919900
      8 N2         -2.9430   -0.1380    3.8510 nh        1 6AP     -0.926500
      9 N1         -0.5860   -0.0510    4.0780 nb        1 6AP     -0.843000
     10 C6          0.6590   -0.0440    3.5170 ca        1 6AP      0.789200
     11 N6          1.7780   -0.0250    4.3140 nh        1 6AP     -0.956500
     12 HN9        -0.6170    0.1200   -0.8100 hn        1 6AP      0.315700
     13 H8          1.9630    0.0660   -0.9340 h5        1 6AP      0.070800
     14 HN21       -3.7300    0.1440    3.3140 hn        1 6AP      0.424800
     15 HN22       -2.9780    0.0730    4.8210 hn        1 6AP      0.424800
     16 HN61        2.6590   -0.1540    3.8810 hn        1 6AP      0.443800
     17 HN62        1.6970   -0.1640    5.2910 hn        1 6AP      0.443800
@<TRIPOS>BOND
     1    1    2 1   
     2    1    5 1   
     3    1   12 1   
     4    2    3 2   
     5    2   13 1   
     6    3    4 1   
     7    4    5 ar  
     8    4   10 ar  
     9    5    6 ar  
    10    6    7 ar  
    11    7    8 1   
    12    7    9 ar  
    13    8   14 1   
    14    8   15 1   
    15    9   10 ar  
    16   10   11 1   
    17   11   16 1   
    18   11   17 1   
@<TRIPOS>SUBSTRUCTURE
     1 6AP         1 TEMP              0 ****  ****    0 ROOT
