@<TRIPOS>MOLECULE
6AP
   17    13     1     0     0
SMALL
bcc


@<TRIPOS>ATOM
      1 N9          0.2260    0.0020   -2.4390 n2        1 6AP     -0.171000
      2 C8          1.5780    0.0020   -2.4390 c1        1 6AP     -0.068000
      3 N7          1.9960    0.0020   -1.1530 n2        1 6AP     -0.171000
      4 C5          0.8970    0.0020   -0.3530 c1        1 6AP     -0.089000
      5 C4         -0.1940    0.0020   -1.1450 c1        1 6AP     -0.089000
      6 N3         -1.4390    0.0020   -0.5900 n1        1 6AP     -0.269000
      7 C2         -1.5810    0.0020    0.7670 c1        1 6AP      0.201000
      8 N2         -2.8780   -0.0090    1.3410 n2        1 6AP     -0.324000
      9 N1         -0.4770    0.0020    1.5700 n2        1 6AP     -0.317000
     10 C6          0.7510    0.0020    1.0250 c1        1 6AP      0.268000
     11 N6          1.7430    0.0030    2.0390 n3        1 6AP     -0.354000
     12 HN9        -0.3100    0.0020   -3.1770 DU        1 6AP      0.233000
     13 H8          2.1520    0.0020   -3.2290 DU        1 6AP      0.233000
     14 HN21       -3.2890   -0.8020    1.5230 hn        1 6AP      0.220000
     15 HN22       -3.3000    0.7770    1.5280 hn        1 6AP      0.220000
     16 HN61        2.6270    0.0030    1.8130 hn        1 6AP      0.239000
     17 HN62        1.4970    0.0030    2.9180 hn        1 6AP      0.239000
@<TRIPOS>BOND
     1    1    2 1   
     2    1    5 1   
     3    2    3 1   
     4    3    4 1   
     5    4    5 1   
     6    6    7 1   
     7    7    9 1   
     8    8   14 1   
     9    8   15 1   
    10    9   10 1   
    11   10   11 1   
    12   11   16 1   
    13   11   17 1   
@<TRIPOS>SUBSTRUCTURE
     1 6AP         1 TEMP              0 ****  ****    0 ROOT
