@<TRIPOS>MOLECULE
6AP
   17    18     1     0     0
SMALL
bcc


@<TRIPOS>ATOM
      1 N9         -0.0210   -0.0960   -0.0220 na        1 6AP     -0.388000
      2 C8          1.3930   -0.0570    0.0010 cc        1 6AP      0.387700
      3 N7          1.9070    0.0080    1.2370 nd        1 6AP     -0.533100
      4 C5          0.7950    0.0130    2.0920 ca        1 6AP     -0.270200
      5 C4         -0.4350   -0.0490    1.3150 ca        1 6AP      0.492800
      6 N3         -1.6880   -0.0600    1.8400 nb        1 6AP     -0.795000
      7 C2         -1.6950    0.0250    3.2240 ca        1 6AP      0.919900
      8 N2         -2.9490    0.1430    3.8390 nv        1 6AP     -0.926500
      9 N1         -0.5920    0.0620    4.0750 nb        1 6AP     -0.843000
     10 C6          0.6540    0.0540    3.5180 ca        1 6AP      0.789200
     11 N6          1.7710    0.0420    4.3190 nv        1 6AP     -0.956500
     12 HN9        -0.6060   -0.1370   -0.8130 hn        1 6AP      0.315700
     13 H8          1.9740   -0.0800   -0.9280 h5        1 6AP      0.070800
     14 HN21       -2.9870   -0.0620    4.8110 hn        1 6AP      0.424800
     15 HN22       -3.7330   -0.1430    3.3010 hn        1 6AP      0.424800
     16 HN61        2.6530    0.1700    3.8880 hn        1 6AP      0.443800
     17 HN62        1.6860    0.1860    5.2950 hn        1 6AP      0.443800
@<TRIPOS>BOND
     1    1    2 1   
     2    1    5 1   
     3    1   12 1   
     4    2    3 2   
     5    2   13 1   
     6    3    4 1   
     7    4    5 ar  
     8    4   10 ar  
     9    5    6 ar  
    10    6    7 ar  
    11    7    8 1   
    12    7    9 ar  
    13    8   14 1   
    14    8   15 1   
    15    9   10 ar  
    16   10   11 1   
    17   11   16 1   
    18   11   17 1   
@<TRIPOS>SUBSTRUCTURE
     1 6AP         1 TEMP              0 ****  ****    0 ROOT
