@<TRIPOS>MOLECULE
6AP
   19    20     1     0     0
SMALL
bcc


@<TRIPOS>ATOM
      1 N9          0.0040    0.0170   -0.0460 na        1 6AP     -0.330000
      2 C8          1.4090   -0.0030    0.0090 cc        1 6AP      0.568700
      3 N7          1.9100   -0.0160    1.2710 nd        1 6AP     -0.554100
      4 C5          0.7990   -0.0030    2.1000 ca        1 6AP     -0.072200
      5 C4         -0.4470    0.0180    1.2780 ca        1 6AP      0.460800
      6 N3         -1.6860    0.0340    1.8120 nb        1 6AP     -0.585000
      7 C2         -1.6910    0.0290    3.1880 ca        1 6AP      0.720900
      8 N2         -3.0410    0.0450    3.8250 n4        1 6AP     -0.810300
      9 N1         -0.6230    0.0100    4.0540 nb        1 6AP     -0.656000
     10 C6          0.6150   -0.0060    3.4970 ca        1 6AP      0.549200
     11 N6          1.8040   -0.0260    4.3670 n4        1 6AP     -0.816300
     12 HN9        -0.5700    0.0290   -0.8630 hn        1 6AP      0.379700
     13 H8          2.0310   -0.0090   -0.9130 h5        1 6AP      0.148800
     14 HN21       -3.1560   -0.7970    4.4090 hn        1 6AP      0.499800
     15 HN22       -3.1320    0.8870    4.4150 hn        1 6AP      0.499800
     16 HN61        2.3540   -0.8740    4.1530 hn        1 6AP      0.498467
     17 HN62        2.3790    0.8060    4.1600 hn        1 6AP      0.498467
     18 H23        -3.7760    0.0580    3.0980 hn        1 6AP      0.499800
     19 H63         1.5500   -0.0270    5.3670 hn        1 6AP      0.498467
@<TRIPOS>BOND
     1    1    2 1   
     2    1    5 1   
     3    1   12 1   
     4    2    3 2   
     5    2   13 1   
     6    3    4 1   
     7    4    5 ar  
     8    4   10 ar  
     9    5    6 ar  
    10    6    7 ar  
    11    7    8 1   
    12    7    9 ar  
    13    8   14 1   
    14    8   15 1   
    15    8   18 1   
    16    9   10 ar  
    17   10   11 1   
    18   11   16 1   
    19   11   17 1   
    20   11   19 1   
@<TRIPOS>SUBSTRUCTURE
     1 6AP         1 TEMP              0 ****  ****    0 ROOT
