@<TRIPOS>MOLECULE
6AS
   57    57     1     0     0
SMALL
bcc


@<TRIPOS>ATOM
      1 O11         1.1470   -1.4970    0.5660 o         1 6AS     -0.828300
      2 C1          1.0490   -0.4180   -0.0840 c         1 6AS      0.896800
      3 O12         1.4350    0.7080    0.3400 o         1 6AS     -0.828300
      4 C2          0.3960   -0.5070   -1.4480 ce        1 6AS     -0.141200
      5 C3          0.8930   -0.0060   -2.5900 cf        1 6AS     -0.186200
      6 C6          2.1710    0.7520   -2.6540 c3        1 6AS     -0.047900
      7 C4          0.2830   -0.2350   -3.8940 cf        1 6AS     -0.062000
      8 C5         -0.9370    0.0510   -4.3560 c2        1 6AS     -0.254200
      9 C1'        -2.1130    0.7140   -3.7010 c3        1 6AS      0.250200
     10 C2'        -2.4430    1.9790   -4.4900 c2        1 6AS     -0.035400
     11 C7'        -1.2720    2.7620   -4.9490 c3        1 6AS     -0.080900
     12 O1'        -1.9190    1.1170   -2.3500 oh        1 6AS     -0.595800
     13 C6'        -3.3310   -0.2600   -3.6690 c3        1 6AS     -0.031000
     14 C8'        -3.0830   -1.3520   -2.6380 c3        1 6AS     -0.090100
     15 C9'        -3.5730   -0.9030   -5.0250 c3        1 6AS     -0.090100
     16 C5'        -4.5600    0.5440   -3.2530 c3        1 6AS     -0.169400
     17 C4'        -4.8670    1.6480   -4.2230 c         1 6AS      0.596300
     18 O4'        -6.0380    1.9100   -4.5360 o         1 6AS     -0.576100
     19 C3'        -3.7070    2.3980   -4.7380 ce        1 6AS     -0.125600
     20 S          -3.8590    3.8030   -5.7000 ss        1 6AS     -0.232700
     21 CA1        -5.5110    4.4070   -5.5040 c3        1 6AS     -0.024300
     22 CA2        -5.5200    5.8080   -6.0620 c3        1 6AS     -0.070400
     23 CA3        -6.9180    6.3920   -6.0290 c3        1 6AS     -0.076400
     24 CA4        -6.9340    7.8020   -6.5790 c3        1 6AS     -0.079400
     25 CA5        -8.3290    8.3890   -6.5480 c3        1 6AS     -0.080400
     26 CA6        -8.3510    9.7930   -7.0940 c3        1 6AS     -0.091100
     27 H2         -0.5570   -1.0630   -1.4530 ha        1 6AS      0.110000
     28 H3          2.5250    0.9980   -1.6190 hc        1 6AS      0.038367
     29 H4          2.0280    1.7060   -3.2210 hc        1 6AS      0.038367
     30 H5          2.9560    0.1500   -3.1760 hc        1 6AS      0.038367
     31 H6          0.9920   -0.7040   -4.6090 ha        1 6AS      0.105000
     32 H7         -1.1590   -0.2010   -5.4110 ha        1 6AS      0.111000
     33 H8         -1.0060    2.4690   -5.9960 hc        1 6AS      0.060033
     34 H9         -0.3860    2.5670   -4.2920 hc        1 6AS      0.060033
     35 H10        -1.4970    3.8610   -4.9370 hc        1 6AS      0.060033
     36 H11        -0.9830    1.3370   -2.2280 ho        1 6AS      0.441000
     37 H12        -2.1600   -1.9230   -2.9040 hc        1 6AS      0.041700
     38 H13        -3.9500   -2.0540   -2.6080 hc        1 6AS      0.041700
     39 H14        -2.9380   -0.9020   -1.6250 hc        1 6AS      0.041700
     40 H15        -2.7760   -1.6520   -5.2530 hc        1 6AS      0.041700
     41 H16        -3.5850   -0.1300   -5.8310 hc        1 6AS      0.041700
     42 H17        -4.5570   -1.4310   -5.0220 hc        1 6AS      0.041700
     43 H18        -4.3650    1.0100   -2.2480 hc        1 6AS      0.081200
     44 H19        -5.4480   -0.1330   -3.1590 hc        1 6AS      0.081200
     45 H20        -6.2310    3.7520   -6.0510 h1        1 6AS      0.077700
     46 H21        -5.8150    4.4000   -4.4300 h1        1 6AS      0.077700
     47 H22        -5.1440    5.7990   -7.1200 hc        1 6AS      0.048200
     48 H23        -4.8270    6.4600   -5.4670 hc        1 6AS      0.048200
     49 H24        -7.6100    5.7450   -6.6280 hc        1 6AS      0.042200
     50 H25        -7.2980    6.3940   -4.9730 hc        1 6AS      0.042200
     51 H26        -6.2410    8.4490   -5.9780 hc        1 6AS      0.038700
     52 H27        -6.5510    7.7990   -7.6330 hc        1 6AS      0.038700
     53 H28        -8.7100    8.3900   -5.4920 hc        1 6AS      0.038200
     54 H29        -9.0200    7.7400   -7.1470 hc        1 6AS      0.038200
     55 H30        -9.3870   10.2070   -7.0620 hc        1 6AS      0.030033
     56 H31        -7.9970    9.8100   -8.1530 hc        1 6AS      0.030033
     57 H32        -7.6860   10.4600   -6.4940 hc        1 6AS      0.030033
@<TRIPOS>BOND
     1    1    2 1   
     2    2    3 1   
     3    2    4 1   
     4    4    5 2   
     5    4   27 1   
     6    5    6 1   
     7    5    7 1   
     8    6   28 1   
     9    6   29 1   
    10    6   30 1   
    11    7    8 2   
    12    7   31 1   
    13    8    9 1   
    14    8   32 1   
    15    9   10 1   
    16    9   12 1   
    17    9   13 1   
    18   10   11 1   
    19   10   19 2   
    20   11   33 1   
    21   11   34 1   
    22   11   35 1   
    23   12   36 1   
    24   13   14 1   
    25   13   15 1   
    26   13   16 1   
    27   14   37 1   
    28   14   38 1   
    29   14   39 1   
    30   15   40 1   
    31   15   41 1   
    32   15   42 1   
    33   16   17 1   
    34   16   43 1   
    35   16   44 1   
    36   17   18 2   
    37   17   19 1   
    38   19   20 1   
    39   20   21 1   
    40   21   22 1   
    41   21   45 1   
    42   21   46 1   
    43   22   23 1   
    44   22   47 1   
    45   22   48 1   
    46   23   24 1   
    47   23   49 1   
    48   23   50 1   
    49   24   25 1   
    50   24   51 1   
    51   24   52 1   
    52   25   26 1   
    53   25   53 1   
    54   25   54 1   
    55   26   55 1   
    56   26   56 1   
    57   26   57 1   
@<TRIPOS>SUBSTRUCTURE
     1 6AS         1 TEMP              0 ****  ****    0 ROOT
