@<TRIPOS>MOLECULE
6AS
   57    57     1     0     0
SMALL
bcc


@<TRIPOS>ATOM
      1 O11         1.1590   -1.4490    0.5950 o         1 6AS     -0.828300
      2 C1          1.0630   -0.3800   -0.0720 c         1 6AS      0.896800
      3 O12         1.4610    0.7490    0.3310 o         1 6AS     -0.828300
      4 C2          0.3990   -0.4860   -1.4290 ce        1 6AS     -0.141200
      5 C3          0.8900   -0.0070   -2.5830 cf        1 6AS     -0.186200
      6 C6          2.1720    0.7410   -2.6690 c3        1 6AS     -0.047900
      7 C4          0.2680   -0.2520   -3.8780 cf        1 6AS     -0.062000
      8 C5         -0.9550    0.0350   -4.3350 c2        1 6AS     -0.254200
      9 C1'        -2.1200    0.7170   -3.6810 c3        1 6AS      0.250200
     10 C2'        -2.4470    1.9710   -4.4870 c2        1 6AS     -0.035400
     11 C7'        -1.2750    2.7380   -4.9680 c3        1 6AS     -0.080900
     12 O1'        -1.9120    1.1390   -2.3380 oh        1 6AS     -0.595800
     13 C6'        -3.3450   -0.2480   -3.6230 c3        1 6AS     -0.031000
     14 C8'        -3.0960   -1.3250   -2.5770 c3        1 6AS     -0.090100
     15 C9'        -3.6020   -0.9110   -4.9680 c3        1 6AS     -0.090100
     16 C5'        -4.5640    0.5710   -3.2100 c3        1 6AS     -0.169400
     17 C4'        -4.8710    1.6620   -4.1950 c         1 6AS      0.596300
     18 O4'        -6.0430    1.9270   -4.5030 o         1 6AS     -0.576100
     19 C3'        -3.7110    2.3960   -4.7320 ce        1 6AS     -0.125600
     20 S          -3.8610    3.7860   -5.7150 ss        1 6AS     -0.232700
     21 CA1        -5.5060    4.4060   -5.5140 c3        1 6AS     -0.024300
     22 CA2        -5.5100    5.7970   -6.0940 c3        1 6AS     -0.070400
     23 CA3        -6.9030    6.3930   -6.0580 c3        1 6AS     -0.076400
     24 CA4        -6.9130    7.7940   -6.6310 c3        1 6AS     -0.079400
     25 CA5        -8.3030    8.3920   -6.5970 c3        1 6AS     -0.080400
     26 CA6        -8.3190    9.7870   -7.1660 c3        1 6AS     -0.091100
     27 H2         -0.5580   -1.0360   -1.4170 ha        1 6AS      0.110000
     28 H3          2.9490    0.1250   -3.1880 hc        1 6AS      0.038367
     29 H4          2.0310    1.6860   -3.2500 hc        1 6AS      0.038367
     30 H5          2.5360    1.0000   -1.6410 hc        1 6AS      0.038367
     31 H6          0.9670   -0.7380   -4.5910 ha        1 6AS      0.105000
     32 H7         -1.1860   -0.2320   -5.3840 ha        1 6AS      0.111000
     33 H8         -1.4920    3.8390   -4.9720 hc        1 6AS      0.060033
     34 H9         -1.0200    2.4260   -6.0130 hc        1 6AS      0.060033
     35 H10        -0.3850    2.5470   -4.3160 hc        1 6AS      0.060033
     36 H11        -0.9740    1.3550   -2.2280 ho        1 6AS      0.441000
     37 H12        -2.1800   -1.9070   -2.8420 hc        1 6AS      0.041700
     38 H13        -3.9670   -2.0200   -2.5290 hc        1 6AS      0.041700
     39 H14        -2.9390   -0.8610   -1.5730 hc        1 6AS      0.041700
     40 H15        -4.5900   -1.4320   -4.9480 hc        1 6AS      0.041700
     41 H16        -3.6160   -0.1510   -5.7850 hc        1 6AS      0.041700
     42 H17        -2.8130   -1.6690   -5.1900 hc        1 6AS      0.041700
     43 H18        -5.4570   -0.0980   -3.0990 hc        1 6AS      0.081200
     44 H19        -4.3580    1.0520   -2.2140 hc        1 6AS      0.081200
     45 H20        -5.8010    4.4180   -4.4380 h1        1 6AS      0.077700
     46 H21        -6.2360    3.7470   -6.0450 h1        1 6AS      0.077700
     47 H22        -4.8070    6.4530   -5.5160 hc        1 6AS      0.048200
     48 H23        -5.1430    5.7680   -7.1550 hc        1 6AS      0.048200
     49 H24        -7.6050    5.7410   -6.6420 hc        1 6AS      0.042200
     50 H25        -7.2740    6.4140   -5.0000 hc        1 6AS      0.042200
     51 H26        -6.5390    7.7710   -7.6880 hc        1 6AS      0.038700
     52 H27        -6.2100    8.4440   -6.0460 hc        1 6AS      0.038700
     53 H28        -8.6750    8.4120   -5.5390 hc        1 6AS      0.038200
     54 H29        -9.0050    7.7390   -7.1810 hc        1 6AS      0.038200
     55 H30        -7.6440   10.4590   -6.5810 hc        1 6AS      0.030033
     56 H31        -9.3530   10.2090   -7.1310 hc        1 6AS      0.030033
     57 H32        -7.9740    9.7840   -8.2280 hc        1 6AS      0.030033
@<TRIPOS>BOND
     1    1    2 1   
     2    2    3 1   
     3    2    4 1   
     4    4    5 2   
     5    4   27 1   
     6    5    6 1   
     7    5    7 1   
     8    6   28 1   
     9    6   29 1   
    10    6   30 1   
    11    7    8 2   
    12    7   31 1   
    13    8    9 1   
    14    8   32 1   
    15    9   10 1   
    16    9   12 1   
    17    9   13 1   
    18   10   11 1   
    19   10   19 2   
    20   11   33 1   
    21   11   34 1   
    22   11   35 1   
    23   12   36 1   
    24   13   14 1   
    25   13   15 1   
    26   13   16 1   
    27   14   37 1   
    28   14   38 1   
    29   14   39 1   
    30   15   40 1   
    31   15   41 1   
    32   15   42 1   
    33   16   17 1   
    34   16   43 1   
    35   16   44 1   
    36   17   18 2   
    37   17   19 1   
    38   19   20 1   
    39   20   21 1   
    40   21   22 1   
    41   21   45 1   
    42   21   46 1   
    43   22   23 1   
    44   22   47 1   
    45   22   48 1   
    46   23   24 1   
    47   23   49 1   
    48   23   50 1   
    49   24   25 1   
    50   24   51 1   
    51   24   52 1   
    52   25   26 1   
    53   25   53 1   
    54   25   54 1   
    55   26   55 1   
    56   26   56 1   
    57   26   57 1   
@<TRIPOS>SUBSTRUCTURE
     1 6AS         1 TEMP              0 ****  ****    0 ROOT
