@<TRIPOS>MOLECULE
6AT
   47    49     1     0     0
SMALL
bcc


@<TRIPOS>ATOM
      1 OAI         0.0000    0.0000    0.0000 o         1 6AT     -0.615833
      2 PBE         1.6100    0.0000    0.0000 p5        1 6AT      0.840900
      3 OAH         2.1040    0.0000    1.3950 o         1 6AT     -0.615833
      4 OAC         2.1480   -1.3140   -0.7590 o         1 6AT     -0.615833
      5 OAS         2.1460    1.3150   -0.7590 os        1 6AT     -0.481800
      6 PBG         2.3280    2.8570   -0.3310 p5        1 6AT      1.011800
      7 OAK         2.9530    2.9270    1.0090 o         1 6AT     -0.660500
      8 OAE         0.8890    3.5770   -0.2920 o         1 6AT     -0.660500
      9 OAT         3.2730    3.6030   -1.4020 os        1 6AT     -0.488800
     10 PBF         4.1530    4.9500   -1.3700 p5        1 6AT      0.957800
     11 OAJ         5.5460    4.6640   -0.6160 o         1 6AT     -0.702000
     12 OAD         3.4100    6.0070   -0.6480 o         1 6AT     -0.702000
     13 O5'         4.4460    5.4360   -2.8770 os        1 6AT     -0.489200
     14 C5'         5.1170    6.6600   -3.1830 c3        1 6AT      0.310400
     15 C4'         5.2310    6.8120   -4.7020 c3        1 6AT      0.144100
     16 O4'         3.9310    7.0550   -5.2810 os        1 6AT     -0.352600
     17 C3'         6.0610    8.0660   -5.0550 c3        1 6AT      0.115100
     18 O3'         7.4110    7.7050   -5.3530 oh        1 6AT     -0.563800
     19 C2'         5.3630    8.6360   -6.3100 c3        1 6AT      0.109100
     20 O2'         6.2600    8.6450   -7.4220 oh        1 6AT     -0.547800
     21 C1'         4.1940    7.6600   -6.5660 c3        1 6AT      0.150800
     22 N9          3.0140    8.3890   -7.0380 na        1 6AT      0.193000
     23 C8          2.0100    8.8910   -6.2610 cc        1 6AT      0.142700
     24 N7          1.1230    9.4780   -7.0080 nd        1 6AT     -0.530100
     25 C5          1.4980    9.3930   -8.3080 ca        1 6AT     -0.239200
     26 C4          2.7180    8.6980   -8.3410 ca        1 6AT      0.289800
     27 N3          3.3070    8.4780   -9.5140 nb        1 6AT     -0.697000
     28 C2          2.7520    8.9070  -10.6360 ca        1 6AT      0.605300
     29 S2          3.5710    8.5910  -12.1640 ss        1 6AT     -0.495400
     30 CAA         2.4060    9.3710  -13.3110 c3        1 6AT      0.109000
     31 N1          1.6000    9.5670  -10.6500 nb        1 6AT     -0.660000
     32 C6          0.9500    9.8370   -9.5240 ca        1 6AT      0.382200
     33 N6         -0.2500   10.5260   -9.5490 nv        1 6AT     -0.583500
     34 H5          4.5530    7.4910   -2.7780 h1        1 6AT     -0.024300
     35 H6          6.1080    6.6480   -2.7460 h1        1 6AT     -0.024300
     36 H7          5.6790    5.9300   -5.1420 h1        1 6AT      0.036700
     37 H8          6.0240    8.7840   -4.2450 h1        1 6AT      0.007700
     38 H9          7.9990    8.2500   -4.8570 ho        1 6AT      0.361000
     39 H10         4.9860    9.6320   -6.1120 h1        1 6AT      0.007700
     40 H11         6.7030    9.4770   -7.4620 ho        1 6AT      0.361000
     41 H12         4.4880    6.9030   -7.2830 h2        1 6AT      0.052700
     42 H13         1.9590    8.8080   -5.1820 h5        1 6AT      0.043800
     43 H14         2.3060   10.4210  -13.0660 h1        1 6AT      0.015700
     44 H15         2.7760    9.2700  -14.3240 h1        1 6AT      0.015700
     45 H16         1.4400    8.8870  -13.2290 h1        1 6AT      0.015700
     46 H17        -0.9770   10.2420  -10.1760 hn        1 6AT      0.234300
     47 H18        -0.3860   11.3160   -8.9510 hn        1 6AT      0.234300
@<TRIPOS>BOND
     1    1    2 1   
     2    2    3 1   
     3    2    4 1   
     4    2    5 1   
     5    5    6 1   
     6    6    7 1   
     7    6    8 1   
     8    6    9 1   
     9    9   10 1   
    10   10   11 1   
    11   10   12 1   
    12   10   13 1   
    13   13   14 1   
    14   14   15 1   
    15   14   34 1   
    16   14   35 1   
    17   15   16 1   
    18   15   17 1   
    19   15   36 1   
    20   16   21 1   
    21   17   18 1   
    22   17   19 1   
    23   17   37 1   
    24   18   38 1   
    25   19   20 1   
    26   19   21 1   
    27   19   39 1   
    28   20   40 1   
    29   21   22 1   
    30   21   41 1   
    31   22   23 1   
    32   22   26 1   
    33   23   24 2   
    34   23   42 1   
    35   24   25 1   
    36   25   26 ar  
    37   25   32 ar  
    38   26   27 ar  
    39   27   28 ar  
    40   28   29 1   
    41   28   31 ar  
    42   29   30 1   
    43   30   43 1   
    44   30   44 1   
    45   30   45 1   
    46   31   32 ar  
    47   32   33 1   
    48   33   46 1   
    49   33   47 1   
@<TRIPOS>SUBSTRUCTURE
     1 6AT         1 TEMP              0 ****  ****    0 ROOT
