@<TRIPOS>MOLECULE
6AU
   37    38     1     0     0
SMALL
bcc


@<TRIPOS>ATOM
      1 O3P         0.7620    0.4140   -1.1590 o         1 6AU     -0.929833
      2 P           2.0370    0.8920   -0.5320 p5        1 6AU      1.335900
      3 O1P         1.8910    2.1630    0.2830 o         1 6AU     -0.929833
      4 O2P         3.0180   -0.1220   -0.0360 o         1 6AU     -0.929833
      5 O5'         2.8520    1.6070   -1.9110 os        1 6AU     -0.556200
      6 C5'         2.1560    2.6450   -2.4600 c3        1 6AU      0.232400
      7 C4'         2.7160    3.9980   -1.9520 c3        1 6AU      0.057100
      8 C3'         1.7890    4.6990   -0.9460 c3        1 6AU      0.135100
      9 C2'         1.5170    6.1050   -1.5330 c3        1 6AU      0.105100
     10 O2'         2.1710    7.1590   -0.8590 oh        1 6AU     -0.610800
     11 C1'         2.1060    6.0540   -2.9810 c3        1 6AU      0.277500
     12 O4'         2.9530    4.9230   -3.0460 os        1 6AU     -0.457600
     13 N1          1.1630    6.0020   -4.1280 n         1 6AU     -0.354000
     14 C6          1.5960    5.4360   -5.3230 cc        1 6AU      0.077400
     15 C7          3.0700    5.1960   -5.5640 c         1 6AU      0.613300
     16 C72         3.4870    3.7740   -5.6780 c3        1 6AU     -0.203100
     17 O71         3.8320    6.1570   -5.7090 o         1 6AU     -0.547100
     18 C5          0.7480    5.1570   -6.3600 cd        1 6AU     -0.352200
     19 C4         -0.6790    5.4370   -6.2550 c         1 6AU      0.726700
     20 O4         -1.5310    5.1840   -7.1320 o         1 6AU     -0.665500
     21 N3         -1.0830    6.0800   -5.0790 ns        1 6AU     -0.592500
     22 C2         -0.1890    6.4170   -4.0380 c         1 6AU      0.815500
     23 O2         -0.6360    7.1360   -3.1180 o         1 6AU     -0.647500
     24 O3'         2.4190    4.8480    0.3050 oh        1 6AU     -0.682800
     25 H5'         1.0580    2.5700   -2.2140 h1        1 6AU     -0.006300
     26 H5'A        2.2690    2.6320   -3.5850 h1        1 6AU     -0.006300
     27 H4'         3.7350    3.8320   -1.5050 h1        1 6AU      0.092700
     28 H3'         0.8300    4.1270   -0.8170 h1        1 6AU      0.105700
     29 H2'         0.4270    6.3560   -1.4920 h1        1 6AU      0.102700
     30 HO2'        2.9090    6.7800   -0.3620 ho        1 6AU      0.427000
     31 H1'         2.7590    6.9590   -3.1790 h2        1 6AU      0.082700
     32 H72         4.3750    3.6790   -6.3470 hc        1 6AU      0.088033
     33 H72A        3.7650    3.4090   -4.6480 hc        1 6AU      0.088033
     34 H72B        2.6530    3.1360   -6.0570 hc        1 6AU      0.088033
     35 H5          1.1000    4.7160   -7.2990 ha        1 6AU      0.164000
     36 HN3        -2.0420    6.3010   -4.9340 hn        1 6AU      0.337500
     37 HO3'        2.4370    3.9390    0.6950 ho        1 6AU      0.517000
@<TRIPOS>BOND
     1    1    2 1   
     2    2    3 1   
     3    2    4 1   
     4    2    5 1   
     5    5    6 1   
     6    6    7 1   
     7    6   25 1   
     8    6   26 1   
     9    7    8 1   
    10    7   12 1   
    11    7   27 1   
    12    8    9 1   
    13    8   24 1   
    14    8   28 1   
    15    9   10 1   
    16    9   11 1   
    17    9   29 1   
    18   10   30 1   
    19   11   12 1   
    20   11   13 1   
    21   11   31 1   
    22   13   14 1   
    23   13   22 1   
    24   14   15 1   
    25   14   18 2   
    26   15   16 1   
    27   15   17 2   
    28   16   32 1   
    29   16   33 1   
    30   16   34 1   
    31   18   19 1   
    32   18   35 1   
    33   19   20 2   
    34   19   21 1   
    35   21   22 1   
    36   21   36 1   
    37   22   23 2   
    38   24   37 1   
@<TRIPOS>SUBSTRUCTURE
     1 6AU         1 TEMP              0 ****  ****    0 ROOT
