@<TRIPOS>MOLECULE
6AU
   37    36     1     0     0
SMALL
bcc


@<TRIPOS>ATOM
      1 O3P        -4.2500    2.5170    3.5280 o         1 6AU     -1.244333
      2 P          -2.7220    2.5500    3.4310 p3        1 6AU      2.517000
      3 O1P        -2.1310    2.6320    4.8240 o         1 6AU     -1.244333
      4 O2P        -2.2930    3.7610    2.6270 o         1 6AU     -1.244333
      5 O5'        -2.1960    1.2080    2.7020 o         1 6AU     -0.718000
      6 C5'        -0.8270    1.1540    2.2760 c3        1 6AU      0.064000
      7 C4'        -0.3930   -0.2930    2.1460 c3        1 6AU     -0.052000
      8 C3'         0.8840   -0.4080    2.3540 c3        1 6AU      0.018000
      9 C2'         1.5930   -0.2890    0.8960 c3        1 6AU      0.008000
     10 O2'         2.8720   -0.9280    0.9180 oh        1 6AU     -0.295000
     11 C1'         0.7760   -0.9210    0.0260 c3        1 6AU      0.126000
     12 O4'        -0.6230   -0.8130    0.6390 os        1 6AU     -0.314000
     13 N1          0.8130   -0.2740   -1.2590 n         1 6AU     -0.245000
     14 C6         -0.0480   -0.7240   -2.3080 c2        1 6AU      0.099000
     15 C7         -0.8490   -2.0120   -2.1320 c2        1 6AU      0.307000
     16 C72        -1.6820   -2.5280   -3.2450 c3        1 6AU     -0.270000
     17 O71        -0.7520   -2.6440   -1.1080 o         1 6AU     -0.300000
     18 C5         -0.0650   -0.0100   -3.6030 c1        1 6AU     -0.342000
     19 C4          0.8710    1.1080   -3.8370 c2        1 6AU      0.365000
     20 O4          0.8700    1.6940   -4.9150 o         1 6AU     -0.390000
     21 N3          1.7160    1.5550   -2.7840 n         1 6AU     -0.368000
     22 C2          1.7410    0.8280   -1.4950 c2        1 6AU      0.405000
     23 O2          2.5500    1.1140   -0.6680 o         1 6AU     -0.394000
     24 O3'         1.1760   -1.7030    2.9440 oh        1 6AU     -0.364000
     25 H5'        -0.2530    1.6150    2.9450 h1        1 6AU      0.037500
     26 H5'A       -0.7390    1.5970    1.4120 h1        1 6AU      0.037500
     27 H4'        -0.8940   -0.8600    2.7820 h1        1 6AU      0.120000
     28 H3'         1.2010    0.3190    2.9500 h1        1 6AU      0.204000
     29 H2'         1.6920    0.6640    0.6400 h1        1 6AU      0.100000
     30 HO2'        3.4450   -0.4200    1.3420 ho        1 6AU      0.193000
     31 H1'         1.0370   -1.8690   -0.0610 h2        1 6AU      0.115000
     32 H72        -2.3830   -1.8750   -3.4580 hc        1 6AU      0.125000
     33 H72A       -1.1120   -2.6740   -4.0410 hc        1 6AU      0.125000
     34 H72B       -2.1070   -3.3980   -2.9730 hc        1 6AU      0.125000
     35 H5         -0.6550   -0.3170   -4.3250 DU        1 6AU      0.164000
     36 HN3         2.2910    2.2380   -2.9270 hn        1 6AU      0.252000
     37 HO3'        1.4480   -1.5950    3.7570 ho        1 6AU      0.279000
@<TRIPOS>BOND
     1    1    2 1   
     2    2    3 1   
     3    2    4 1   
     4    5    6 1   
     5    6    7 1   
     6    6   25 1   
     7    6   26 1   
     8    7    8 1   
     9    7   12 1   
    10    7   27 1   
    11    8    9 1   
    12    8   24 1   
    13    8   28 1   
    14    9   10 1   
    15    9   11 1   
    16    9   29 1   
    17   10   30 1   
    18   11   12 1   
    19   11   13 1   
    20   11   31 1   
    21   13   14 1   
    22   13   22 1   
    23   14   15 1   
    24   14   18 1   
    25   15   16 1   
    26   15   17 1   
    27   16   32 1   
    28   16   33 1   
    29   16   34 1   
    30   18   19 1   
    31   19   20 1   
    32   19   21 1   
    33   21   22 1   
    34   21   36 1   
    35   22   23 1   
    36   24   37 1   
@<TRIPOS>SUBSTRUCTURE
     1 6AU         1 TEMP              0 ****  ****    0 ROOT
