@<TRIPOS>MOLECULE
6AU
   37    38     1     0     0
SMALL
bcc


@<TRIPOS>ATOM
      1 O3P         0.8860    0.3280   -1.2820 o         1 6AU     -0.929833
      2 P           2.1450    0.8260   -0.6380 p5        1 6AU      1.335900
      3 O1P         1.9590    2.0680    0.2130 o         1 6AU     -0.929833
      4 O2P         3.1560   -0.1710   -0.1710 o         1 6AU     -0.929833
      5 O5'         2.9380    1.6070   -1.9940 os        1 6AU     -0.556200
      6 C5'         2.2110    2.6390   -2.5140 c3        1 6AU      0.232400
      7 C4'         2.7290    3.9930   -1.9650 c3        1 6AU      0.057100
      8 C3'         1.7800    4.6350   -0.9410 c3        1 6AU      0.135100
      9 C2'         1.4640    6.0480   -1.4870 c3        1 6AU      0.105100
     10 O2'         2.0850    7.1020   -0.7800 oh        1 6AU     -0.610800
     11 C1'         2.0570    6.0590   -2.9340 c3        1 6AU      0.277500
     12 O4'         2.9390    4.9560   -3.0310 os        1 6AU     -0.457600
     13 N1          1.1170    6.0110   -4.0850 n         1 6AU     -0.354000
     14 C6          1.5690    5.4950   -5.2940 cc        1 6AU      0.077400
     15 C7          3.0500    5.3070   -5.5390 c         1 6AU      0.613300
     16 C72         3.5100    3.9020   -5.6940 c3        1 6AU     -0.203100
     17 O71         3.7830    6.2940   -5.6540 o         1 6AU     -0.547100
     18 C5          0.7320    5.2210   -6.3410 cd        1 6AU     -0.352200
     19 C4         -0.7040    5.4550   -6.2320 c         1 6AU      0.726700
     20 O4         -1.5460    5.2020   -7.1170 o         1 6AU     -0.665500
     21 N3         -1.1280    6.0490   -5.0370 n         1 6AU     -0.592500
     22 C2         -0.2460    6.3830   -3.9860 c         1 6AU      0.814500
     23 O2         -0.7160    7.0610   -3.0450 o         1 6AU     -0.647500
     24 O3'         2.4030    4.7660    0.3160 oh        1 6AU     -0.682800
     25 H5'         1.1150    2.5220   -2.2710 h1        1 6AU     -0.006300
     26 H5'A        2.3250    2.6620   -3.6390 h1        1 6AU     -0.006300
     27 H4'         3.7520    3.8450   -1.5210 h1        1 6AU      0.092700
     28 H3'         0.8380    4.0290   -0.8300 h1        1 6AU      0.105700
     29 H2'         0.3670    6.2640   -1.4410 h1        1 6AU      0.102700
     30 HO2'        2.8330    6.7310   -0.2930 ho        1 6AU      0.427000
     31 H1'         2.6820    6.9880   -3.1030 h2        1 6AU      0.082700
     32 H72         4.4020    3.8530   -6.3630 hc        1 6AU      0.088033
     33 H72A        2.6960    3.2500   -6.0930 hc        1 6AU      0.088033
     34 H72B        3.7980    3.5160   -4.6750 hc        1 6AU      0.088033
     35 H5          1.0980    4.8180   -7.2920 ha        1 6AU      0.164000
     36 HN3        -2.0940    6.2380   -4.8880 hn        1 6AU      0.337500
     37 HO3'        2.4480    3.8470    0.6780 ho        1 6AU      0.517000
@<TRIPOS>BOND
     1    1    2 1   
     2    2    3 1   
     3    2    4 1   
     4    2    5 1   
     5    5    6 1   
     6    6    7 1   
     7    6   25 1   
     8    6   26 1   
     9    7    8 1   
    10    7   12 1   
    11    7   27 1   
    12    8    9 1   
    13    8   24 1   
    14    8   28 1   
    15    9   10 1   
    16    9   11 1   
    17    9   29 1   
    18   10   30 1   
    19   11   12 1   
    20   11   13 1   
    21   11   31 1   
    22   13   14 1   
    23   13   22 1   
    24   14   15 1   
    25   14   18 2   
    26   15   16 1   
    27   15   17 2   
    28   16   32 1   
    29   16   33 1   
    30   16   34 1   
    31   18   19 1   
    32   18   35 1   
    33   19   20 2   
    34   19   21 1   
    35   21   22 1   
    36   21   36 1   
    37   22   23 2   
    38   24   37 1   
@<TRIPOS>SUBSTRUCTURE
     1 6AU         1 TEMP              0 ****  ****    0 ROOT
