@<TRIPOS>MOLECULE
6AU
   37    38     1     0     0
SMALL
bcc


@<TRIPOS>ATOM
      1 O3P        -3.4980   -1.4910    0.5470 o         1 6AU     -0.929833
      2 P          -3.6390   -0.0300    0.8530 p5        1 6AU      1.335900
      3 O1P        -3.3910    0.8810   -0.3340 o         1 6AU     -0.929833
      4 O2P        -4.6830    0.4010    1.8330 o         1 6AU     -0.929833
      5 O5'        -2.1330    0.2910    1.6950 os        1 6AU     -0.556200
      6 C5'        -1.0320    0.0550    0.9220 c3        1 6AU      0.232400
      7 C4'        -0.4990    1.3820    0.3240 c3        1 6AU      0.057100
      8 C3'        -0.7790    1.5230   -1.1810 c3        1 6AU      0.135100
      9 C2'         0.5990    1.7640   -1.8440 c3        1 6AU      0.105100
     10 O2'         0.8080    3.0860   -2.2980 oh        1 6AU     -0.610800
     11 C1'         1.6410    1.5020   -0.7070 c3        1 6AU      0.277500
     12 O4'         0.9330    1.5180    0.5180 os        1 6AU     -0.457600
     13 N1          2.4530    0.2590   -0.7640 n         1 6AU     -0.354000
     14 C6          2.9610   -0.2610    0.4210 cc        1 6AU      0.077400
     15 C7          2.9850    0.5820    1.6770 c         1 6AU      0.613300
     16 C72         2.1170    0.1140    2.7900 c3        1 6AU     -0.203100
     17 O71         3.7380    1.5570    1.7480 o         1 6AU     -0.547100
     18 C5          3.5420   -1.4980    0.4980 cd        1 6AU     -0.352200
     19 C4          3.6470   -2.3490   -0.6810 c         1 6AU      0.726700
     20 O4          4.1240   -3.5020   -0.6980 o         1 6AU     -0.665500
     21 N3          3.2030   -1.7770   -1.8790 n         1 6AU     -0.592500
     22 C2          2.6610   -0.4750   -1.9580 c         1 6AU      0.815500
     23 O2          2.4590   -0.0130   -3.1030 o         1 6AU     -0.647500
     24 O3'        -1.6050    2.6340   -1.4410 oh        1 6AU     -0.682800
     25 H5'        -0.2060   -0.3880    1.5560 h1        1 6AU     -0.006300
     26 H5'A       -1.2690   -0.6710    0.0930 h1        1 6AU     -0.006300
     27 H4'        -0.9390    2.2470    0.8930 h1        1 6AU      0.092700
     28 H3'        -1.2620    0.5930   -1.5890 h1        1 6AU      0.105700
     29 H2'         0.7320    1.1150   -2.7450 h1        1 6AU      0.102700
     30 HO2'        0.1870    3.6610   -1.8290 ho        1 6AU      0.427000
     31 H1'         2.3960    2.3450   -0.6550 h2        1 6AU      0.082700
     32 H72         1.9660   -0.9910    2.7500 hc        1 6AU      0.088033
     33 H72A        2.5510    0.4060    3.7750 hc        1 6AU      0.088033
     34 H72B        1.1090    0.6070    2.6760 hc        1 6AU      0.088033
     35 H5          3.9430   -1.8970    1.4360 ha        1 6AU      0.164000
     36 HN3         3.2420   -2.2980   -2.7260 hn        1 6AU      0.337500
     37 HO3'       -2.5030    2.3670   -1.1260 ho        1 6AU      0.517000
@<TRIPOS>BOND
     1    1    2 1   
     2    2    3 1   
     3    2    4 1   
     4    2    5 1   
     5    5    6 1   
     6    6    7 1   
     7    6   25 1   
     8    6   26 1   
     9    7    8 1   
    10    7   12 1   
    11    7   27 1   
    12    8    9 1   
    13    8   24 1   
    14    8   28 1   
    15    9   10 1   
    16    9   11 1   
    17    9   29 1   
    18   10   30 1   
    19   11   12 1   
    20   11   13 1   
    21   11   31 1   
    22   13   14 1   
    23   13   22 1   
    24   14   15 1   
    25   14   18 2   
    26   15   16 1   
    27   15   17 2   
    28   16   32 1   
    29   16   33 1   
    30   16   34 1   
    31   18   19 1   
    32   18   35 1   
    33   19   20 2   
    34   19   21 1   
    35   21   22 1   
    36   21   36 1   
    37   22   23 2   
    38   24   37 1   
@<TRIPOS>SUBSTRUCTURE
     1 6AU         1 TEMP              0 ****  ****    0 ROOT
