@<TRIPOS>MOLECULE
6AU
   37    38     1     0     0
SMALL
bcc


@<TRIPOS>ATOM
      1 O3P         0.8490    0.3700   -1.2080 o         1 6AU     -0.929833
      2 P           2.1230    0.8600   -0.5880 p5        1 6AU      1.335900
      3 O1P         1.9670    2.1170    0.2470 o         1 6AU     -0.929833
      4 O2P         3.1260   -0.1460   -0.1180 o         1 6AU     -0.929833
      5 O5'         2.9110    1.6080   -1.9650 os        1 6AU     -0.556200
      6 C5'         2.1920    2.6420   -2.4910 c3        1 6AU      0.232400
      7 C4'         2.7370    3.9970   -1.9700 c3        1 6AU      0.057100
      8 C3'         1.8110    4.6680   -0.9440 c3        1 6AU      0.135100
      9 C2'         1.5100    6.0780   -1.5080 c3        1 6AU      0.105100
     10 O2'         2.1550    7.1330   -0.8250 oh        1 6AU     -0.610800
     11 C1'         2.0840    6.0570   -2.9630 c3        1 6AU      0.277500
     12 O4'         2.9470    4.9400   -3.0540 os        1 6AU     -0.457600
     13 N1          1.1280    6.0060   -4.1000 n         1 6AU     -0.354000
     14 C6          1.5560    5.4650   -5.3070 cc        1 6AU      0.077400
     15 C7          3.0310    5.2510   -5.5690 c         1 6AU      0.613300
     16 C72         3.4680    3.8380   -5.7080 c3        1 6AU     -0.203100
     17 O71         3.7760    6.2260   -5.7080 o         1 6AU     -0.547100
     18 C5          0.7010    5.1880   -6.3390 cd        1 6AU     -0.352200
     19 C4         -0.7300    5.4440   -6.2140 c         1 6AU      0.726700
     20 O4         -1.5870    5.1900   -7.0850 o         1 6AU     -0.665500
     21 N3         -1.1290    6.0630   -5.0240 n         1 6AU     -0.592500
     22 C2         -0.2290    6.3990   -3.9890 c         1 6AU      0.815500
     23 O2         -0.6760    7.0980   -3.0530 o         1 6AU     -0.647500
     24 O3'         2.4530    4.8090    0.3020 oh        1 6AU     -0.682800
     25 H5'         2.2930    2.6470   -3.6180 h1        1 6AU     -0.006300
     26 H5'A        1.0990    2.5460   -2.2340 h1        1 6AU     -0.006300
     27 H4'         3.7640    3.8400   -1.5370 h1        1 6AU      0.092700
     28 H3'         0.8620    4.0790   -0.8120 h1        1 6AU      0.105700
     29 H2'         0.4170    6.3100   -1.4500 h1        1 6AU      0.102700
     30 HO2'        2.9050    6.7570   -0.3420 ho        1 6AU      0.427000
     31 H1'         2.7200    6.9740   -3.1540 h2        1 6AU      0.082700
     32 H72         4.3500    3.7650   -6.3880 hc        1 6AU      0.088033
     33 H72A        2.6400    3.1920   -6.0860 hc        1 6AU      0.088033
     34 H72B        3.7640    3.4620   -4.6860 hc        1 6AU      0.088033
     35 H5          1.0490    4.7650   -7.2880 ha        1 6AU      0.164000
     36 HN3        -2.0900    6.2680   -4.8650 hn        1 6AU      0.337500
     37 HO3'        2.4890    3.8950    0.6780 ho        1 6AU      0.517000
@<TRIPOS>BOND
     1    1    2 1   
     2    2    3 1   
     3    2    4 1   
     4    2    5 1   
     5    5    6 1   
     6    6    7 1   
     7    6   25 1   
     8    6   26 1   
     9    7    8 1   
    10    7   12 1   
    11    7   27 1   
    12    8    9 1   
    13    8   24 1   
    14    8   28 1   
    15    9   10 1   
    16    9   11 1   
    17    9   29 1   
    18   10   30 1   
    19   11   12 1   
    20   11   13 1   
    21   11   31 1   
    22   13   14 1   
    23   13   22 1   
    24   14   15 1   
    25   14   18 2   
    26   15   16 1   
    27   15   17 2   
    28   16   32 1   
    29   16   33 1   
    30   16   34 1   
    31   18   19 1   
    32   18   35 1   
    33   19   20 2   
    34   19   21 1   
    35   21   22 1   
    36   21   36 1   
    37   22   23 2   
    38   24   37 1   
@<TRIPOS>SUBSTRUCTURE
     1 6AU         1 TEMP              0 ****  ****    0 ROOT
