@<TRIPOS>MOLECULE
6AW
   78    73     1     0     0
SMALL
bcc


@<TRIPOS>ATOM
      1 O31        -5.1200    2.2460    5.4490 o         1 6AW     -0.399000
      2 C30        -5.9410    2.1040    4.4940 c1        1 6AW      0.389000
      3 O32        -7.2400    2.6430    4.5960 os        1 6AW     -0.287000
      4 C33        -7.5050    3.2720    5.8400 c3        1 6AW      0.075000
      5 C34        -8.9810    3.6450    5.9200 c2        1 6AW     -0.413000
      6 S38        -9.6690    4.7820    5.1480 ss        1 6AW      0.534000
      7 C37       -11.1380    4.8560    5.6380 c1        1 6AW     -0.353000
      8 N36       -11.3250    3.8280    6.6430 n2        1 6AW     -0.104000
      9 C35        -9.9650    3.0590    6.8260 c1        1 6AW     -0.117000
     10 N29        -5.5670    1.3490    3.3320 n2        1 6AW     -0.337000
     11 C03        -4.5070    0.3830    3.4090 c3        1 6AW      0.023000
     12 C02        -5.0880   -0.9750    3.6950 c3        1 6AW     -0.185000
     13 C01        -4.5740   -1.4730    5.0360 c3        1 6AW     -0.216000
     14 C04        -3.7700    0.3500    2.0970 c3        1 6AW     -0.166000
     15 C05        -2.2680   -0.1340    2.3370 c3        1 6AW     -0.178000
     16 C06        -1.7060   -0.7280    1.0390 c3        1 6AW      0.023000
     17 C07        -2.1660   -2.1550    0.8970 c3        1 6AW     -0.169000
     18 C08        -3.1610   -2.2550   -0.2120 c3        1 6AW     -0.212000
     19 N09        -0.2830   -0.6960    1.0820 n3        1 6AW     -0.371000
     20 C10         0.4840   -0.5240   -0.1540 c1        1 6AW      0.295000
     21 O11        -0.0830   -0.1800   -1.1860 o         1 6AW     -0.377000
     22 C12         1.9940   -0.7150   -0.1420 c2        1 6AW     -0.030000
     23 C13         2.6460    0.5140    0.4190 c3        1 6AW     -0.019000
     24 O14         3.9750    0.2200    0.7790 oh        1 6AW     -0.336000
     25 N15         2.4550   -0.9400   -1.4780 n         1 6AW     -0.367000
     26 C16         3.7930   -1.4100   -1.7150 c2        1 6AW      0.383000
     27 O17         4.3760   -2.0070   -0.8650 o         1 6AW     -0.425000
     28 N18         4.4540   -1.1200   -2.9910 n         1 6AW     -0.294000
     29 C19         3.9490   -1.6890   -4.2010 c3        1 6AW     -0.093000
     30 C20         5.6530   -0.2890   -3.0190 c3        1 6AW      0.043000
     31 C21         6.3460   -0.4320   -4.4000 c2        1 6AW     -0.125000
     32 N28         7.8600   -0.7990   -4.6380 n2        1 6AW     -0.113000
     33 C24         8.1380   -0.7260   -6.0740 c1        1 6AW     -0.269000
     34 C25         9.5170   -0.8970   -6.7340 c2        1 6AW     -0.043000
     35 C27         9.3510   -1.5170   -8.0870 c3        1 6AW     -0.214500
     36 C26        10.2000    0.4900   -6.8810 c3        1 6AW     -0.214500
     37 S23         6.8250   -0.3140   -6.7940 ss        1 6AW      0.495000
     38 C22         5.7310   -0.1410   -5.7030 c1        1 6AW     -0.440000
     39 H1         -7.2970    2.6860    6.5320 h1        1 6AW      0.108500
     40 H2         -6.9630    4.0750    5.9210 h1        1 6AW      0.108500
     41 H3        -11.8120    5.4780    5.3280 DU        1 6AW      0.188667
     42 H4         -9.8020    2.3000    7.4550 DU        1 6AW      0.188667
     43 H5         -6.0150    1.4800    2.5320 hn        1 6AW      0.232000
     44 H6         -3.9030    0.6250    4.1060 h1        1 6AW      0.131000
     45 H7         -6.0740   -0.9120    3.7240 hc        1 6AW      0.086500
     46 H8         -4.8240   -1.5920    2.9990 hc        1 6AW      0.086500
     47 H9         -3.6130   -1.2400    5.1300 hc        1 6AW      0.079333
     48 H10        -5.0840   -1.0510    5.7580 hc        1 6AW      0.079333
     49 H11        -4.6830   -2.4420    5.0870 hc        1 6AW      0.079333
     50 H12        -4.2310   -0.2840    1.4710 hc        1 6AW      0.094000
     51 H13        -3.7630    1.2450    1.7080 hc        1 6AW      0.094000
     52 H14        -2.2500   -0.8240    3.0490 hc        1 6AW      0.089500
     53 H15        -1.7200    0.6300    2.6090 hc        1 6AW      0.089500
     54 H16        -2.0190   -0.2130    0.2870 h1        1 6AW      0.131000
     55 H17        -1.3650   -2.7510    0.6890 hc        1 6AW      0.084500
     56 H18        -2.5730   -2.4420    1.7170 hc        1 6AW      0.084500
     57 H19        -2.7030   -2.4630   -1.0390 hc        1 6AW      0.077667
     58 H20        -3.8180   -2.9790   -0.0050 hc        1 6AW      0.077667
     59 H21        -3.6340   -1.4010   -0.3060 hc        1 6AW      0.077667
     60 H22         0.1660   -0.8750    1.8930 hn        1 6AW      0.230000
     61 H23         2.2260   -1.5020    0.4280 h4        1 6AW      0.137000
     62 H24         2.6370    1.2330   -0.2610 h1        1 6AW      0.095000
     63 H25         2.1550    0.8100    1.2110 h1        1 6AW      0.095000
     64 H26         4.3150    0.9040    1.2370 ho        1 6AW      0.232000
     65 H27         1.9090   -0.7660   -2.1780 hn        1 6AW      0.246000
     66 H28         4.6650   -1.7320   -4.8670 h1        1 6AW      0.088000
     67 H29         3.6140   -2.5960   -4.0200 h1        1 6AW      0.088000
     68 H30         3.2240   -1.1370   -4.5410 h1        1 6AW      0.088000
     69 H31         5.4000    0.6670   -2.8690 h1        1 6AW      0.120000
     70 H32         6.2870   -0.5880   -2.2890 h1        1 6AW      0.120000
     71 H33        10.0660   -1.4690   -6.1840 ha        1 6AW      0.115000
     72 H34         8.6550   -2.1860   -8.0510 hc        1 6AW      0.083167
     73 H35        10.1920   -1.9370   -8.3580 hc        1 6AW      0.083167
     74 H36         9.1070   -0.8270   -8.7340 hc        1 6AW      0.083167
     75 H37         9.6830    1.0430   -7.4810 hc        1 6AW      0.083167
     76 H38        11.1000    0.3720   -7.2410 hc        1 6AW      0.083167
     77 H39        10.2540    0.9250   -5.9970 hc        1 6AW      0.083167
     78 H40         4.7980    0.1150   -5.8550 DU        1 6AW      0.188667
@<TRIPOS>BOND
     1    1    2 1   
     2    2    3 1   
     3    3    4 1   
     4    4    5 1   
     5    4   39 1   
     6    4   40 1   
     7    5    6 1   
     8    5    9 1   
     9    6    7 1   
    10    7    8 1   
    11    8    9 1   
    12   10   11 1   
    13   10   43 1   
    14   11   12 1   
    15   11   14 1   
    16   11   44 1   
    17   12   13 1   
    18   12   45 1   
    19   12   46 1   
    20   13   47 1   
    21   13   48 1   
    22   13   49 1   
    23   14   15 1   
    24   14   50 1   
    25   14   51 1   
    26   15   16 1   
    27   15   52 1   
    28   15   53 1   
    29   16   17 1   
    30   16   19 1   
    31   16   54 1   
    32   17   18 1   
    33   17   55 1   
    34   17   56 1   
    35   18   57 1   
    36   18   58 1   
    37   18   59 1   
    38   19   20 1   
    39   19   60 1   
    40   20   21 1   
    41   22   23 1   
    42   22   25 1   
    43   22   61 1   
    44   23   24 1   
    45   23   62 1   
    46   23   63 1   
    47   24   64 1   
    48   25   26 1   
    49   25   65 1   
    50   26   27 1   
    51   26   28 1   
    52   28   29 1   
    53   28   30 1   
    54   29   66 1   
    55   29   67 1   
    56   29   68 1   
    57   30   31 1   
    58   30   69 1   
    59   30   70 1   
    60   31   32 1   
    61   31   38 1   
    62   32   33 1   
    63   33   37 1   
    64   34   35 1   
    65   34   36 1   
    66   34   71 1   
    67   35   72 1   
    68   35   73 1   
    69   35   74 1   
    70   36   75 1   
    71   36   76 1   
    72   36   77 1   
    73   37   38 1   
@<TRIPOS>SUBSTRUCTURE
     1 6AW         1 TEMP              0 ****  ****    0 ROOT
