@<TRIPOS>MOLECULE
6AW
   82    83     1     0     0
SMALL
bcc


@<TRIPOS>ATOM
      1 O31         1.5910   -1.1390    0.5010 o         1 6AW     -0.473000
      2 C30         0.8080   -0.2020    0.3920 c         1 6AW      0.642100
      3 O32        -0.2790    0.0730    1.0980 os        1 6AW     -0.398900
      4 C33        -0.5480   -0.6990    2.3470 c3        1 6AW      0.274700
      5 C34         0.1620   -0.1110    3.4690 cc        1 6AW     -0.370700
      6 S38         1.2500   -0.9070    4.4800 ss        1 6AW      0.010700
      7 C37         1.3960    0.4700    5.4550 cc        1 6AW      0.413300
      8 N36         0.6650    1.5240    5.0720 nd        1 6AW     -0.606000
      9 C35        -0.0560    1.1920    3.9520 cd        1 6AW      0.407200
     10 N29         0.9900    0.8270   -0.7040 n4        1 6AW     -0.661800
     11 C03         1.1160    0.2090   -2.0770 c3        1 6AW      0.138500
     12 C02         0.1580    0.8880   -3.0710 c3        1 6AW     -0.109400
     13 C01        -1.2920    0.7500   -2.6860 c3        1 6AW     -0.128100
     14 C04         2.5470    0.2690   -2.6380 c3        1 6AW     -0.121400
     15 C05         3.5330   -0.6210   -1.9090 c3        1 6AW     -0.139400
     16 C06         4.4240   -1.4670   -2.8310 c3        1 6AW      0.136500
     17 C07         5.0520   -2.6060   -2.0200 c3        1 6AW     -0.118400
     18 C08         5.8750   -3.5500   -2.8530 c3        1 6AW     -0.115100
     19 N09         5.4980   -0.6190   -3.4970 n4        1 6AW     -0.662800
     20 C10         6.0240   -1.1660   -4.7920 c         1 6AW      0.533100
     21 O11         5.2620   -1.8060   -5.5000 o         1 6AW     -0.400100
     22 C12         7.5020   -0.8500   -5.1450 c3        1 6AW      0.044700
     23 C13         7.8950    0.5700   -4.6530 c3        1 6AW      0.106400
     24 O14         6.7770    1.4070   -4.8680 oh        1 6AW     -0.658800
     25 N15         7.7210   -0.9980   -6.5740 n         1 6AW     -0.528900
     26 C16         8.5720   -1.9570   -7.0740 c         1 6AW      0.663100
     27 O17         9.2220   -2.7710   -6.4050 o         1 6AW     -0.515100
     28 N18         8.7740   -2.0290   -8.5940 n4        1 6AW     -0.575200
     29 C19         7.9510   -3.1410   -9.1430 c3        1 6AW      0.080100
     30 C20        10.2420   -2.1440   -8.9380 c3        1 6AW      0.195100
     31 C21        10.7900   -3.5150   -9.1330 cc        1 6AW     -0.142600
     32 N28        11.1330   -4.3730   -8.0800 na        1 6AW     -0.098100
     33 C24        11.7990   -5.4750   -8.5340 cc        1 6AW     -0.008700
     34 C25        12.3400   -6.5660   -7.6610 c3        1 6AW     -0.036400
     35 C27        11.3120   -7.0620   -6.6650 c3        1 6AW     -0.119100
     36 C26        12.8450   -7.7010   -8.5340 c3        1 6AW     -0.119100
     37 S23        11.9920   -5.4800  -10.2020 ss        1 6AW      0.483200
     38 C22        11.2060   -4.0330  -10.3580 cd        1 6AW     -0.189100
     39 H1         -0.2880   -1.7710    2.1540 h1        1 6AW      0.114700
     40 H2         -1.6660   -0.5370    2.3990 h1        1 6AW      0.114700
     41 H3          2.0220    0.5190    6.3570 h5        1 6AW      0.091100
     42 H4         -0.7480    1.9310    3.5240 h4        1 6AW      0.060100
     43 H5          1.8230    1.3800   -0.4810 hn        1 6AW      0.475800
     44 H6          0.8090   -0.8780   -1.9680 hx        1 6AW      0.122700
     45 H7          0.3160    0.3900   -4.0670 hc        1 6AW      0.083200
     46 H8          0.4290    1.9700   -3.1920 hc        1 6AW      0.083200
     47 H9         -1.5470   -0.3070   -2.4310 hc        1 6AW      0.072367
     48 H10        -1.9350    1.0580   -3.5510 hc        1 6AW      0.072367
     49 H11        -1.5690    1.4070   -1.8250 hc        1 6AW      0.072367
     50 H12         2.9070    1.3330   -2.6410 hc        1 6AW      0.078200
     51 H13         2.4620   -0.0500   -3.7140 hc        1 6AW      0.078200
     52 H14         2.9730   -1.3590   -1.2600 hc        1 6AW      0.105700
     53 H15         4.1660   -0.0130   -1.2080 hc        1 6AW      0.105700
     54 H16         3.7990   -1.9040   -3.6710 hx        1 6AW      0.129700
     55 H17         4.2020   -3.1840   -1.5550 hc        1 6AW      0.103200
     56 H18         5.6610   -2.1920   -1.1720 hc        1 6AW      0.103200
     57 H19         6.1850   -4.4270   -2.2270 hc        1 6AW      0.054700
     58 H20         5.2880   -3.9370   -3.7230 hc        1 6AW      0.054700
     59 H21         6.8030   -3.0580   -3.2360 hc        1 6AW      0.054700
     60 H22         5.1130    0.3190   -3.7050 hn        1 6AW      0.472800
     61 H23         8.1400   -1.6110   -4.5890 h1        1 6AW      0.153700
     62 H24         8.1270    0.5230   -3.5530 h1        1 6AW      0.092700
     63 H25         8.8080    0.9440   -5.1900 h1        1 6AW      0.092700
     64 H26         7.0860    2.3220   -4.9710 ho        1 6AW      0.484000
     65 H27        10.9300   -4.1910   -7.1140 hn        1 6AW      0.361700
     66 H28         6.8610   -2.9150   -8.9810 hx        1 6AW      0.124033
     67 H29         8.1500   -3.2350  -10.2470 hx        1 6AW      0.124033
     68 H30         8.2180   -4.1010   -8.6260 hx        1 6AW      0.124033
     69 H31        10.3860   -1.5830   -9.9160 hx        1 6AW      0.145200
     70 H32        10.8260   -1.6070   -8.1290 hx        1 6AW      0.145200
     71 H33        13.2180   -6.1320   -7.0880 hc        1 6AW      0.125700
     72 H34        11.7610   -7.8970   -6.0660 hc        1 6AW      0.075700
     73 H35        11.0090   -6.2540   -5.9570 hc        1 6AW      0.075700
     74 H36        10.4060   -7.4610   -7.1830 hc        1 6AW      0.075700
     75 H37        13.4140   -8.4300   -7.8990 hc        1 6AW      0.075700
     76 H38        13.5450   -7.3270   -9.3240 hc        1 6AW      0.075700
     77 H39        12.0000   -8.2550   -9.0110 hc        1 6AW      0.075700
     78 H40        11.0560   -3.5260  -11.3230 h4        1 6AW      0.244000
     79 H292        0.1680    1.4570   -0.6900 hn        1 6AW      0.475800
     80 H092        6.2770   -0.5000   -2.8390 hn        1 6AW      0.472800
     81 H152        7.2060   -0.3830   -7.1700 hn        1 6AW      0.370500
     82 H181        8.4500   -1.1510   -9.0320 hn        1 6AW      0.472800
@<TRIPOS>BOND
     1    1    2 2   
     2    2    3 1   
     3    2   10 1   
     4    3    4 1   
     5    4    5 1   
     6    4   39 1   
     7    4   40 1   
     8    5    6 1   
     9    5    9 2   
    10    6    7 1   
    11    7    8 2   
    12    7   41 1   
    13    8    9 1   
    14    9   42 1   
    15   10   11 1   
    16   10   43 1   
    17   10   79 1   
    18   11   12 1   
    19   11   14 1   
    20   11   44 1   
    21   12   13 1   
    22   12   45 1   
    23   12   46 1   
    24   13   47 1   
    25   13   48 1   
    26   13   49 1   
    27   14   15 1   
    28   14   50 1   
    29   14   51 1   
    30   15   16 1   
    31   15   52 1   
    32   15   53 1   
    33   16   17 1   
    34   16   19 1   
    35   16   54 1   
    36   17   18 1   
    37   17   55 1   
    38   17   56 1   
    39   18   57 1   
    40   18   58 1   
    41   18   59 1   
    42   19   20 1   
    43   19   60 1   
    44   19   80 1   
    45   20   21 2   
    46   20   22 1   
    47   22   23 1   
    48   22   25 1   
    49   22   61 1   
    50   23   24 1   
    51   23   62 1   
    52   23   63 1   
    53   24   64 1   
    54   25   26 1   
    55   25   81 1   
    56   26   27 2   
    57   26   28 1   
    58   28   29 1   
    59   28   30 1   
    60   28   82 1   
    61   29   66 1   
    62   29   67 1   
    63   29   68 1   
    64   30   31 1   
    65   30   69 1   
    66   30   70 1   
    67   31   32 1   
    68   31   38 2   
    69   32   33 2   
    70   32   65 1   
    71   33   34 1   
    72   33   37 1   
    73   34   35 1   
    74   34   36 1   
    75   34   71 1   
    76   35   72 1   
    77   35   73 1   
    78   35   74 1   
    79   36   75 1   
    80   36   76 1   
    81   36   77 1   
    82   37   38 1   
    83   38   78 1   
@<TRIPOS>SUBSTRUCTURE
     1 6AW         1 TEMP              0 ****  ****    0 ROOT
