@<TRIPOS>MOLECULE
6AW
   82    83     1     0     0
SMALL
bcc


@<TRIPOS>ATOM
      1 O31         1.5460   -1.1960    0.4690 o         1 6AW     -0.473000
      2 C30         0.7720   -0.2520    0.3700 c         1 6AW      0.642100
      3 O32        -0.3210    0.0180    1.0690 os        1 6AW     -0.398900
      4 C33        -0.6110   -0.7770    2.2980 c3        1 6AW      0.274700
      5 C34         0.0900   -0.2180    3.4410 cc        1 6AW     -0.370700
      6 S38         1.1600   -1.0440    4.4470 ss        1 6AW      0.010700
      7 C37         1.3030    0.3110    5.4530 cc        1 6AW      0.413300
      8 N36         0.5850    1.3790    5.0840 nd        1 6AW     -0.606000
      9 C35        -0.1250    1.0760    3.9480 cd        1 6AW      0.408200
     10 N29         0.9760    0.7990   -0.7020 ny        1 6AW     -0.661800
     11 C03         1.1110    0.2080   -2.0860 c3        1 6AW      0.138500
     12 C02         0.1690    0.9150   -3.0760 c3        1 6AW     -0.109400
     13 C01        -1.2860    0.7800   -2.7090 c3        1 6AW     -0.128100
     14 C04         2.5480    0.2680   -2.6310 c3        1 6AW     -0.121400
     15 C05         3.5200   -0.6430   -1.9100 c3        1 6AW     -0.139400
     16 C06         4.4130   -1.4790   -2.8380 c3        1 6AW      0.136500
     17 C07         5.0270   -2.6360   -2.0420 c3        1 6AW     -0.118400
     18 C08         5.8500   -3.5710   -2.8840 c3        1 6AW     -0.115100
     19 N09         5.5000   -0.6260   -3.4780 ny        1 6AW     -0.662800
     20 C10         6.0350   -1.1530   -4.7780 c         1 6AW      0.533100
     21 O11         5.2760   -1.7760   -5.5040 o         1 6AW     -0.400100
     22 C12         7.5180   -0.8410   -5.1120 c3        1 6AW      0.044700
     23 C13         7.9140    0.5690   -4.5920 c3        1 6AW      0.106400
     24 O14         6.8030    1.4150   -4.8030 oh        1 6AW     -0.658800
     25 N15         7.7500   -0.9660   -6.5400 ns        1 6AW     -0.528900
     26 C16         8.6010   -1.9210   -7.0480 c         1 6AW      0.663100
     27 O17         9.2410   -2.7490   -6.3860 o         1 6AW     -0.515100
     28 N18         8.8170   -1.9700   -8.5670 nx        1 6AW     -0.575200
     29 C19         7.9950   -3.0690   -9.1420 c3        1 6AW      0.080100
     30 C20        10.2880   -2.0840   -8.8990 c3        1 6AW      0.195100
     31 C21        10.8330   -3.4540   -9.1110 cc        1 6AW     -0.142600
     32 N28        11.1620   -4.3310   -8.0690 na        1 6AW     -0.098100
     33 C24        11.8290   -5.4280   -8.5340 cc        1 6AW     -0.008700
     34 C25        12.3560   -6.5350   -7.6750 c3        1 6AW     -0.036400
     35 C27        11.3160   -7.0450   -6.6980 c3        1 6AW     -0.119100
     36 C26        12.8670   -7.6570   -8.5610 c3        1 6AW     -0.119100
     37 S23        12.0380   -5.4060  -10.2000 ss        1 6AW      0.483200
     38 C22        11.2590   -3.9540  -10.3400 cd        1 6AW     -0.189100
     39 H1         -0.3570   -1.8470    2.0860 h1        1 6AW      0.114700
     40 H2         -1.7280   -0.6080    2.3400 h1        1 6AW      0.114700
     41 H3          1.9190    0.3360    6.3640 h5        1 6AW      0.091100
     42 H4         -0.8060    1.8290    3.5280 h4        1 6AW      0.060100
     43 H5          1.8110    1.3390   -0.4590 hn        1 6AW      0.475800
     44 H6          0.7940   -0.8780   -2.0030 hx        1 6AW      0.122700
     45 H7          0.3330    0.4360   -4.0800 hc        1 6AW      0.083200
     46 H8          0.4490    1.9980   -3.1720 hc        1 6AW      0.083200
     47 H9         -1.9180    1.1120   -3.5750 hc        1 6AW      0.072367
     48 H10        -1.5670    1.4210   -1.8380 hc        1 6AW      0.072367
     49 H11        -1.5520   -0.2800   -2.4800 hc        1 6AW      0.072367
     50 H12         2.4720   -0.0300   -3.7140 hc        1 6AW      0.078200
     51 H13         2.9160    1.3290   -2.6100 hc        1 6AW      0.078200
     52 H14         2.9480   -1.3890   -1.2800 hc        1 6AW      0.105700
     53 H15         4.1500   -0.0530   -1.1910 hc        1 6AW      0.105700
     54 H16         3.7940   -1.8960   -3.6910 hx        1 6AW      0.129700
     55 H17         5.6310   -2.2420   -1.1810 hc        1 6AW      0.103200
     56 H18         4.1680   -3.2160   -1.5950 hc        1 6AW      0.103200
     57 H19         5.2700   -3.9380   -3.7670 hc        1 6AW      0.054700
     58 H20         6.7860   -3.0790   -3.2490 hc        1 6AW      0.054700
     59 H21         6.1490   -4.4610   -2.2710 hc        1 6AW      0.054700
     60 H22         6.2740   -0.5250   -2.8110 hn        1 6AW      0.472800
     61 H23         8.1460   -1.6140   -4.5620 h1        1 6AW      0.153700
     62 H24         8.8340    0.9470   -5.1140 h1        1 6AW      0.092700
     63 H25         8.1360    0.5020   -3.4900 h1        1 6AW      0.092700
     64 H26         7.1180    2.3300   -4.8880 ho        1 6AW      0.484000
     65 H27         7.2430   -0.3390   -7.1310 hn        1 6AW      0.370500
     66 H28         8.2050   -3.1470  -10.2450 hx        1 6AW      0.124367
     67 H29         6.9040   -2.8420   -8.9860 hx        1 6AW      0.124367
     68 H30         8.2540   -4.0390   -8.6380 hx        1 6AW      0.124367
     69 H31        10.4430   -1.5080   -9.8660 hx        1 6AW      0.145200
     70 H32        10.8660   -1.5630   -8.0750 hx        1 6AW      0.145200
     71 H33        13.2300   -6.1140   -7.0850 hc        1 6AW      0.125700
     72 H34        11.7570   -7.8910   -6.1090 hc        1 6AW      0.075700
     73 H35        10.4150   -7.4320   -7.2320 hc        1 6AW      0.075700
     74 H36        11.0080   -6.2480   -5.9810 hc        1 6AW      0.075700
     75 H37        12.0260   -8.2000   -9.0570 hc        1 6AW      0.075700
     76 H38        13.5770   -7.2720   -9.3370 hc        1 6AW      0.075700
     77 H39        13.4270   -8.3990   -7.9330 hc        1 6AW      0.075700
     78 H40        11.1200   -3.4310  -11.2990 h4        1 6AW      0.244000
     79 H292        0.1590    1.4360   -0.6840 hn        1 6AW      0.475800
     80 H092        5.1230    0.3180   -3.6730 hn        1 6AW      0.472800
     81 H152       10.9500   -4.1640   -7.1030 hn        1 6AW      0.361700
     82 H181        8.5010   -1.0830   -8.9940 hn        1 6AW      0.472800
@<TRIPOS>BOND
     1    1    2 2   
     2    2    3 1   
     3    2   10 1   
     4    3    4 1   
     5    4    5 1   
     6    4   39 1   
     7    4   40 1   
     8    5    6 1   
     9    5    9 2   
    10    6    7 1   
    11    7    8 2   
    12    7   41 1   
    13    8    9 1   
    14    9   42 1   
    15   10   11 1   
    16   10   43 1   
    17   10   79 1   
    18   11   12 1   
    19   11   14 1   
    20   11   44 1   
    21   12   13 1   
    22   12   45 1   
    23   12   46 1   
    24   13   47 1   
    25   13   48 1   
    26   13   49 1   
    27   14   15 1   
    28   14   50 1   
    29   14   51 1   
    30   15   16 1   
    31   15   52 1   
    32   15   53 1   
    33   16   17 1   
    34   16   19 1   
    35   16   54 1   
    36   17   18 1   
    37   17   55 1   
    38   17   56 1   
    39   18   57 1   
    40   18   58 1   
    41   18   59 1   
    42   19   20 1   
    43   19   60 1   
    44   19   80 1   
    45   20   21 2   
    46   20   22 1   
    47   22   23 1   
    48   22   25 1   
    49   22   61 1   
    50   23   24 1   
    51   23   62 1   
    52   23   63 1   
    53   24   64 1   
    54   25   26 1   
    55   25   65 1   
    56   26   27 2   
    57   26   28 1   
    58   28   29 1   
    59   28   30 1   
    60   28   82 1   
    61   29   66 1   
    62   29   67 1   
    63   29   68 1   
    64   30   31 1   
    65   30   69 1   
    66   30   70 1   
    67   31   32 1   
    68   31   38 2   
    69   32   33 2   
    70   32   81 1   
    71   33   34 1   
    72   33   37 1   
    73   34   35 1   
    74   34   36 1   
    75   34   71 1   
    76   35   72 1   
    77   35   73 1   
    78   35   74 1   
    79   36   75 1   
    80   36   76 1   
    81   36   77 1   
    82   37   38 1   
    83   38   78 1   
@<TRIPOS>SUBSTRUCTURE
     1 6AW         1 TEMP              0 ****  ****    0 ROOT
