@<TRIPOS>MOLECULE
6AW
   82    83     1     0     0
SMALL
bcc


@<TRIPOS>ATOM
      1 O31         1.5830   -1.1630    0.4970 o         1 6AW     -0.473000
      2 C30         0.8200   -0.2090    0.4060 c         1 6AW      0.642100
      3 O32        -0.2670    0.0700    1.1130 os        1 6AW     -0.398900
      4 C33        -0.5590   -0.7270    2.3400 c3        1 6AW      0.274700
      5 C34         0.1540   -0.1790    3.4810 cc        1 6AW     -0.370700
      6 S38         1.2210   -1.0190    4.4790 ss        1 6AW      0.010700
      7 C37         1.3840    0.3310    5.4890 cc        1 6AW      0.413300
      8 N36         0.6750    1.4070    5.1280 nd        1 6AW     -0.606000
      9 C35        -0.0450    1.1150    3.9950 cd        1 6AW      0.408200
     10 N29         1.0280    0.8430   -0.6630 n4        1 6AW     -0.661800
     11 C03         1.1480    0.2560   -2.0500 c3        1 6AW      0.138500
     12 C02         0.2090    0.9790   -3.0310 c3        1 6AW     -0.109400
     13 C01        -1.2450    0.8600   -2.6560 c3        1 6AW     -0.128100
     14 C04         2.5830    0.3020   -2.6030 c3        1 6AW     -0.121400
     15 C05         3.5490   -0.6250   -1.8910 c3        1 6AW     -0.139400
     16 C06         4.4260   -1.4670   -2.8290 c3        1 6AW      0.136500
     17 C07         5.0290   -2.6360   -2.0410 c3        1 6AW     -0.118400
     18 C08         5.8360   -3.5770   -2.8920 c3        1 6AW     -0.115100
     19 N09         5.5190   -0.6260   -3.4710 n4        1 6AW     -0.662800
     20 C10         6.0400   -1.1530   -4.7760 c         1 6AW      0.533100
     21 O11         5.2690   -1.7630   -5.5010 o         1 6AW     -0.400100
     22 C12         7.5250   -0.8590   -5.1170 c3        1 6AW      0.044700
     23 C13         7.9430    0.5430   -4.5930 c3        1 6AW      0.106400
     24 O14         6.8420    1.4050   -4.7930 oh        1 6AW     -0.658800
     25 N15         7.7470   -0.9800   -6.5480 n         1 6AW     -0.528900
     26 C16         8.5820   -1.9430   -7.0650 c         1 6AW      0.663100
     27 O17         9.2140   -2.7830   -6.4120 o         1 6AW     -0.515100
     28 N18         8.7890   -1.9870   -8.5860 n4        1 6AW     -0.575200
     29 C19         7.9490   -3.0720   -9.1610 c3        1 6AW      0.080100
     30 C20        10.2570   -2.1200   -8.9260 c3        1 6AW      0.195100
     31 C21        10.7820   -3.4960   -9.1490 cc        1 6AW     -0.142600
     32 N28        11.1040   -4.3830   -8.1130 na        1 6AW     -0.098100
     33 C24        11.7530   -5.4870   -8.5880 cc        1 6AW     -0.008700
     34 C25        12.2700   -6.6050   -7.7380 c3        1 6AW     -0.036400
     35 C27        11.2280   -7.1060   -6.7580 c3        1 6AW     -0.119100
     36 C26        12.7610   -7.7290   -8.6330 c3        1 6AW     -0.119100
     37 S23        11.9530   -5.4580  -10.2550 ss        1 6AW      0.483200
     38 C22        11.1940   -3.9950  -10.3830 cd        1 6AW     -0.189100
     39 H1         -0.3180   -1.7980    2.1230 h1        1 6AW      0.114700
     40 H2         -1.6740   -0.5450    2.3890 h1        1 6AW      0.114700
     41 H3          2.0050    0.3460    6.3960 h5        1 6AW      0.091100
     42 H4         -0.7200    1.8770    3.5820 h4        1 6AW      0.060100
     43 H5          0.2200    1.4900   -0.6380 hn        1 6AW      0.475800
     44 H6          0.8190   -0.8260   -1.9690 hx        1 6AW      0.122700
     45 H7          0.3620    0.5020   -4.0380 hc        1 6AW      0.083200
     46 H8          0.5020    2.0580   -3.1250 hc        1 6AW      0.083200
     47 H9         -1.5130    1.5010   -1.7810 hc        1 6AW      0.072367
     48 H10        -1.8780    1.2020   -3.5170 hc        1 6AW      0.072367
     49 H11        -1.5230   -0.1980   -2.4290 hc        1 6AW      0.072367
     50 H12         2.4970    0.0100   -3.6860 hc        1 6AW      0.078200
     51 H13         2.9650    1.3580   -2.5790 hc        1 6AW      0.078200
     52 H14         4.1900   -0.0460   -1.1740 hc        1 6AW      0.105700
     53 H15         2.9710   -1.3660   -1.2610 hc        1 6AW      0.105700
     54 H16         3.7960   -1.8730   -3.6800 hx        1 6AW      0.129700
     55 H17         5.6420   -2.2540   -1.1810 hc        1 6AW      0.103200
     56 H18         4.1650   -3.2070   -1.5930 hc        1 6AW      0.103200
     57 H19         6.1260   -4.4740   -2.2850 hc        1 6AW      0.054700
     58 H20         5.2460   -3.9330   -3.7730 hc        1 6AW      0.054700
     59 H21         6.7760   -3.0960   -3.2600 hc        1 6AW      0.054700
     60 H22         5.1530    0.3240   -3.6590 hn        1 6AW      0.472800
     61 H23         8.1460   -1.6430   -4.5750 h1        1 6AW      0.153700
     62 H24         8.8650    0.9110   -5.1180 h1        1 6AW      0.092700
     63 H25         8.1700    0.4680   -3.4920 h1        1 6AW      0.092700
     64 H26         7.1680    2.3160   -4.8760 ho        1 6AW      0.484000
     65 H27         7.2460   -0.3430   -7.1320 hn        1 6AW      0.370500
     66 H28         8.1510   -3.1470  -10.2660 hx        1 6AW      0.124033
     67 H29         6.8620   -2.8300   -8.9990 hx        1 6AW      0.124033
     68 H30         8.1970   -4.0480   -8.6640 hx        1 6AW      0.124033
     69 H31        10.8470   -1.6110   -8.1030 hx        1 6AW      0.145200
     70 H32        10.4140   -1.5400   -9.8910 hx        1 6AW      0.145200
     71 H33        13.1530   -6.1990   -7.1500 hc        1 6AW      0.125700
     72 H34        11.6610   -7.9610   -6.1750 hc        1 6AW      0.075700
     73 H35        10.9350   -6.3090   -6.0340 hc        1 6AW      0.075700
     74 H36        10.3190   -7.4780   -7.2890 hc        1 6AW      0.075700
     75 H37        11.9090   -8.2580   -9.1270 hc        1 6AW      0.075700
     76 H38        13.3130   -8.4820   -8.0110 hc        1 6AW      0.075700
     77 H39        13.4710   -7.3500   -9.4110 hc        1 6AW      0.075700
     78 H40        11.0570   -3.4650  -11.3380 h4        1 6AW      0.244000
     79 H292        1.8720    1.3720   -0.4230 hn        1 6AW      0.475800
     80 H092        6.2980   -0.5370   -2.8080 hn        1 6AW      0.472800
     81 H152       10.9000   -4.2180   -7.1450 hn        1 6AW      0.361700
     82 H181        8.4820   -1.0940   -9.0060 hn        1 6AW      0.472800
@<TRIPOS>BOND
     1    1    2 2   
     2    2    3 1   
     3    2   10 1   
     4    3    4 1   
     5    4    5 1   
     6    4   39 1   
     7    4   40 1   
     8    5    6 1   
     9    5    9 2   
    10    6    7 1   
    11    7    8 2   
    12    7   41 1   
    13    8    9 1   
    14    9   42 1   
    15   10   11 1   
    16   10   43 1   
    17   10   79 1   
    18   11   12 1   
    19   11   14 1   
    20   11   44 1   
    21   12   13 1   
    22   12   45 1   
    23   12   46 1   
    24   13   47 1   
    25   13   48 1   
    26   13   49 1   
    27   14   15 1   
    28   14   50 1   
    29   14   51 1   
    30   15   16 1   
    31   15   52 1   
    32   15   53 1   
    33   16   17 1   
    34   16   19 1   
    35   16   54 1   
    36   17   18 1   
    37   17   55 1   
    38   17   56 1   
    39   18   57 1   
    40   18   58 1   
    41   18   59 1   
    42   19   20 1   
    43   19   60 1   
    44   19   80 1   
    45   20   21 2   
    46   20   22 1   
    47   22   23 1   
    48   22   25 1   
    49   22   61 1   
    50   23   24 1   
    51   23   62 1   
    52   23   63 1   
    53   24   64 1   
    54   25   26 1   
    55   25   65 1   
    56   26   27 2   
    57   26   28 1   
    58   28   29 1   
    59   28   30 1   
    60   28   82 1   
    61   29   66 1   
    62   29   67 1   
    63   29   68 1   
    64   30   31 1   
    65   30   69 1   
    66   30   70 1   
    67   31   32 1   
    68   31   38 2   
    69   32   33 2   
    70   32   81 1   
    71   33   34 1   
    72   33   37 1   
    73   34   35 1   
    74   34   36 1   
    75   34   71 1   
    76   35   72 1   
    77   35   73 1   
    78   35   74 1   
    79   36   75 1   
    80   36   76 1   
    81   36   77 1   
    82   37   38 1   
    83   38   78 1   
@<TRIPOS>SUBSTRUCTURE
     1 6AW         1 TEMP              0 ****  ****    0 ROOT
