@<TRIPOS>MOLECULE
6AW
   78    79     1     0     0
SMALL
bcc


@<TRIPOS>ATOM
      1 O31         6.3320   -1.5160   -1.5640 o         1 6AW     -0.589000
      2 C30         5.8480   -1.2130   -0.4600 c         1 6AW      0.729100
      3 O32         6.7090   -0.7980    0.5420 os        1 6AW     -0.451900
      4 C33         8.0930   -0.6950    0.1440 c3        1 6AW      0.232700
      5 C34         8.8650   -0.3110    1.3390 cc        1 6AW     -0.212700
      6 S38         8.7780    1.1680    2.1430 ss        1 6AW     -0.051300
      7 C37         9.9790    0.6690    3.2390 cc        1 6AW      0.360300
      8 N36        10.4530   -0.5600    3.0450 nd        1 6AW     -0.629000
      9 C35         9.8130   -1.1260    1.9580 cd        1 6AW      0.345200
     10 N29         4.5230   -1.1490   -0.0790 n         1 6AW     -0.513900
     11 C03         3.5270   -1.9040   -0.8230 c3        1 6AW      0.095700
     12 C02         3.2590   -3.3040   -0.2420 c3        1 6AW     -0.109400
     13 C01         4.4620   -4.2040   -0.3280 c3        1 6AW     -0.099100
     14 C04         2.1910   -1.1460   -0.8820 c3        1 6AW     -0.093400
     15 C05         2.3010    0.1420   -1.6640 c3        1 6AW     -0.098400
     16 C06         0.9190    0.7640   -1.9400 c3        1 6AW      0.092700
     17 C07         1.1120    1.9630   -2.8840 c3        1 6AW     -0.086400
     18 C08        -0.1930    2.5200   -3.3880 c3        1 6AW     -0.092100
     19 N09         0.2100    1.1370   -0.7330 n         1 6AW     -0.544900
     20 C10        -0.6650    0.2800   -0.1050 c         1 6AW      0.646100
     21 O11        -1.0550   -0.7810   -0.6360 o         1 6AW     -0.622100
     22 C12        -1.1800    0.7170    1.2900 c3        1 6AW     -0.025300
     23 C13        -0.0040    0.6360    2.2920 c3        1 6AW      0.130400
     24 O14         0.6810   -0.5950    2.2320 oh        1 6AW     -0.603800
     25 N15        -2.3050   -0.0810    1.7260 n         1 6AW     -0.531900
     26 C16        -3.5330    0.5830    1.9670 c         1 6AW      0.748100
     27 O17        -3.5500    1.8310    2.1090 o         1 6AW     -0.646100
     28 N18        -4.7010   -0.1770    2.1960 n         1 6AW     -0.444800
     29 C19        -4.7370   -1.5750    1.8630 c3        1 6AW      0.068300
     30 C20        -5.9560    0.5380    2.2400 c3        1 6AW      0.069700
     31 C21        -6.6460    0.7290    0.9190 cc        1 6AW      0.298600
     32 N28        -7.0100   -0.3540    0.1220 nc        1 6AW     -0.638000
     33 C24        -7.6270    0.0860   -0.9760 cd        1 6AW      0.403700
     34 C25        -8.1590   -0.7950   -2.0580 c3        1 6AW     -0.099000
     35 C27        -9.3310   -1.6140   -1.5520 c3        1 6AW     -0.096600
     36 C26        -8.5620    0.0220   -3.2700 c3        1 6AW     -0.096600
     37 S23        -7.7730    1.8070   -1.0600 ss        1 6AW     -0.092300
     38 C22        -6.9920    1.9720    0.4040 cd        1 6AW     -0.235400
     39 H1          8.4270   -1.6900   -0.2580 h1        1 6AW      0.068200
     40 H2          8.1690    0.0750   -0.6710 h1        1 6AW      0.068200
     41 H3         10.3470    1.2980    4.0550 h5        1 6AW      0.055100
     42 H4         10.0810   -2.1440    1.6540 h4        1 6AW      0.048100
     43 H5          4.3420   -1.0180    0.8920 hn        1 6AW      0.316500
     44 H6          3.9220   -2.0280   -1.8770 h1        1 6AW      0.085700
     45 H7          2.9190   -3.2150    0.8230 hc        1 6AW      0.051200
     46 H8          2.4140   -3.7590   -0.8240 hc        1 6AW      0.051200
     47 H9          4.2040   -5.2270    0.0400 hc        1 6AW      0.039033
     48 H10         4.8210   -4.2860   -1.3830 hc        1 6AW      0.039033
     49 H11         5.3040   -3.8120    0.2940 hc        1 6AW      0.039033
     50 H12         1.4360   -1.8160   -1.3750 hc        1 6AW      0.065200
     51 H13         1.8170   -0.9440    0.1580 hc        1 6AW      0.065200
     52 H14         2.9460    0.8770   -1.1160 hc        1 6AW      0.052200
     53 H15         2.7910   -0.0600   -2.6530 hc        1 6AW      0.052200
     54 H16         0.2840   -0.0100   -2.4710 h1        1 6AW      0.087700
     55 H17         1.6980    2.7670   -2.3660 hc        1 6AW      0.045700
     56 H18         1.7280    1.6100   -3.7530 hc        1 6AW      0.045700
     57 H19        -0.8100    1.7150   -3.8570 hc        1 6AW      0.037367
     58 H20        -0.7850    2.9760   -2.5590 hc        1 6AW      0.037367
     59 H21        -0.0010    3.3090   -4.1550 hc        1 6AW      0.037367
     60 H22         0.5820    1.8990   -0.2180 hn        1 6AW      0.305500
     61 H23        -1.4960    1.8060    1.2380 h1        1 6AW      0.114700
     62 H24         0.7680    1.4060    2.0240 h1        1 6AW      0.059700
     63 H25        -0.3770    0.8320    3.3330 h1        1 6AW      0.059700
     64 H26         0.0690   -1.2840    2.5160 ho        1 6AW      0.412000
     65 H27        -2.3520   -0.9820    1.2920 hn        1 6AW      0.316500
     66 H28        -3.9920   -2.1280    2.4960 h1        1 6AW      0.047700
     67 H29        -5.7590   -1.9840    2.0780 h1        1 6AW      0.047700
     68 H30        -4.5080   -1.7600    0.7780 h1        1 6AW      0.047700
     69 H31        -6.6450   -0.0410    2.9230 h1        1 6AW      0.079700
     70 H32        -5.7720    1.5570    2.6910 h1        1 6AW      0.079700
     71 H33        -7.3360   -1.5060   -2.3670 hc        1 6AW      0.076700
     72 H34        -9.6960   -2.2890   -2.3630 hc        1 6AW      0.043700
     73 H35        -9.0230   -2.2380   -0.6780 hc        1 6AW      0.043700
     74 H36       -10.1710   -0.9500   -1.2370 hc        1 6AW      0.043700
     75 H37        -8.9610   -0.6530   -4.0640 hc        1 6AW      0.043700
     76 H38        -9.3580    0.7610   -3.0040 hc        1 6AW      0.043700
     77 H39        -7.6830    0.5750   -3.6830 hc        1 6AW      0.043700
     78 H40        -6.7710    2.9270    0.8790 h4        1 6AW      0.188000
@<TRIPOS>BOND
     1    1    2 2   
     2    2    3 1   
     3    2   10 1   
     4    3    4 1   
     5    4    5 1   
     6    4   39 1   
     7    4   40 1   
     8    5    6 1   
     9    5    9 2   
    10    6    7 1   
    11    7    8 2   
    12    7   41 1   
    13    8    9 1   
    14    9   42 1   
    15   10   11 1   
    16   10   43 1   
    17   11   12 1   
    18   11   14 1   
    19   11   44 1   
    20   12   13 1   
    21   12   45 1   
    22   12   46 1   
    23   13   47 1   
    24   13   48 1   
    25   13   49 1   
    26   14   15 1   
    27   14   50 1   
    28   14   51 1   
    29   15   16 1   
    30   15   52 1   
    31   15   53 1   
    32   16   17 1   
    33   16   19 1   
    34   16   54 1   
    35   17   18 1   
    36   17   55 1   
    37   17   56 1   
    38   18   57 1   
    39   18   58 1   
    40   18   59 1   
    41   19   20 1   
    42   19   60 1   
    43   20   21 2   
    44   20   22 1   
    45   22   23 1   
    46   22   25 1   
    47   22   61 1   
    48   23   24 1   
    49   23   62 1   
    50   23   63 1   
    51   24   64 1   
    52   25   26 1   
    53   25   65 1   
    54   26   27 2   
    55   26   28 1   
    56   28   29 1   
    57   28   30 1   
    58   29   66 1   
    59   29   67 1   
    60   29   68 1   
    61   30   31 1   
    62   30   69 1   
    63   30   70 1   
    64   31   32 1   
    65   31   38 2   
    66   32   33 2   
    67   33   34 1   
    68   33   37 1   
    69   34   35 1   
    70   34   36 1   
    71   34   71 1   
    72   35   72 1   
    73   35   73 1   
    74   35   74 1   
    75   36   75 1   
    76   36   76 1   
    77   36   77 1   
    78   37   38 1   
    79   38   78 1   
@<TRIPOS>SUBSTRUCTURE
     1 6AW         1 TEMP              0 ****  ****    0 ROOT
