@<TRIPOS>MOLECULE
6AZ
   34    42     1     0     0
SMALL
bcc


@<TRIPOS>ATOM
      1 O3P         0.0000    0.0000    0.0000 o         1 6AZ     -0.689167
      2 P           1.4810    0.0000    0.0000 p5        1 6AZ      0.867500
      3 O1P         2.0170    0.0000    1.5180 o         1 6AZ     -0.689167
      4 O2P         2.0170   -1.3150   -0.7580 o         1 6AZ     -0.689167
      5 O5'         2.0180    1.3150   -0.7590 os        1 6AZ     -0.441000
      6 C5'         1.6290    1.6570   -2.0910 DU        1 6AZ      0.289000
      7 C4'         2.3190    2.9590   -2.5040 DU        1 6AZ      0.661000
      8 C3'         1.8180    3.4160   -3.8920 DU        1 6AZ     -0.316000
      9 O3'         0.8080    4.4180   -3.7560 oh        1 6AZ     -0.331000
     10 C2'         3.0750    4.0030   -4.5710 DU        1 6AZ     -0.160000
     11 O2'         2.8810    5.3860   -4.8740 oh        1 6AZ     -0.269000
     12 O4'         3.7370    2.7440   -2.6760 os        1 6AZ     -0.171000
     13 C1'         4.1870    3.8320   -3.5120 c3        1 6AZ     -0.384000
     14 N1          5.4570    3.4870   -4.1570 n3        1 6AZ     -0.074000
     15 C6          6.5260    4.3690   -4.0920 c2        1 6AZ      0.269000
     16 C5          7.7390    4.0100   -4.7230 c2        1 6AZ     -0.324000
     17 C4          7.8060    2.7620   -5.3950 c2        1 6AZ      0.260000
     18 O4          8.8330    2.4180   -5.9500 o         1 6AZ     -0.293000
     19 N3          6.7240    1.9600   -5.4150 ns        1 6AZ     -0.376000
     20 C2          5.5810    2.3150   -4.8050 c3        1 6AZ      0.386000
     21 O2          4.6310    1.5570   -4.8440 o         1 6AZ     -0.327000
     22 N7          6.4140    5.5130   -3.4570 n2        1 6AZ     -0.288000
     23 H5'         2.1270    2.5870   -2.3370 DU        1 6AZ     -0.756000
     24 H5'A        1.7960    2.7030   -2.3180 DU        1 6AZ     -0.146000
     25 H4'         2.1990    1.9100   -2.7460 DU        1 6AZ      0.142000
     26 H3'         1.1730    2.8330   -3.2440 ha        1 6AZ      0.359000
     27 HO3'        1.2950    4.2040   -2.9770 DU        1 6AZ      0.286000
     28 H2'         2.2810    3.2670   -4.5440 DU        1 6AZ      0.256000
     29 HO2'        1.9650    5.1770   -4.7920 ho        1 6AZ      0.216000
     30 H1'         3.7910    3.6090   -4.4960 DU        1 6AZ      0.244000
     31 H5          6.7190    4.3550   -4.6000 ha        1 6AZ     -0.062000
     32 HN3         6.2020    2.6010   -4.8500 DU        1 6AZ      0.192000
     33 N8          7.2880    6.2190   -3.4120 n2        1 6AZ      0.834000
     34 N9          8.1600    6.9270   -3.3850 n1        1 6AZ     -0.473000
@<TRIPOS>BOND
     1    1    2 1   
     2    2    3 1   
     3    2    4 1   
     4    2    5 1   
     5    5    6 1   
     6    6    7 1   
     7    6   23 1   
     8    6   24 1   
     9    6   25 1   
    10    7    8 1   
    11    7   12 1   
    12    7   24 1   
    13    7   25 1   
    14    8    9 1   
    15    8   10 1   
    16    8   26 1   
    17    8   27 1   
    18    8   28 1   
    19    9   27 1   
    20   10   11 1   
    21   10   13 1   
    22   10   28 1   
    23   10   30 1   
    24   11   29 1   
    25   12   13 1   
    26   13   14 1   
    27   13   30 1   
    28   14   15 1   
    29   14   20 1   
    30   15   16 1   
    31   15   22 1   
    32   16   17 1   
    33   16   31 1   
    34   17   18 1   
    35   17   19 1   
    36   19   20 1   
    37   19   32 1   
    38   20   21 1   
    39   20   32 1   
    40   22   33 1   
    41   23   24 1   
    42   33   34 1   
@<TRIPOS>SUBSTRUCTURE
     1 6AZ         1 TEMP              0 ****  ****    0 ROOT
