@<TRIPOS>MOLECULE
6AZ
   34    33     1     0     0
SMALL
bcc


@<TRIPOS>ATOM
      1 O3P         0.4850   -0.0670   -0.5430 os        1 6AZ     -0.693000
      2 P          -0.2540   -0.4840    0.9800 p5        1 6AZ      1.799000
      3 O1P        -1.6080    0.0560    1.1050 o         1 6AZ     -0.769000
      4 O2P         0.1740   -1.8000    1.4590 o         1 6AZ     -0.769000
      5 O5'         0.9610    0.7370    1.2490 os        1 6AZ     -0.693000
      6 C5'         1.3320    0.8470   -0.0380 c1        1 6AZ      0.132000
      7 C4'         2.8870    2.9910   -2.1620 c1        1 6AZ     -0.143000
      8 C3'         2.7120    3.1960   -4.9950 c3        1 6AZ     -0.031000
      9 O3'         1.3480    3.2420   -4.6440 oh        1 6AZ     -0.347000
     10 C2'         3.4990    4.3890   -4.4250 c3        1 6AZ      0.037000
     11 O2'         2.6690    5.3470   -3.8090 oh        1 6AZ     -0.324000
     12 O4'         4.1750    3.0430   -2.4070 os        1 6AZ     -0.118000
     13 C1'         4.5780    3.9330   -3.4580 c2        1 6AZ      0.010000
     14 N1          5.8620    4.1650   -3.4750 n3        1 6AZ     -0.094000
     15 C6          6.4400    5.1530   -4.4980 c3        1 6AZ      0.157000
     16 C5          6.7180    4.6490   -5.8500 cu        1 6AZ     -0.423000
     17 C4          6.5620    3.3900   -6.4790 cu        1 6AZ      0.116000
     18 O4          5.5930    4.3670   -6.7600 os        1 6AZ     -0.300000
     19 N3          6.7670    2.2200   -6.9490 n2        1 6AZ     -0.331000
     20 C2          6.8810    3.2400   -2.9080 c1        1 6AZ      0.042000
     21 O2          7.3180    3.3480   -1.7790 o         1 6AZ     -0.345000
     22 N7          7.5930    5.8510   -3.9070 n2        1 6AZ     -0.275000
     23 H5'         1.5510    0.8430   -2.6300 ha        1 6AZ      0.003500
     24 H5'A        2.7090    2.3040   -1.2950 ha        1 6AZ      0.138000
     25 H4'         1.8400    0.9980   -3.2260 ha        1 6AZ      0.003500
     26 H3'         3.1720    2.2260   -4.6650 h1        1 6AZ      0.095500
     27 HO3'        1.2860    3.0490   -3.6930 ho        1 6AZ      0.228000
     28 H2'         2.7230    3.2500   -6.1170 h1        1 6AZ      0.095500
     29 HO2'        2.1180    4.8820   -3.1590 ho        1 6AZ      0.225000
     30 H1'         3.9820    4.9450   -5.2860 h1        1 6AZ      0.159000
     31 H5          5.6790    5.9980   -4.5690 h2        1 6AZ      0.135000
     32 HN3         7.5460    1.7790   -6.5030 hn        1 6AZ      0.125000
     33 N8          8.7490    5.3830   -3.9900 n2        1 6AZ      0.271000
     34 N9          9.8580    5.1410   -3.9830 n1        1 6AZ     -0.117000
@<TRIPOS>BOND
     1    1    2 1   
     2    1    6 1   
     3    2    3 1   
     4    2    4 1   
     5    2    5 1   
     6    5    6 1   
     7    7   12 1   
     8    7   24 1   
     9    8    9 1   
    10    8   10 1   
    11    8   26 1   
    12    8   28 1   
    13    9   27 1   
    14   10   11 1   
    15   10   13 1   
    16   10   30 1   
    17   11   29 1   
    18   12   13 1   
    19   13   14 1   
    20   14   15 1   
    21   14   20 1   
    22   15   16 1   
    23   15   22 1   
    24   15   31 1   
    25   16   17 1   
    26   16   18 1   
    27   17   18 1   
    28   17   19 1   
    29   19   32 1   
    30   20   21 1   
    31   22   33 1   
    32   23   25 1   
    33   33   34 1   
@<TRIPOS>SUBSTRUCTURE
     1 6AZ         1 TEMP              0 ****  ****    0 ROOT
