@<TRIPOS>MOLECULE
6AZ
   34    35     1     0     0
SMALL
bcc


@<TRIPOS>ATOM
      1 O3P        -3.7770    1.1090   -0.7480 o         1 6AZ     -0.929167
      2 P          -4.3080    0.0900    0.2440 p5        1 6AZ      1.337900
      3 O1P        -5.4280    0.5420    1.1270 o         1 6AZ     -0.929167
      4 O2P        -4.3190   -1.3210   -0.2600 o         1 6AZ     -0.929167
      5 O5'        -2.9330    0.0730    1.3210 os        1 6AZ     -0.558200
      6 C5'        -1.7540   -0.2220    0.6960 c3        1 6AZ      0.237400
      7 C4'        -0.9300    1.0710    0.4780 c3        1 6AZ      0.069100
      8 C3'        -0.9740    1.6170   -0.9590 c3        1 6AZ      0.144100
      9 O3'        -1.7010    2.8200   -1.0240 oh        1 6AZ     -0.694800
     10 C2'         0.4960    1.9220   -1.3370 c3        1 6AZ      0.115100
     11 O2'         0.8400    3.2940   -1.3240 oh        1 6AZ     -0.629800
     12 O4'         0.4600    0.8320    0.8210 os        1 6AZ     -0.472600
     13 C1'         1.3390    1.2380   -0.2120 c3        1 6AZ      0.267500
     14 N1          2.2190    0.1110   -0.5800 n         1 6AZ     -0.378300
     15 C6          3.2350   -0.2980    0.3050 cc        1 6AZ      0.593200
     16 C5          4.1190   -1.3050   -0.0340 cc        1 6AZ     -0.421600
     17 C4          4.0100   -2.0150   -1.2990 cd        1 6AZ      0.429000
     18 O4          4.8080   -2.8920   -1.6940 o         1 6AZ     -0.398000
     19 N3          2.9120   -1.6790   -2.0920 n         1 6AZ     -0.593500
     20 C2          1.9720   -0.6890   -1.7280 c         1 6AZ      0.809500
     21 O2          0.9910   -0.5400   -2.4810 o         1 6AZ     -0.606500
     22 N7          3.5230    0.3610    1.5440 nf        1 6AZ     -0.458400
     23 H5'        -1.1310   -0.8990    1.3540 h1        1 6AZ      0.002200
     24 H5'A       -1.9310   -0.7330   -0.2920 h1        1 6AZ      0.002200
     25 H4'        -1.2800    1.8570    1.2030 h1        1 6AZ      0.075700
     26 H3'        -1.4160    0.8580   -1.6610 h1        1 6AZ      0.111700
     27 HO3'       -2.6550    2.5610   -0.9330 ho        1 6AZ      0.524000
     28 H2'         0.7460    1.5660   -2.3690 h1        1 6AZ      0.091700
     29 HO2'        0.1300    3.7780   -0.8800 ho        1 6AZ      0.434000
     30 H1'         2.0320    2.0280    0.2170 h2        1 6AZ      0.061700
     31 H5          4.9310   -1.6230    0.6320 ha        1 6AZ      0.168000
     32 HN3         2.7090   -2.2020   -2.9160 hn        1 6AZ      0.341500
     33 N8          2.6500    0.5560    2.4410 n1        1 6AZ      0.141700
     34 N9          2.0520    0.7970    3.3670 n1        1 6AZ      0.041000
@<TRIPOS>BOND
     1    1    2 1   
     2    2    3 1   
     3    2    4 1   
     4    2    5 1   
     5    5    6 1   
     6    6    7 1   
     7    6   23 1   
     8    6   24 1   
     9    7    8 1   
    10    7   12 1   
    11    7   25 1   
    12    8    9 1   
    13    8   10 1   
    14    8   26 1   
    15    9   27 1   
    16   10   11 1   
    17   10   13 1   
    18   10   28 1   
    19   11   29 1   
    20   12   13 1   
    21   13   14 1   
    22   13   30 1   
    23   14   15 1   
    24   14   20 1   
    25   15   16 1   
    26   15   22 2   
    27   16   17 2   
    28   16   31 1   
    29   17   18 1   
    30   17   19 1   
    31   19   20 1   
    32   19   32 1   
    33   20   21 2   
    34   22   33 1   
    35   33   34 3   
@<TRIPOS>SUBSTRUCTURE
     1 6AZ         1 TEMP              0 ****  ****    0 ROOT
