@<TRIPOS>MOLECULE
6B4
   54    56     1     0     0
SMALL
bcc


@<TRIPOS>ATOM
      1 CAA         0.8820    0.3700   -0.7920 c3        1 6B4     -0.072000
      2 SAT         2.4270   -0.0440   -0.0860 ss        1 6B4     -0.166000
      3 CAY         2.4840    0.7370    1.4210 ca        1 6B4      0.006900
      4 CAG         1.5440    1.6910    1.8260 ca        1 6B4     -0.146000
      5 CAE         1.6540    2.3250    3.0610 ca        1 6B4     -0.113000
      6 CAF         2.7150    2.0150    3.9090 ca        1 6B4     -0.143000
      7 CAH         3.6570    1.0650    3.5180 ca        1 6B4     -0.098000
      8 CAZ         3.5500    0.4140    2.2870 ca        1 6B4     -0.071300
      9 CBA         4.5630   -0.6200    1.8540 c3        1 6B4      0.132000
     10 CAP         5.7670    0.0700    1.1630 c3        1 6B4     -0.086400
     11 CAM         6.9920   -0.2270    2.0190 c3        1 6B4     -0.091400
     12 CAQ         6.5200   -1.1450    3.1570 c3        1 6B4      0.069000
     13 N1          5.1060   -1.4190    2.9580 n         1 6B4     -0.448800
     14 C           4.5350   -2.6320    3.3000 c         1 6B4      0.621100
     15 O           3.4860   -3.0440    2.7650 o         1 6B4     -0.606100
     16 CA          5.1570   -3.4540    4.4450 c3        1 6B4      0.009000
     17 N           5.4150   -4.8220    4.0860 n         1 6B4     -0.520900
     18 CAU         6.6820   -5.1340    3.5320 c         1 6B4      0.728100
     19 OAC         7.6350   -4.3200    3.6320 o         1 6B4     -0.651100
     20 N2          6.8450   -6.3680    2.8700 n         1 6B4     -0.522900
     21 CAO         8.1860   -6.8450    2.6200 c3        1 6B4      0.126300
     22 CAX         8.8070   -7.6320    3.7360 ca        1 6B4     -0.182300
     23 CAK         9.3290   -6.9670    4.8510 ca        1 6B4     -0.075000
     24 CAI         9.9290   -7.6740    5.8830 ca        1 6B4     -0.197500
     25 CAW        10.0300   -9.0850    5.8210 ca        1 6B4      0.151600
     26 N3         10.7140   -9.7970    6.8090 nh        1 6B4     -0.823200
     27 CAJ         9.4910   -9.7490    4.6930 ca        1 6B4     -0.197500
     28 CAL         8.8930   -9.0240    3.6700 ca        1 6B4     -0.075000
     29 H1          0.8190   -0.2370   -1.7270 h1        1 6B4      0.069033
     30 H2          0.8080    1.4480   -1.0590 h1        1 6B4      0.069033
     31 H3          0.0250    0.1070   -0.1340 h1        1 6B4      0.069033
     32 H4          0.7040    1.9510    1.1650 ha        1 6B4      0.130000
     33 H5          0.9030    3.0690    3.3630 ha        1 6B4      0.131000
     34 H6          2.8100    2.5150    4.8830 ha        1 6B4      0.131000
     35 H7          4.4930    0.8280    4.1940 ha        1 6B4      0.138000
     36 H8          4.0500   -1.3280    1.1280 h1        1 6B4      0.093700
     37 H9          5.5930    1.1700    1.0760 hc        1 6B4      0.060200
     38 H10         5.8910   -0.3430    0.1320 hc        1 6B4      0.060200
     39 H11         7.7870   -0.7330    1.4190 hc        1 6B4      0.053700
     40 H12         7.4260    0.7140    2.4380 hc        1 6B4      0.053700
     41 H13         6.6480   -0.6320    4.1510 h1        1 6B4      0.061700
     42 H14         7.1220   -2.0980    3.1710 h1        1 6B4      0.061700
     43 H15         4.3860   -3.4630    5.2710 h1        1 6B4      0.090200
     44 H16         6.1020   -2.9880    4.8420 h1        1 6B4      0.090200
     45 H17         4.6240   -5.2840    3.6850 hn        1 6B4      0.307500
     46 H18         8.8430   -5.9560    2.3890 h1        1 6B4      0.073200
     47 H19         8.1230   -7.4890    1.6950 h1        1 6B4      0.073200
     48 H20         9.2570   -5.8670    4.9020 ha        1 6B4      0.140500
     49 H21        10.3360   -7.1290    6.7480 ha        1 6B4      0.133000
     50 H22         9.5530  -10.8450    4.6150 ha        1 6B4      0.133000
     51 H23         8.4880   -9.5580    2.7960 ha        1 6B4      0.140500
     52 H24         6.1920   -7.0850    3.1010 hn        1 6B4      0.294500
     53 H25        10.7720   -9.3360    7.6890 hn        1 6B4      0.392300
     54 H26        10.4680  -10.7580    6.8760 hn        1 6B4      0.392300
@<TRIPOS>BOND
     1    1    2 1   
     2    1   29 1   
     3    1   30 1   
     4    1   31 1   
     5    2    3 1   
     6    3    4 ar  
     7    3    8 ar  
     8    4    5 ar  
     9    4   32 1   
    10    5    6 ar  
    11    5   33 1   
    12    6    7 ar  
    13    6   34 1   
    14    7    8 ar  
    15    7   35 1   
    16    8    9 1   
    17    9   10 1   
    18    9   13 1   
    19    9   36 1   
    20   10   11 1   
    21   10   37 1   
    22   10   38 1   
    23   11   12 1   
    24   11   39 1   
    25   11   40 1   
    26   12   13 1   
    27   12   41 1   
    28   12   42 1   
    29   13   14 1   
    30   14   15 2   
    31   14   16 1   
    32   16   17 1   
    33   16   43 1   
    34   16   44 1   
    35   17   18 1   
    36   17   45 1   
    37   18   19 2   
    38   18   20 1   
    39   20   21 1   
    40   20   52 1   
    41   21   22 1   
    42   21   46 1   
    43   21   47 1   
    44   22   23 ar  
    45   22   28 ar  
    46   23   24 ar  
    47   23   48 1   
    48   24   25 ar  
    49   24   49 1   
    50   25   26 1   
    51   25   27 ar  
    52   26   53 1   
    53   26   54 1   
    54   27   28 ar  
    55   27   50 1   
    56   28   51 1   
@<TRIPOS>SUBSTRUCTURE
     1 6B4         1 TEMP              0 ****  ****    0 ROOT
