@<TRIPOS>MOLECULE
6B4
   56    58     1     0     0
SMALL
bcc


@<TRIPOS>ATOM
      1 CAA         1.3790   -3.6880    1.7190 c3        1 6B4     -0.057000
      2 SAT         2.9830   -2.9830    1.6390 ss        1 6B4     -0.211000
      3 CAY         2.9320   -1.5720    2.5880 ca        1 6B4      0.028900
      4 CAG         1.9090   -1.3230    3.5120 ca        1 6B4     -0.139000
      5 CAE         1.8960   -0.1590    4.2740 ca        1 6B4     -0.084000
      6 CAF         2.9130    0.7850    4.1230 ca        1 6B4     -0.130000
      7 CAH         3.9330    0.5530    3.2050 ca        1 6B4     -0.112000
      8 CAZ         3.9550   -0.6180    2.4380 ca        1 6B4     -0.127300
      9 CBA         5.0330   -0.8090    1.4060 c3        1 6B4      0.154000
     10 CAP         4.9190    0.2540    0.2860 c3        1 6B4     -0.088400
     11 CAM         6.1500    1.1470    0.3780 c3        1 6B4     -0.087400
     12 CAQ         7.0670    0.5350    1.4480 c3        1 6B4      0.065000
     13 N1          6.4050   -0.6650    1.9490 n         1 6B4     -0.380800
     14 C           6.9870   -1.5660    2.7540 c         1 6B4      0.654100
     15 O           6.4680   -2.6480    3.1430 o         1 6B4     -0.703100
     16 CA          8.4220   -1.2680    3.2620 c3        1 6B4      0.006800
     17 N           8.8310   -2.2490    4.3230 n4        1 6B4     -0.637800
     18 CAU         9.2800   -3.5610    3.7280 c         1 6B4      0.495100
     19 OAC        10.4420   -3.6420    3.3550 o         1 6B4     -0.344100
     20 N2          8.3410   -4.6910    3.6850 n4        1 6B4     -0.686800
     21 CAO         8.2820   -5.5060    5.0300 c3        1 6B4      0.240100
     22 CAX         7.6940   -6.7980    4.7410 ca        1 6B4     -0.317300
     23 CAK         6.2920   -6.9910    4.8090 ca        1 6B4     -0.009500
     24 CAI         5.7340   -8.2290    4.6180 ca        1 6B4     -0.225000
     25 CAW         6.5610   -9.3710    4.3400 ca        1 6B4      0.298600
     26 N3          6.0250  -10.5950    4.1600 nh        1 6B4     -0.797200
     27 CAJ         7.9810   -9.1620    4.2560 ca        1 6B4     -0.225000
     28 CAL         8.5160   -7.9150    4.4500 ca        1 6B4     -0.009500
     29 H1          0.5770   -2.9540    1.4780 h1        1 6B4      0.082033
     30 H2          1.3790   -4.4890    0.9410 h1        1 6B4      0.082033
     31 H3          1.1630   -4.1440    2.7100 h1        1 6B4      0.082033
     32 H4          1.0930   -2.0530    3.6380 ha        1 6B4      0.149000
     33 H5          1.0780    0.0210    4.9900 ha        1 6B4      0.157000
     34 H6          2.9000    1.7130    4.7150 ha        1 6B4      0.153000
     35 H7          4.7170    1.3120    3.0600 ha        1 6B4      0.125000
     36 H8          4.9630   -1.8500    0.9660 h1        1 6B4      0.100700
     37 H9          3.9800    0.8490    0.4150 hc        1 6B4      0.090200
     38 H10         4.8690   -0.2570   -0.7080 hc        1 6B4      0.090200
     39 H11         6.6830    1.2010   -0.6040 hc        1 6B4      0.084200
     40 H12         5.8670    2.1890    0.6720 hc        1 6B4      0.084200
     41 H13         8.0670    0.2630    1.0100 h1        1 6B4      0.057200
     42 H14         7.2270    1.2580    2.2960 h1        1 6B4      0.057200
     43 H15         9.1610   -1.3150    2.4100 hx        1 6B4      0.146200
     44 H16         8.4580   -0.2370    3.7280 hx        1 6B4      0.146200
     45 H17         9.6270   -1.8530    4.8510 hn        1 6B4      0.495800
     46 H18         9.3460   -5.5770    5.3880 hx        1 6B4      0.097700
     47 H19         7.6580   -4.8750    5.7210 hx        1 6B4      0.097700
     48 H20         5.6380   -6.1320    5.0380 ha        1 6B4      0.144000
     49 H21         4.6410   -8.3560    4.6900 ha        1 6B4      0.170500
     50 H22         8.6440  -10.0180    4.0460 ha        1 6B4      0.170500
     51 H23         9.6110   -7.7840    4.4030 ha        1 6B4      0.144000
     52 H24         8.6620   -5.3400    2.9430 hn        1 6B4      0.499300
     53 H25         6.6050  -11.3840    3.9860 hn        1 6B4      0.465300
     54 H26         5.0440  -10.7370    4.2390 hn        1 6B4      0.465300
     55 H27         8.0240   -2.3910    4.9550 hn        1 6B4      0.495800
     56 H221        7.3770   -4.3830    3.4390 hn        1 6B4      0.499300
@<TRIPOS>BOND
     1    1    2 1   
     2    1   29 1   
     3    1   30 1   
     4    1   31 1   
     5    2    3 1   
     6    3    4 ar  
     7    3    8 ar  
     8    4    5 ar  
     9    4   32 1   
    10    5    6 ar  
    11    5   33 1   
    12    6    7 ar  
    13    6   34 1   
    14    7    8 ar  
    15    7   35 1   
    16    8    9 1   
    17    9   10 1   
    18    9   13 1   
    19    9   36 1   
    20   10   11 1   
    21   10   37 1   
    22   10   38 1   
    23   11   12 1   
    24   11   39 1   
    25   11   40 1   
    26   12   13 1   
    27   12   41 1   
    28   12   42 1   
    29   13   14 1   
    30   14   15 2   
    31   14   16 1   
    32   16   17 1   
    33   16   43 1   
    34   16   44 1   
    35   17   18 1   
    36   17   45 1   
    37   17   55 1   
    38   18   19 2   
    39   18   20 1   
    40   20   21 1   
    41   20   52 1   
    42   20   56 1   
    43   21   22 1   
    44   21   46 1   
    45   21   47 1   
    46   22   23 ar  
    47   22   28 ar  
    48   23   24 ar  
    49   23   48 1   
    50   24   25 ar  
    51   24   49 1   
    52   25   26 1   
    53   25   27 ar  
    54   26   53 1   
    55   26   54 1   
    56   27   28 ar  
    57   27   50 1   
    58   28   51 1   
@<TRIPOS>SUBSTRUCTURE
     1 6B4         1 TEMP              0 ****  ****    0 ROOT
