@<TRIPOS>MOLECULE
6B4
   56    58     1     0     0
SMALL
bcc


@<TRIPOS>ATOM
      1 CAA         1.4780   -3.7040    1.4470 c3        1 6B4     -0.057000
      2 SAT         3.0740   -2.9790    1.4780 ss        1 6B4     -0.211000
      3 CAY         2.9500   -1.5930    2.4570 ca        1 6B4      0.028900
      4 CAG         1.8720   -1.3800    3.3270 ca        1 6B4     -0.139000
      5 CAE         1.8000   -0.2360    4.1160 ca        1 6B4     -0.084000
      6 CAF         2.8120    0.7230    4.0470 ca        1 6B4     -0.130000
      7 CAH         3.8850    0.5270    3.1840 ca        1 6B4     -0.112000
      8 CAZ         3.9660   -0.6230    2.3900 ca        1 6B4     -0.126300
      9 CBA         5.1050   -0.7750    1.4180 c3        1 6B4      0.154000
     10 CAP         5.0420    0.3150    0.3210 c3        1 6B4     -0.088400
     11 CAM         6.2550    1.2190    0.5060 c3        1 6B4     -0.087400
     12 CAQ         7.1160    0.5900    1.6110 c3        1 6B4      0.065000
     13 N1          6.4410   -0.6290    2.0430 n         1 6B4     -0.380800
     14 C           6.9870   -1.5440    2.8580 c         1 6B4      0.654100
     15 O           6.4610   -2.6420    3.1890 o         1 6B4     -0.703100
     16 CA          8.3870   -1.2440    3.4560 c3        1 6B4      0.006800
     17 N           8.7460   -2.2460    4.5140 ny        1 6B4     -0.637800
     18 CAU         9.2450   -3.5380    3.9140 c         1 6B4      0.495100
     19 OAC        10.4280   -3.5970    3.6070 o         1 6B4     -0.344100
     20 N2          8.3250   -4.6760    3.7880 ny        1 6B4     -0.686800
     21 CAO         8.1960   -5.5250    5.1070 c3        1 6B4      0.240100
     22 CAX         7.6400   -6.8160    4.7530 ca        1 6B4     -0.317300
     23 CAK         6.2390   -7.0230    4.7340 ca        1 6B4     -0.009500
     24 CAI         5.7070   -8.2610    4.4800 ca        1 6B4     -0.225000
     25 CAW         6.5610   -9.3880    4.2230 ca        1 6B4      0.298600
     26 N3          6.0490  -10.6130    3.9830 nv        1 6B4     -0.797200
     27 CAJ         7.9810   -9.1640    4.2280 ca        1 6B4     -0.225000
     28 CAL         8.4910   -7.9170    4.4840 ca        1 6B4     -0.009500
     29 H1          1.2110   -4.1880    2.4120 h1        1 6B4      0.082033
     30 H2          1.5320   -4.4850    0.6500 h1        1 6B4      0.082033
     31 H3          0.6810   -2.9730    1.1790 h1        1 6B4      0.082033
     32 H4          1.0600   -2.1230    3.3870 ha        1 6B4      0.149000
     33 H5          0.9400   -0.0850    4.7870 ha        1 6B4      0.157000
     34 H6          2.7520    1.6360    4.6600 ha        1 6B4      0.153000
     35 H7          4.6670    1.2990    3.1030 ha        1 6B4      0.125000
     36 H8          5.0740   -1.8060    0.9480 h1        1 6B4      0.100700
     37 H9          5.0550   -0.1700   -0.6870 hc        1 6B4      0.090200
     38 H10         4.0900    0.8970    0.4110 hc        1 6B4      0.090200
     39 H11         5.9420    2.2500    0.8090 hc        1 6B4      0.084200
     40 H12         6.8420    1.3040   -0.4420 hc        1 6B4      0.084200
     41 H13         7.2180    1.2930    2.4850 h1        1 6B4      0.057200
     42 H14         8.1430    0.3410    1.2260 h1        1 6B4      0.057200
     43 H15         9.1740   -1.2610    2.6470 hx        1 6B4      0.146200
     44 H16         8.3840   -0.2250    3.9480 hx        1 6B4      0.146200
     45 H17         9.5050   -1.8550    5.0970 hn        1 6B4      0.495800
     46 H18         7.5260   -4.9180    5.7750 hx        1 6B4      0.097700
     47 H19         9.2380   -5.5950    5.5240 hx        1 6B4      0.097700
     48 H20         5.5640   -6.1760    4.9440 ha        1 6B4      0.144000
     49 H21         4.6130   -8.4000    4.4840 ha        1 6B4      0.170500
     50 H22         8.6650  -10.0080    4.0370 ha        1 6B4      0.170500
     51 H23         9.5850   -7.7740    4.5040 ha        1 6B4      0.144000
     52 H24         8.6970   -5.3040    3.0510 hn        1 6B4      0.499300
     53 H25         5.0670  -10.7660    4.0000 hn        1 6B4      0.465300
     54 H26         6.6470  -11.3910    3.8250 hn        1 6B4      0.465300
     55 H27         7.9070   -2.4140    5.0940 hn        1 6B4      0.495800
     56 H221        7.3740   -4.3730    3.4930 hn        1 6B4      0.499300
@<TRIPOS>BOND
     1    1    2 1   
     2    1   29 1   
     3    1   30 1   
     4    1   31 1   
     5    2    3 1   
     6    3    4 ar  
     7    3    8 ar  
     8    4    5 ar  
     9    4   32 1   
    10    5    6 ar  
    11    5   33 1   
    12    6    7 ar  
    13    6   34 1   
    14    7    8 ar  
    15    7   35 1   
    16    8    9 1   
    17    9   10 1   
    18    9   13 1   
    19    9   36 1   
    20   10   11 1   
    21   10   37 1   
    22   10   38 1   
    23   11   12 1   
    24   11   39 1   
    25   11   40 1   
    26   12   13 1   
    27   12   41 1   
    28   12   42 1   
    29   13   14 1   
    30   14   15 2   
    31   14   16 1   
    32   16   17 1   
    33   16   43 1   
    34   16   44 1   
    35   17   18 1   
    36   17   45 1   
    37   17   55 1   
    38   18   19 2   
    39   18   20 1   
    40   20   21 1   
    41   20   52 1   
    42   20   56 1   
    43   21   22 1   
    44   21   46 1   
    45   21   47 1   
    46   22   23 ar  
    47   22   28 ar  
    48   23   24 ar  
    49   23   48 1   
    50   24   25 ar  
    51   24   49 1   
    52   25   26 1   
    53   25   27 ar  
    54   26   53 1   
    55   26   54 1   
    56   27   28 ar  
    57   27   50 1   
    58   28   51 1   
@<TRIPOS>SUBSTRUCTURE
     1 6B4         1 TEMP              0 ****  ****    0 ROOT
