@<TRIPOS>MOLECULE
6BC
   29    31     1     0     0
SMALL
bcc


@<TRIPOS>ATOM
      1 CL17        0.3180   -0.9640    1.3380 cl        1 6BC     -0.116000
      2 C16         1.8570   -0.5000    0.7500 cc        1 6BC      0.564300
      3 N18         2.8270   -0.3380    1.6490 nd        1 6BC     -0.643000
      4 C4          4.0580    0.0270    1.1750 cd        1 6BC      0.432500
      5 C8          2.0230   -0.3130   -0.6700 cc        1 6BC     -0.320600
      6 C6          3.2970    0.0320   -1.1370 cd        1 6BC      0.270800
      7 O7          3.6040    0.2490   -2.4520 oh        1 6BC     -0.460100
      8 N5          4.3450    0.2110   -0.2400 na        1 6BC      0.022200
      9 N19         5.6290    0.5650   -0.4550 nd        1 6BC     -0.522100
     10 C20         6.2180    0.6220    0.7630 cc        1 6BC      0.422500
     11 C1          5.2930    0.2970    1.8240 cc        1 6BC     -0.175300
     12 C2          5.5580    0.2590    3.1950 cg        1 6BC      0.241500
     13 N3          5.7840    0.2290    4.3360 n1        1 6BC     -0.362800
     14 C9          0.8980   -0.4360   -1.6340 c3        1 6BC      0.013200
     15 C10         0.9740   -1.6650   -2.4780 ca        1 6BC     -0.109300
     16 C15         1.0150   -1.5570   -3.8730 ca        1 6BC     -0.130000
     17 C14         1.0560   -2.7040   -4.6650 ca        1 6BC     -0.121500
     18 C13         1.0570   -3.9660   -4.0700 ca        1 6BC     -0.122000
     19 C12         1.0130   -4.0780   -2.6800 ca        1 6BC     -0.121500
     20 C11         0.9690   -2.9340   -1.8870 ca        1 6BC     -0.130000
     21 H91C        0.8850    0.4790   -2.2910 hc        1 6BC      0.073700
     22 H92C       -0.0840   -0.4430   -1.0830 hc        1 6BC      0.073700
     23 H20         7.2740    0.8870    0.8750 h4        1 6BC      0.070800
     24 H15         0.9980   -0.5660   -4.3510 ha        1 6BC      0.136000
     25 H11         0.9290   -3.0220   -0.7900 ha        1 6BC      0.136000
     26 H14         1.0860   -2.6120   -5.7610 ha        1 6BC      0.138500
     27 H13         1.0910   -4.8700   -4.6960 ha        1 6BC      0.138000
     28 H12         1.0100   -5.0720   -2.2080 ha        1 6BC      0.138500
     29 H7          2.9580   -0.2460   -2.9910 ho        1 6BC      0.461000
@<TRIPOS>BOND
     1    1    2 1   
     2    2    3 2   
     3    2    5 1   
     4    3    4 1   
     5    4    8 1   
     6    4   11 2   
     7    5    6 2   
     8    5   14 1   
     9    6    7 1   
    10    6    8 1   
    11    7   29 1   
    12    8    9 1   
    13    9   10 2   
    14   10   11 1   
    15   10   23 1   
    16   11   12 1   
    17   12   13 3   
    18   14   15 1   
    19   14   21 1   
    20   14   22 1   
    21   15   16 ar  
    22   15   20 ar  
    23   16   17 ar  
    24   16   24 1   
    25   17   18 ar  
    26   17   26 1   
    27   18   19 ar  
    28   18   27 1   
    29   19   20 ar  
    30   19   28 1   
    31   20   25 1   
@<TRIPOS>SUBSTRUCTURE
     1 6BC         1 TEMP              0 ****  ****    0 ROOT
