@<TRIPOS>MOLECULE
6BC
   29    31     1     0     0
SMALL
bcc


@<TRIPOS>ATOM
      1 CL17        0.0050   -0.0460    0.2130 cl        1 6BC     -0.108000
      2 C16         1.7130   -0.0360    0.1610 cc        1 6BC      0.568300
      3 N18         2.3580    0.0040    1.3290 nd        1 6BC     -0.648000
      4 C4          3.7240    0.0220    1.2820 cd        1 6BC      0.449500
      5 C8          2.3560   -0.0630   -1.1300 cc        1 6BC     -0.259600
      6 C6          3.7570   -0.0440   -1.1570 cd        1 6BC      0.257800
      7 O7          4.3860   -0.0710   -2.3720 oh        1 6BC     -0.472100
      8 N5          4.4710    0.0020    0.0380 na        1 6BC     -0.012800
      9 N19         5.8050    0.0300    0.2440 nd        1 6BC     -0.583100
     10 C20         5.9830    0.0680    1.5870 cc        1 6BC      0.443500
     11 C1          4.7250    0.0660    2.2940 cc        1 6BC     -0.183300
     12 C2          4.5320    0.0990    3.6760 cg        1 6BC      0.241500
     13 N3          4.3770    0.1280    4.8300 n1        1 6BC     -0.361800
     14 C9          1.5950   -0.1000   -2.4080 c3        1 6BC      0.028200
     15 C10         1.2470   -1.4870   -2.8370 ca        1 6BC     -0.087300
     16 C15        -0.0690   -1.9520   -2.7430 ca        1 6BC     -0.120500
     17 C14        -0.3900   -3.2400   -3.1730 ca        1 6BC     -0.128500
     18 C13         0.5990   -4.0700   -3.6990 ca        1 6BC     -0.125000
     19 C12         1.9120   -3.6090   -3.7980 ca        1 6BC     -0.128500
     20 C11         2.2360   -2.3230   -3.3710 ca        1 6BC     -0.120500
     21 H91C        0.6600    0.5150   -2.3030 hc        1 6BC      0.071700
     22 H92C        2.2160    0.3820   -3.2160 hc        1 6BC      0.071700
     23 H20         6.9830    0.0960    2.0300 h4        1 6BC      0.070800
     24 H15        -0.8530   -1.3020   -2.3280 ha        1 6BC      0.134500
     25 H11         3.2700   -1.9540   -3.4500 ha        1 6BC      0.134500
     26 H14        -1.4260   -3.5990   -3.0940 ha        1 6BC      0.133500
     27 H13         0.3440   -5.0850   -4.0370 ha        1 6BC      0.133000
     28 H12         2.6940   -4.2610   -4.2150 ha        1 6BC      0.133500
     29 H7          5.3500    0.0130   -2.2740 ho        1 6BC      0.466000
@<TRIPOS>BOND
     1    1    2 1   
     2    2    3 2   
     3    2    5 1   
     4    3    4 1   
     5    4    8 1   
     6    4   11 2   
     7    5    6 2   
     8    5   14 1   
     9    6    7 1   
    10    6    8 1   
    11    7   29 1   
    12    8    9 1   
    13    9   10 2   
    14   10   11 1   
    15   10   23 1   
    16   11   12 1   
    17   12   13 3   
    18   14   15 1   
    19   14   21 1   
    20   14   22 1   
    21   15   16 ar  
    22   15   20 ar  
    23   16   17 ar  
    24   16   24 1   
    25   17   18 ar  
    26   17   26 1   
    27   18   19 ar  
    28   18   27 1   
    29   19   20 ar  
    30   19   28 1   
    31   20   25 1   
@<TRIPOS>SUBSTRUCTURE
     1 6BC         1 TEMP              0 ****  ****    0 ROOT
