@<TRIPOS>MOLECULE
6BC
   29    32     1     0     0
SMALL
bcc


@<TRIPOS>ATOM
      1 Cl17        0.0000    0.0000    0.0000 cl        1 6BC      0.117000
      2 C16         1.7360    0.0000    0.0000 c2        1 6BC     -0.043000
      3 N18         2.3940    0.0000    1.1420 n2        1 6BC     -0.017000
      4 C4          3.7270   -0.0000    1.1680 c2        1 6BC     -0.116000
      5 C8          2.4320   -0.0090   -1.2100 c2        1 6BC     -0.189000
      6 C6          3.7980   -0.0090   -1.1960 c2        1 6BC      0.053000
      7 O7          4.4960   -0.0160   -2.3540 oh        1 6BC     -0.202000
      8 N5          4.4490   -0.0020    0.0070 na        1 6BC      0.417000
      9 N19         5.8080   -0.0030    0.3400 n2        1 6BC     -0.263000
     10 C20         5.9390   -0.0020    1.6400 c2        1 6BC      0.018000
     11 C1          4.6590    0.0010    2.2230 c2        1 6BC     -0.141000
     12 C2          4.3600    0.0020    3.6230 c1        1 6BC     -0.042000
     13 N3          4.1320   -0.0140    4.7360 n1        1 6BC     -0.076000
     14 C9          1.6830   -0.0170   -2.5180 c3        1 6BC     -0.274000
     15 C10         1.3260   -1.4340   -2.8840 c3        1 6BC     -0.171000
     16 C15         0.1270   -1.9760   -2.4610 c2        1 6BC     -0.109000
     17 C14        -0.2000   -3.2760   -2.7960 c2        1 6BC     -0.093500
     18 C13         0.6720   -4.0340   -3.5550 c2        1 6BC     -0.083000
     19 C12         1.8700   -3.4930   -3.9800 c2        1 6BC     -0.093500
     20 C11         2.1960   -2.1900   -3.6480 c2        1 6BC     -0.109000
     21 H91C        2.3970    0.2530   -3.2870 hc        1 6BC      0.091000
     22 H92C        0.8690   -0.7170   -2.6620 DU        1 6BC      0.316000
     23 H20         6.9500   -0.0300    2.0290 h4        1 6BC      0.153000
     24 H15        -0.6360   -1.4460   -1.9040 ha        1 6BC      0.129000
     25 H11         3.1700   -1.7470   -3.8140 ha        1 6BC      0.129000
     26 H14        -1.1190   -3.3630   -2.2280 ha        1 6BC      0.128000
     27 H13         0.4020   -5.0820   -3.6080 ha        1 6BC      0.111000
     28 H12         2.2790   -4.4030   -4.4020 ha        1 6BC      0.128000
     29 H7          4.0200    0.5770   -2.9110 ho        1 6BC      0.228000
@<TRIPOS>BOND
     1    1    2 1   
     2    2    3 1   
     3    2    5 1   
     4    3    4 1   
     5    4    8 1   
     6    4   11 1   
     7    5    6 1   
     8    5   14 1   
     9    6    7 1   
    10    6    8 1   
    11    7   29 1   
    12    8    9 1   
    13    9   10 1   
    14   10   11 1   
    15   10   23 1   
    16   11   12 1   
    17   12   13 1   
    18   14   15 1   
    19   14   21 1   
    20   14   22 1   
    21   15   16 1   
    22   15   20 1   
    23   15   22 1   
    24   16   17 1   
    25   16   24 1   
    26   17   18 1   
    27   17   26 1   
    28   18   19 1   
    29   18   27 1   
    30   19   20 1   
    31   19   28 1   
    32   20   25 1   
@<TRIPOS>SUBSTRUCTURE
     1 6BC         1 TEMP              0 ****  ****    0 ROOT
