@<TRIPOS>MOLECULE
6BC
   29    23     1     0     0
SMALL
bcc


@<TRIPOS>ATOM
      1 CL17       -2.8950    1.0310    0.5690 cl        1 6BC      0.058000
      2 C16        -1.1580    0.8840    0.6150 c2        1 6BC      0.074000
      3 N18        -1.3040    0.8920    1.9520 n2        1 6BC     -0.122000
      4 C4         -0.1930    0.8190    2.7690 c1        1 6BC      0.098000
      5 C8          0.0940    0.8020    0.0640 c1        1 6BC     -0.187000
      6 C6          1.1940    0.7290    0.8730 c1        1 6BC      0.237000
      7 O7          2.5440    1.1160    0.7790 oh        1 6BC     -0.226000
      8 N5          1.0440    0.7380    2.2260 n1        1 6BC     -0.128000
      9 N19         1.9670    0.6770    3.2640 n1        1 6BC     -0.116000
     10 C20         1.2840    0.7210    4.4370 c1        1 6BC     -0.060000
     11 C1         -0.0560    0.8090    4.1460 c1        1 6BC     -0.130000
     12 C2         -1.0930    0.6430    5.2340 c1        1 6BC     -0.051000
     13 N3         -1.8750    0.5190    6.0550 n1        1 6BC     -0.036000
     14 C9          0.1480    1.1100   -1.4160 c3        1 6BC     -0.065000
     15 C10        -0.1420   -0.1490   -2.2040 c2        1 6BC     -0.080000
     16 C15        -1.4520   -0.5130   -2.4700 c2        1 6BC     -0.119000
     17 C14        -1.7170   -1.6300   -3.2450 c1        1 6BC     -0.128000
     18 C13        -0.6720   -2.3840   -3.7550 c1        1 6BC     -0.127000
     19 C12         0.6390   -2.0200   -3.4880 c1        1 6BC     -0.127000
     20 C11         0.9040   -0.9030   -2.7130 c1        1 6BC     -0.122000
     21 H91C       -0.5200    1.7900   -1.6320 hc        1 6BC      0.111000
     22 H92C        1.0390    1.4420   -1.6480 hc        1 6BC      0.111000
     23 H20         1.6760    0.6820    5.3310 DU        1 6BC      0.200000
     24 H15        -2.1880    0.0180   -2.1110 ha        1 6BC      0.132000
     25 H11         1.8280   -0.6470   -2.5250 ha        1 6BC      0.137000
     26 H14        -2.6410   -1.8860   -3.4330 ha        1 6BC      0.134000
     27 H13        -0.8580   -3.1700   -4.3000 ha        1 6BC      0.133000
     28 H12         1.3750   -2.5510   -3.8470 ha        1 6BC      0.133000
     29 H7          3.0270    0.4340    0.4720 ho        1 6BC      0.265000
@<TRIPOS>BOND
     1    1    2 1   
     2    2    3 1   
     3    2    5 1   
     4    3    4 1   
     5    5   14 1   
     6    6    7 1   
     7    6    8 1   
     8    7   29 1   
     9    9   10 1   
    10   10   11 1   
    11   12   13 1   
    12   14   15 1   
    13   14   21 1   
    14   14   22 1   
    15   15   16 1   
    16   15   20 1   
    17   16   17 1   
    18   16   24 1   
    19   17   26 1   
    20   18   19 1   
    21   18   27 1   
    22   19   28 1   
    23   20   25 1   
@<TRIPOS>SUBSTRUCTURE
     1 6BC         1 TEMP              0 ****  ****    0 ROOT
