@<TRIPOS>MOLECULE
6BC
   29    31     1     0     0
SMALL
bcc


@<TRIPOS>ATOM
      1 CL17       -0.4960   -2.6420    0.6530 cl        1 6BC     -0.108000
      2 C16         0.3640   -1.1730    0.4990 cc        1 6BC      0.568300
      3 N18         1.6170   -1.2460    0.0450 nd        1 6BC     -0.648000
      4 C4          2.3050   -0.0690   -0.0670 cd        1 6BC      0.449500
      5 C8         -0.3030    0.0510    0.8720 cc        1 6BC     -0.259600
      6 C6          0.4190    1.2460    0.7500 cd        1 6BC      0.257800
      7 O7         -0.1970    2.4170    1.0970 oh        1 6BC     -0.472100
      8 N5          1.7310    1.2160    0.2840 na        1 6BC     -0.012800
      9 N19         2.6010    2.2320    0.0950 nd        1 6BC     -0.583100
     10 C20         3.7430    1.6730   -0.3750 cc        1 6BC      0.443500
     11 C1          3.6260    0.2400   -0.4990 cc        1 6BC     -0.183300
     12 C2          4.6030   -0.6520   -0.9470 cg        1 6BC      0.241500
     13 N3          5.4200   -1.3910   -1.3210 n1        1 6BC     -0.361800
     14 C9         -1.7010    0.0830    1.3810 c3        1 6BC      0.028200
     15 C10        -2.7150    0.1620    0.2890 ca        1 6BC     -0.087300
     16 C15        -3.5030   -0.9480   -0.0330 ca        1 6BC     -0.120500
     17 C14        -4.4680   -0.8570   -1.0360 ca        1 6BC     -0.128500
     18 C13        -4.6530    0.3430   -1.7230 ca        1 6BC     -0.125000
     19 C12        -3.8720    1.4540   -1.4040 ca        1 6BC     -0.128500
     20 C11        -2.9080    1.3650   -0.4010 ca        1 6BC     -0.120500
     21 H91C       -1.8880   -0.8280    2.0140 hc        1 6BC      0.071700
     22 H92C       -1.8240    0.9800    2.0520 hc        1 6BC      0.071700
     23 H20         4.6190    2.2820   -0.6150 h4        1 6BC      0.070800
     24 H15        -3.3610   -1.8970    0.5050 ha        1 6BC      0.134500
     25 H11        -2.2910    2.2400   -0.1440 ha        1 6BC      0.134500
     26 H14        -5.0830   -1.7340   -1.2850 ha        1 6BC      0.133500
     27 H13        -5.4130    0.4130   -2.5140 ha        1 6BC      0.133000
     28 H12        -4.0160    2.4020   -1.9420 ha        1 6BC      0.133500
     29 H7          0.4150    3.1710    1.0370 ho        1 6BC      0.466000
@<TRIPOS>BOND
     1    1    2 1   
     2    2    3 2   
     3    2    5 1   
     4    3    4 1   
     5    4    8 1   
     6    4   11 2   
     7    5    6 2   
     8    5   14 1   
     9    6    7 1   
    10    6    8 1   
    11    7   29 1   
    12    8    9 1   
    13    9   10 2   
    14   10   11 1   
    15   10   23 1   
    16   11   12 1   
    17   12   13 3   
    18   14   15 1   
    19   14   21 1   
    20   14   22 1   
    21   15   16 ar  
    22   15   20 ar  
    23   16   17 ar  
    24   16   24 1   
    25   17   18 ar  
    26   17   26 1   
    27   18   19 ar  
    28   18   27 1   
    29   19   20 ar  
    30   19   28 1   
    31   20   25 1   
@<TRIPOS>SUBSTRUCTURE
     1 6BC         1 TEMP              0 ****  ****    0 ROOT
