@<TRIPOS>MOLECULE
6BD
   35    29     1     0     0
SMALL
bcc


@<TRIPOS>ATOM
      1 CAQ         0.9410    0.5230    1.6170 c1        1 6BD     -0.011000
      2 CAH         2.3370    0.4970    1.6080 c1        1 6BD     -0.117500
      3 CAD         3.0420    0.4900    2.8090 c1        1 6BD     -0.117500
      4 CAF         2.3510    0.5080    4.0260 c1        1 6BD     -0.143000
      5 CAJ         0.9590    0.5330    4.0370 c1        1 6BD     -0.114000
      6 CAS         0.2510    0.5410    2.8330 c1        1 6BD     -0.039000
      7 CAT        -1.2180    0.5790    2.5360 c1        1 6BD     -0.043000
      8 CAK        -2.3370    0.6270    3.3690 c1        1 6BD     -0.115000
      9 CAG        -3.6140    0.6780    2.8170 c2        1 6BD     -0.142000
     10 CAE        -3.7770    0.6830    1.4280 c1        1 6BD     -0.132000
     11 CAI        -2.6620    0.6350    0.5950 c2        1 6BD     -0.093000
     12 CAR        -1.3800    0.5830    1.1470 c1        1 6BD     -0.040000
     13 CAP        -0.0480    0.5560    0.5360 c2        1 6BD     -0.077000
     14 NAM         0.2130    0.6510   -0.7390 n1        1 6BD      0.039000
     15 OAN         0.1710   -0.4620   -1.5290 o         1 6BD     -0.223000
     16 CAL         0.7900   -0.1940   -2.7650 c3        1 6BD      0.013000
     17 CAU         0.5480   -1.3500   -3.7110 c3        1 6BD     -0.216000
     18 CAA         1.7560   -1.5320   -4.6030 c3        1 6BD     -0.186000
     19 CAO        -0.6680   -1.0590   -4.5620 c2        1 6BD      0.339000
     20 OAC        -0.7240    0.0000   -5.2410 o         1 6BD     -0.572500
     21 OAB        -1.6390   -1.8600   -4.5670 o         1 6BD     -0.572500
     22 HAH         2.8200    0.4850    0.7590 ha        1 6BD      0.138000
     23 HAD         4.0180    0.4720    2.8020 ha        1 6BD      0.138000
     24 HAF         2.8460    0.5020    4.8670 ha        1 6BD      0.120000
     25 HAJ         0.4770    0.5340    4.8860 DU        1 6BD      0.125667
     26 HAK        -2.2240    0.6240    4.3380 DU        1 6BD      0.125667
     27 HAG        -4.3970    0.7120    3.4000 ha        1 6BD      0.120000
     28 HAE        -4.6730    0.7190    1.0410 DU        1 6BD      0.125667
     29 HAI        -2.7760    0.6560   -0.3740 ha        1 6BD      0.164000
     30 HAL         1.7530   -0.0780   -2.6300 h1        1 6BD      0.113500
     31 HALA        0.4130    0.6250   -3.1480 h1        1 6BD      0.113500
     32 HAU         0.3980   -2.1650   -3.1960 hc        1 6BD      0.092000
     33 HAA         1.9410   -0.6940   -5.0780 hc        1 6BD      0.062333
     34 HAAA        2.5330   -1.7750   -4.0560 hc        1 6BD      0.062333
     35 HAAB        1.5780   -2.2440   -5.2520 hc        1 6BD      0.062333
@<TRIPOS>BOND
     1    1    6 1   
     2    1   13 1   
     3    2    3 1   
     4    2   22 1   
     5    3   23 1   
     6    4    5 1   
     7    4   24 1   
     8    5    6 1   
     9    7    8 1   
    10    8    9 1   
    11    9   10 1   
    12    9   27 1   
    13   10   11 1   
    14   11   12 1   
    15   11   29 1   
    16   12   13 1   
    17   13   14 1   
    18   15   16 1   
    19   16   17 1   
    20   16   30 1   
    21   16   31 1   
    22   17   18 1   
    23   17   19 1   
    24   17   32 1   
    25   18   33 1   
    26   18   34 1   
    27   18   35 1   
    28   19   20 1   
    29   19   21 1   
@<TRIPOS>SUBSTRUCTURE
     1 6BD         1 TEMP              0 ****  ****    0 ROOT
