@<TRIPOS>MOLECULE
6BD
   35    37     1     0     0
SMALL
bcc


@<TRIPOS>ATOM
      1 CAQ        -0.0570    0.0110   -0.0370 ca        1 6BD     -0.110900
      2 CAH         1.3250    0.0310   -0.0720 ca        1 6BD     -0.096500
      3 CAD         2.0250    0.0750    1.1440 ca        1 6BD     -0.134000
      4 CAF         1.3490    0.0980    2.3590 ca        1 6BD     -0.142000
      5 CAJ        -0.0520    0.0790    2.4050 ca        1 6BD     -0.115000
      6 CAS        -0.7550    0.0360    1.2140 cp        1 6BD     -0.041000
      7 CAT        -2.1910    0.0070    0.9410 cp        1 6BD     -0.041000
      8 CAK        -3.2850    0.0130    1.7880 ca        1 6BD     -0.115000
      9 CAG        -4.5700   -0.0230    1.2260 ca        1 6BD     -0.142000
     10 CAE        -4.7470   -0.0660   -0.1540 ca        1 6BD     -0.134000
     11 CAI        -3.6460   -0.0720   -1.0240 ca        1 6BD     -0.096500
     12 CAR        -2.3750   -0.0340   -0.4790 ca        1 6BD     -0.110900
     13 CAP        -1.0490   -0.0330   -1.1420 cc        1 6BD      0.380500
     14 NAM        -0.7080   -0.0590   -2.4070 n2        1 6BD     -0.353200
     15 OAN        -1.6720   -0.0830   -3.2770 os        1 6BD     -0.197300
     16 CAL        -1.2330   -0.1650   -4.6900 c3        1 6BD      0.172400
     17 CAU        -2.5010   -0.0090   -5.5000 c3        1 6BD     -0.210700
     18 CAA        -3.4100   -1.2050   -5.3650 c3        1 6BD     -0.066100
     19 CAO        -2.1330    0.2230   -6.9960 c         1 6BD      0.922600
     20 OAC        -0.9110    0.2800   -7.3070 o         1 6BD     -0.834800
     21 OAB        -3.0900    0.3560   -7.8050 o         1 6BD     -0.834800
     22 HAH         1.8660    0.0130   -1.0300 ha        1 6BD      0.159500
     23 HAD         3.1250    0.0910    1.1290 ha        1 6BD      0.126000
     24 HAF         1.9170    0.1330    3.3000 ha        1 6BD      0.120000
     25 HAJ        -0.5780    0.0980    3.3690 ha        1 6BD      0.125500
     26 HAK        -3.1550    0.0460    2.8780 ha        1 6BD      0.125500
     27 HAG        -5.4460   -0.0180    1.8890 ha        1 6BD      0.120000
     28 HAE        -5.7620   -0.0940   -0.5750 ha        1 6BD      0.126000
     29 HAI        -3.7860   -0.1080   -2.1180 ha        1 6BD      0.159500
     30 HAL        -0.7510   -1.1610   -4.8490 h1        1 6BD      0.061700
     31 HALA       -0.5090    0.6590   -4.9090 h1        1 6BD      0.061700
     32 HAU        -3.0490    0.9090   -5.1540 hc        1 6BD      0.048700
     33 HAA        -4.2790   -1.0870   -6.0590 hc        1 6BD      0.022033
     34 HAAA       -2.8690   -2.1440   -5.6350 hc        1 6BD      0.022033
     35 HAAB       -3.7850   -1.3010   -4.3170 hc        1 6BD      0.022033
@<TRIPOS>BOND
     1    1    2 ar  
     2    1    6 ar  
     3    1   13 1   
     4    2    3 ar  
     5    2   22 1   
     6    3    4 ar  
     7    3   23 1   
     8    4    5 ar  
     9    4   24 1   
    10    5    6 ar  
    11    5   25 1   
    12    6    7 1   
    13    7    8 ar  
    14    7   12 ar  
    15    8    9 ar  
    16    8   26 1   
    17    9   10 ar  
    18    9   27 1   
    19   10   11 ar  
    20   10   28 1   
    21   11   12 ar  
    22   11   29 1   
    23   12   13 1   
    24   13   14 2   
    25   14   15 1   
    26   15   16 1   
    27   16   17 1   
    28   16   30 1   
    29   16   31 1   
    30   17   18 1   
    31   17   19 1   
    32   17   32 1   
    33   18   33 1   
    34   18   34 1   
    35   18   35 1   
    36   19   20 1   
    37   19   21 1   
@<TRIPOS>SUBSTRUCTURE
     1 6BD         1 TEMP              0 ****  ****    0 ROOT
