@<TRIPOS>MOLECULE
6BD
   35    37     1     0     0
SMALL
bcc


@<TRIPOS>ATOM
      1 CAQ        -0.0570    0.0140   -0.0380 ca        1 6BD     -0.110900
      2 CAH         1.3250    0.0350   -0.0730 ca        1 6BD     -0.096500
      3 CAD         2.0250    0.0790    1.1430 ca        1 6BD     -0.134000
      4 CAF         1.3500    0.1010    2.3580 ca        1 6BD     -0.142000
      5 CAJ        -0.0520    0.0800    2.4040 ca        1 6BD     -0.115000
      6 CAS        -0.7550    0.0360    1.2140 cp        1 6BD     -0.041000
      7 CAT        -2.1910    0.0060    0.9410 cp        1 6BD     -0.041000
      8 CAK        -3.2850    0.0100    1.7880 ca        1 6BD     -0.115000
      9 CAG        -4.5700   -0.0280    1.2260 ca        1 6BD     -0.142000
     10 CAE        -4.7470   -0.0700   -0.1530 ca        1 6BD     -0.134000
     11 CAI        -3.6460   -0.0750   -1.0240 ca        1 6BD     -0.096500
     12 CAR        -2.3760   -0.0350   -0.4790 ca        1 6BD     -0.110900
     13 CAP        -1.0500   -0.0310   -1.1420 cc        1 6BD      0.380500
     14 NAM        -0.7080   -0.0560   -2.4080 n2        1 6BD     -0.353200
     15 OAN        -1.6730   -0.0810   -3.2770 os        1 6BD     -0.197300
     16 CAL        -1.2340   -0.1600   -4.6900 c3        1 6BD      0.172400
     17 CAU        -2.5030   -0.0100   -5.5000 c3        1 6BD     -0.210700
     18 CAA        -3.4070   -1.2100   -5.3660 c3        1 6BD     -0.066100
     19 CAO        -2.1360    0.2250   -6.9950 c         1 6BD      0.922600
     20 OAC        -0.9140    0.2890   -7.3070 o         1 6BD     -0.834800
     21 OAB        -3.0940    0.3530   -7.8040 o         1 6BD     -0.834800
     22 HAH         1.8650    0.0190   -1.0300 ha        1 6BD      0.159500
     23 HAD         3.1250    0.0970    1.1270 ha        1 6BD      0.126000
     24 HAF         1.9180    0.1350    3.2990 ha        1 6BD      0.120000
     25 HAJ        -0.5780    0.0980    3.3690 ha        1 6BD      0.125500
     26 HAK        -3.1550    0.0420    2.8780 ha        1 6BD      0.125500
     27 HAG        -5.4460   -0.0250    1.8900 ha        1 6BD      0.120000
     28 HAE        -5.7620   -0.1000   -0.5740 ha        1 6BD      0.126000
     29 HAI        -3.7870   -0.1100   -2.1170 ha        1 6BD      0.159500
     30 HAL        -0.7480   -1.1540   -4.8500 h1        1 6BD      0.061700
     31 HALA       -0.5130    0.6670   -4.9090 h1        1 6BD      0.061700
     32 HAU        -3.0540    0.9060   -5.1530 hc        1 6BD      0.048700
     33 HAA        -2.8620   -2.1460   -5.6360 hc        1 6BD      0.022033
     34 HAAA       -4.2760   -1.0950   -6.0590 hc        1 6BD      0.022033
     35 HAAB       -3.7800   -1.3090   -4.3170 hc        1 6BD      0.022033
@<TRIPOS>BOND
     1    1    2 ar  
     2    1    6 ar  
     3    1   13 1   
     4    2    3 ar  
     5    2   22 1   
     6    3    4 ar  
     7    3   23 1   
     8    4    5 ar  
     9    4   24 1   
    10    5    6 ar  
    11    5   25 1   
    12    6    7 1   
    13    7    8 ar  
    14    7   12 ar  
    15    8    9 ar  
    16    8   26 1   
    17    9   10 ar  
    18    9   27 1   
    19   10   11 ar  
    20   10   28 1   
    21   11   12 ar  
    22   11   29 1   
    23   12   13 1   
    24   13   14 2   
    25   14   15 1   
    26   15   16 1   
    27   16   17 1   
    28   16   30 1   
    29   16   31 1   
    30   17   18 1   
    31   17   19 1   
    32   17   32 1   
    33   18   33 1   
    34   18   34 1   
    35   18   35 1   
    36   19   20 1   
    37   19   21 1   
@<TRIPOS>SUBSTRUCTURE
     1 6BD         1 TEMP              0 ****  ****    0 ROOT
