@<TRIPOS>MOLECULE
6BD
   35    37     1     0     0
SMALL
bcc


@<TRIPOS>ATOM
      1 CAQ        -2.1360    1.1680    0.0140 ca        1 6BD     -0.110900
      2 CAH        -2.3820    2.5290    0.0390 ca        1 6BD     -0.096500
      3 CAD        -3.7140    2.9690    0.0240 ca        1 6BD     -0.134000
      4 CAF        -4.7680    2.0630   -0.0140 ca        1 6BD     -0.142000
      5 CAJ        -4.5300    0.6810   -0.0400 ca        1 6BD     -0.115000
      6 CAS        -3.2210    0.2320   -0.0260 cp        1 6BD     -0.041000
      7 CAT        -2.6630   -1.1190   -0.0450 cp        1 6BD     -0.041000
      8 CAK        -3.2720   -2.3610   -0.0810 ca        1 6BD     -0.115000
      9 CAG        -2.4620   -3.5060   -0.0890 ca        1 6BD     -0.142000
     10 CAE        -1.0750   -3.4010   -0.0600 ca        1 6BD     -0.134000
     11 CAI        -0.4440   -2.1480   -0.0230 ca        1 6BD     -0.096500
     12 CAR        -1.2350   -1.0130   -0.0170 ca        1 6BD     -0.110900
     13 CAP        -0.8530    0.4190    0.0200 cc        1 6BD      0.380500
     14 NAM         0.3170    1.0080    0.0510 n2        1 6BD     -0.353200
     15 OAN         1.3630    0.2390    0.0390 os        1 6BD     -0.197300
     16 CAL         2.6600    0.9520    0.1270 c3        1 6BD      0.172400
     17 CAU         3.7070   -0.1210   -0.0740 c3        1 6BD     -0.210700
     18 CAA         3.7730   -1.0740    1.0930 c3        1 6BD     -0.066100
     19 CAO         5.0950    0.5490   -0.3020 c         1 6BD      0.922600
     20 OAC         5.1520    1.8100   -0.3220 o         1 6BD     -0.834800
     21 OAB         6.0790   -0.2200   -0.4700 o         1 6BD     -0.834800
     22 HAH        -1.5530    3.2510    0.0680 ha        1 6BD      0.159500
     23 HAD        -3.9220    4.0490    0.0430 ha        1 6BD      0.126000
     24 HAF        -5.8050    2.4290   -0.0250 ha        1 6BD      0.120000
     25 HAJ        -5.3680   -0.0280   -0.0710 ha        1 6BD      0.125500
     26 HAK        -4.3660   -2.4530   -0.1040 ha        1 6BD      0.125500
     27 HAG        -2.9350   -4.4980   -0.1190 ha        1 6BD      0.120000
     28 HAE        -0.4570   -4.3110   -0.0660 ha        1 6BD      0.126000
     29 HAI         0.6550   -2.0650    0.0030 ha        1 6BD      0.159500
     30 HAL         2.7180    1.7300   -0.6740 h1        1 6BD      0.061700
     31 HALA        2.7300    1.4260    1.1370 h1        1 6BD      0.061700
     32 HAU         3.4680   -0.6990   -1.0070 hc        1 6BD      0.048700
     33 HAA         3.9390   -0.5180    2.0470 hc        1 6BD      0.022033
     34 HAAA        2.8230   -1.6550    1.1830 hc        1 6BD      0.022033
     35 HAAB        4.6270   -1.7800    0.9430 hc        1 6BD      0.022033
@<TRIPOS>BOND
     1    1    2 ar  
     2    1    6 ar  
     3    1   13 1   
     4    2    3 ar  
     5    2   22 1   
     6    3    4 ar  
     7    3   23 1   
     8    4    5 ar  
     9    4   24 1   
    10    5    6 ar  
    11    5   25 1   
    12    6    7 1   
    13    7    8 ar  
    14    7   12 ar  
    15    8    9 ar  
    16    8   26 1   
    17    9   10 ar  
    18    9   27 1   
    19   10   11 ar  
    20   10   28 1   
    21   11   12 ar  
    22   11   29 1   
    23   12   13 1   
    24   13   14 2   
    25   14   15 1   
    26   15   16 1   
    27   16   17 1   
    28   16   30 1   
    29   16   31 1   
    30   17   18 1   
    31   17   19 1   
    32   17   32 1   
    33   18   33 1   
    34   18   34 1   
    35   18   35 1   
    36   19   20 1   
    37   19   21 1   
@<TRIPOS>SUBSTRUCTURE
     1 6BD         1 TEMP              0 ****  ****    0 ROOT
