@<TRIPOS>MOLECULE
6BD
   35    37     1     0     0
SMALL
bcc


@<TRIPOS>ATOM
      1 CAQ        -0.0590    0.0130   -0.0350 ca        1 6BD     -0.110900
      2 CAH         1.3230    0.0340   -0.0690 ca        1 6BD     -0.096500
      3 CAD         2.0220    0.0770    1.1480 ca        1 6BD     -0.134000
      4 CAF         1.3450    0.1000    2.3630 ca        1 6BD     -0.142000
      5 CAJ        -0.0570    0.0800    2.4070 ca        1 6BD     -0.115000
      6 CAS        -0.7590    0.0360    1.2150 cp        1 6BD     -0.041000
      7 CAT        -2.1950    0.0070    0.9400 cp        1 6BD     -0.041000
      8 CAK        -3.2890    0.0110    1.7860 ca        1 6BD     -0.115000
      9 CAG        -4.5730   -0.0260    1.2220 ca        1 6BD     -0.142000
     10 CAE        -4.7480   -0.0680   -0.1570 ca        1 6BD     -0.134000
     11 CAI        -3.6470   -0.0740   -1.0270 ca        1 6BD     -0.096500
     12 CAR        -2.3770   -0.0350   -0.4800 ca        1 6BD     -0.110900
     13 CAP        -1.0500   -0.0310   -1.1420 cc        1 6BD      0.380500
     14 NAM        -0.7070   -0.0570   -2.4060 n2        1 6BD     -0.353200
     15 OAN        -1.6700   -0.0820   -3.2770 os        1 6BD     -0.197300
     16 CAL        -1.2300   -0.1620   -4.6900 c3        1 6BD      0.172400
     17 CAU        -2.4980   -0.0100   -5.5000 c3        1 6BD     -0.210700
     18 CAA        -3.4030   -1.2090   -5.3680 c3        1 6BD     -0.066100
     19 CAO        -2.1290    0.2240   -6.9960 c         1 6BD      0.922600
     20 OAC        -0.9070    0.2860   -7.3060 o         1 6BD     -0.834800
     21 OAB        -3.0860    0.3530   -7.8060 o         1 6BD     -0.834800
     22 HAH         1.8650    0.0170   -1.0250 ha        1 6BD      0.159500
     23 HAD         3.1210    0.0950    1.1340 ha        1 6BD      0.126000
     24 HAF         1.9110    0.1350    3.3040 ha        1 6BD      0.120000
     25 HAJ        -0.5840    0.0980    3.3700 ha        1 6BD      0.125500
     26 HAK        -3.1610    0.0430    2.8760 ha        1 6BD      0.125500
     27 HAG        -5.4510   -0.0220    1.8850 ha        1 6BD      0.120000
     28 HAE        -5.7640   -0.0980   -0.5800 ha        1 6BD      0.126000
     29 HAI        -3.7860   -0.1090   -2.1200 ha        1 6BD      0.159500
     30 HAL        -0.5080    0.6640   -4.9080 h1        1 6BD      0.061700
     31 HALA       -0.7440   -1.1560   -4.8490 h1        1 6BD      0.061700
     32 HAU        -3.0490    0.9060   -5.1550 hc        1 6BD      0.048700
     33 HAA        -3.7780   -1.3080   -4.3190 hc        1 6BD      0.022033
     34 HAAA       -4.2710   -1.0940   -6.0620 hc        1 6BD      0.022033
     35 HAAB       -2.8580   -2.1460   -5.6370 hc        1 6BD      0.022033
@<TRIPOS>BOND
     1    1    2 ar  
     2    1    6 ar  
     3    1   13 1   
     4    2    3 ar  
     5    2   22 1   
     6    3    4 ar  
     7    3   23 1   
     8    4    5 ar  
     9    4   24 1   
    10    5    6 ar  
    11    5   25 1   
    12    6    7 1   
    13    7    8 ar  
    14    7   12 ar  
    15    8    9 ar  
    16    8   26 1   
    17    9   10 ar  
    18    9   27 1   
    19   10   11 ar  
    20   10   28 1   
    21   11   12 ar  
    22   11   29 1   
    23   12   13 1   
    24   13   14 2   
    25   14   15 1   
    26   15   16 1   
    27   16   17 1   
    28   16   30 1   
    29   16   31 1   
    30   17   18 1   
    31   17   19 1   
    32   17   32 1   
    33   18   33 1   
    34   18   34 1   
    35   18   35 1   
    36   19   20 1   
    37   19   21 1   
@<TRIPOS>SUBSTRUCTURE
     1 6BD         1 TEMP              0 ****  ****    0 ROOT
