@<TRIPOS>MOLECULE
6BG
   23    23     1     0     0
SMALL
bcc


@<TRIPOS>ATOM
      1 BR6        -3.0630    0.0220   -0.4460 br        1 6BG     -0.154400
      2 C6         -1.5300   -0.6910    0.4700 c3        1 6BG     -0.014000
      3 C5         -0.2010   -0.3500   -0.1790 c3        1 6BG      0.159100
      4 O5          0.1280    0.9830    0.2240 os        1 6BG     -0.445600
      5 C1          1.3470    1.4550   -0.3280 c3        1 6BG      0.312900
      6 O1          1.4510    2.7540    0.1870 oh        1 6BG     -0.595800
      7 C4          0.8950   -1.3170    0.3160 c3        1 6BG      0.115100
      8 O4          0.5520   -2.6080   -0.1530 oh        1 6BG     -0.595800
      9 C3          2.2610   -0.8850   -0.2460 c3        1 6BG      0.110100
     10 O3          3.2220   -1.7490    0.3350 oh        1 6BG     -0.606800
     11 C2          2.5330    0.5770    0.1260 c3        1 6BG      0.053100
     12 O2          3.7210    0.9550   -0.5450 oh        1 6BG     -0.600800
     13 H1         -1.5650   -0.2940    1.5120 h1        1 6BG      0.095700
     14 H2         -1.6490   -1.8020    0.4780 h1        1 6BG      0.095700
     15 H3         -0.2630   -0.4010   -1.3010 h1        1 6BG      0.076700
     16 H4          1.3030    1.5430   -1.4490 h2        1 6BG      0.088700
     17 H5          1.0590    2.7640    1.0730 ho        1 6BG      0.431000
     18 H6          0.9360   -1.3170    1.4410 h1        1 6BG      0.062700
     19 H7          1.3000   -3.1840    0.0590 ho        1 6BG      0.429000
     20 H8          2.2770   -1.0040   -1.3660 h1        1 6BG      0.066700
     21 H9          4.0880   -1.4310    0.0470 ho        1 6BG      0.429000
     22 H10         2.6790    0.6740    1.2380 h1        1 6BG      0.062700
     23 H11         3.8180    1.9090   -0.4190 ho        1 6BG      0.425000
@<TRIPOS>BOND
     1    1    2 1   
     2    2    3 1   
     3    2   13 1   
     4    2   14 1   
     5    3    4 1   
     6    3    7 1   
     7    3   15 1   
     8    4    5 1   
     9    5    6 1   
    10    5   11 1   
    11    5   16 1   
    12    6   17 1   
    13    7    8 1   
    14    7    9 1   
    15    7   18 1   
    16    8   19 1   
    17    9   10 1   
    18    9   11 1   
    19    9   20 1   
    20   10   21 1   
    21   11   12 1   
    22   11   22 1   
    23   12   23 1   
@<TRIPOS>SUBSTRUCTURE
     1 6BG         1 TEMP              0 ****  ****    0 ROOT
