@<TRIPOS>MOLECULE
6BG
   23    23     1     0     0
SMALL
bcc


@<TRIPOS>ATOM
      1 BR6        -3.1310    0.4300   -2.3990 br        1 6BG     -0.153400
      2 C6         -1.2150    0.4300   -2.3990 c3        1 6BG     -0.014000
      3 C5         -0.7190    0.4300   -0.9920 c3        1 6BG      0.157100
      4 O5         -1.4360   -0.6250   -0.2280 os        1 6BG     -0.443600
      5 C1         -1.0130   -0.7010    1.1730 c3        1 6BG      0.317900
      6 O1         -1.6060   -1.8120    1.7630 oh        1 6BG     -0.572800
      7 C4          0.7860    0.3220   -0.8560 c3        1 6BG      0.117100
      8 O4          1.3880    1.5220   -1.3800 oh        1 6BG     -0.595800
      9 C3          1.2210    0.2490    0.5630 c3        1 6BG      0.076100
     10 O3          2.6450   -0.0340    0.6040 oh        1 6BG     -0.604800
     11 C2          0.4960   -0.8130    1.3210 c3        1 6BG      0.046100
     12 O2          0.8350   -0.7030    2.7110 oh        1 6BG     -0.580800
     13 H1         -0.8900    1.2270   -2.8590 h1        1 6BG      0.095700
     14 H2         -0.8900   -0.3670   -2.8590 h1        1 6BG      0.095700
     15 H3         -0.9750    1.2870   -0.6010 h1        1 6BG      0.073700
     16 H4         -1.3160    0.1020    1.6380 h2        1 6BG      0.077700
     17 H5         -2.4550   -1.6320    1.9470 ho        1 6BG      0.427000
     18 H6          1.1110   -0.4570   -1.3460 h1        1 6BG      0.063700
     19 H7          2.0290    1.3050   -1.9540 ho        1 6BG      0.429000
     20 H8          1.0560    1.1110    0.9890 h1        1 6BG      0.052700
     21 H9          3.0620    0.6120    1.0470 ho        1 6BG      0.428000
     22 H10         0.7830   -1.6860    0.9930 h1        1 6BG      0.100700
     23 H11         0.2340   -0.1960    3.1230 ho        1 6BG      0.408000
@<TRIPOS>BOND
     1    1    2 1   
     2    2    3 1   
     3    2   13 1   
     4    2   14 1   
     5    3    4 1   
     6    3    7 1   
     7    3   15 1   
     8    4    5 1   
     9    5    6 1   
    10    5   11 1   
    11    5   16 1   
    12    6   17 1   
    13    7    8 1   
    14    7    9 1   
    15    7   18 1   
    16    8   19 1   
    17    9   10 1   
    18    9   11 1   
    19    9   20 1   
    20   10   21 1   
    21   11   12 1   
    22   11   22 1   
    23   12   23 1   
@<TRIPOS>SUBSTRUCTURE
     1 6BG         1 TEMP              0 ****  ****    0 ROOT
