@<TRIPOS>MOLECULE
6BG
   23    23     1     0     0
SMALL
bcc


@<TRIPOS>ATOM
      1 Br6        -0.0580    0.2630    0.0130 br        1 6BG     -0.158400
      2 C6          1.8310   -0.0980    0.0890 c3        1 6BG     -0.014000
      3 C5          2.4300    0.0070    1.4790 c3        1 6BG      0.160100
      4 O5          2.1060   -1.2070    2.1630 os        1 6BG     -0.450600
      5 C1          2.6030   -1.2580    3.4930 c3        1 6BG      0.314900
      6 O1          2.2490   -2.5510    3.9140 oh        1 6BG     -0.608800
      7 C4          3.9630    0.1510    1.3880 c3        1 6BG      0.116100
      8 O4          4.2270    1.3860    0.7480 oh        1 6BG     -0.597800
      9 C3          4.5700    0.1370    2.8020 c3        1 6BG      0.108100
     10 O3          5.9760    0.1790    2.6340 oh        1 6BG     -0.606800
     11 C2          4.1400   -1.1410    3.5340 c3        1 6BG      0.080100
     12 O2          4.5950   -1.0180    4.8690 oh        1 6BG     -0.602800
     13 H1          1.9780   -1.1250   -0.3190 h1        1 6BG      0.096700
     14 H2          2.3280    0.6530   -0.5720 h1        1 6BG      0.096700
     15 H3          2.0080    0.8830    2.0470 h1        1 6BG      0.073700
     16 H4          2.1110   -0.4780    4.1390 h2        1 6BG      0.058700
     17 H5          1.4590   -2.8240    3.4250 ho        1 6BG      0.441000
     18 H6          4.3980   -0.6930    0.7840 h1        1 6BG      0.064700
     19 H7          5.1830    1.5240    0.8030 ho        1 6BG      0.429000
     20 H8          4.2330    1.0420    3.3810 h1        1 6BG      0.065700
     21 H9          6.3620    0.0830    3.5150 ho        1 6BG      0.429000
     22 H10         4.6030   -2.0460    3.0510 h1        1 6BG      0.074700
     23 H11         4.2910   -1.8070    5.3370 ho        1 6BG      0.427000
@<TRIPOS>BOND
     1    1    2 1   
     2    2    3 1   
     3    2   13 1   
     4    2   14 1   
     5    3    4 1   
     6    3    7 1   
     7    3   15 1   
     8    4    5 1   
     9    5    6 1   
    10    5   11 1   
    11    5   16 1   
    12    6   17 1   
    13    7    8 1   
    14    7    9 1   
    15    7   18 1   
    16    8   19 1   
    17    9   10 1   
    18    9   11 1   
    19    9   20 1   
    20   10   21 1   
    21   11   12 1   
    22   11   22 1   
    23   12   23 1   
@<TRIPOS>SUBSTRUCTURE
     1 6BG         1 TEMP              0 ****  ****    0 ROOT
