@<TRIPOS>MOLECULE
6BG
   23    23     1     0     0
SMALL
bcc


@<TRIPOS>ATOM
      1 BR6        -0.0630    0.2440    0.0210 br        1 6BG     -0.158400
      2 C6          1.8240   -0.1210    0.0930 c3        1 6BG     -0.014000
      3 C5          2.4300    0.0000    1.4790 c3        1 6BG      0.160100
      4 O5          2.1060   -1.2040    2.1800 os        1 6BG     -0.450600
      5 C1          2.6090   -1.2400    3.5080 c3        1 6BG      0.314900
      6 O1          2.2530   -2.5270    3.9470 oh        1 6BG     -0.608800
      7 C4          3.9630    0.1390    1.3790 c3        1 6BG      0.116100
      8 O4          4.2270    1.3650    0.7230 oh        1 6BG     -0.597800
      9 C3          4.5760    0.1410    2.7910 c3        1 6BG      0.108100
     10 O3          5.9810    0.1780    2.6160 oh        1 6BG     -0.606800
     11 C2          4.1460   -1.1270    3.5410 c3        1 6BG      0.080100
     12 O2          4.6070   -0.9870    4.8720 oh        1 6BG     -0.602800
     13 H1          1.9680   -1.1540   -0.3020 h1        1 6BG      0.096700
     14 H2          2.3210    0.6200   -0.5800 h1        1 6BG      0.096700
     15 H3          2.0130    0.8850    2.0370 h1        1 6BG      0.073700
     16 H4          2.1220   -0.4510    4.1470 h2        1 6BG      0.058700
     17 H5          1.4600   -2.8040    3.4640 ho        1 6BG      0.441000
     18 H6          4.3940   -0.7140    0.7840 h1        1 6BG      0.064700
     19 H7          5.1840    1.5010    0.7720 ho        1 6BG      0.429000
     20 H8          4.2440    1.0540    3.3600 h1        1 6BG      0.065700
     21 H9          6.3710    0.0910    3.4970 ho        1 6BG      0.429000
     22 H10         4.6040   -2.0380    3.0670 h1        1 6BG      0.074700
     23 H11         4.3030   -1.7700    5.3520 ho        1 6BG      0.427000
@<TRIPOS>BOND
     1    1    2 1   
     2    2    3 1   
     3    2   13 1   
     4    2   14 1   
     5    3    4 1   
     6    3    7 1   
     7    3   15 1   
     8    4    5 1   
     9    5    6 1   
    10    5   11 1   
    11    5   16 1   
    12    6   17 1   
    13    7    8 1   
    14    7    9 1   
    15    7   18 1   
    16    8   19 1   
    17    9   10 1   
    18    9   11 1   
    19    9   20 1   
    20   10   21 1   
    21   11   12 1   
    22   11   22 1   
    23   12   23 1   
@<TRIPOS>SUBSTRUCTURE
     1 6BG         1 TEMP              0 ****  ****    0 ROOT
