@<TRIPOS>MOLECULE
6C3
   37    30     1     0     0
SMALL
bcc


@<TRIPOS>ATOM
      1 C1         -2.2370   -0.0680    1.8360 c1        1 6C3      0.109000
      2 C2         -0.8400   -0.0980    1.8360 c1        1 6C3     -0.117000
      3 C3         -0.1410   -0.1360    3.0520 c1        1 6C3     -0.056000
      4 C7         -0.1540   -0.0700    0.6490 c1        1 6C3      0.100000
      5 C8         -0.8380   -0.0120   -0.5310 c1        1 6C3     -0.100000
      6 C9         -2.2350    0.0170   -0.5230 c1        1 6C3      0.343000
      7 C10         2.1560    0.9190    0.5600 c1        1 6C3     -0.121750
      8 C11         3.5170    0.6390    0.5930 c1        1 6C3     -0.121750
      9 C12         3.9550   -0.6710    0.5800 c1        1 6C3     -0.121750
     10 C13         3.0370   -1.7120    0.5330 c1        1 6C3     -0.121750
     11 C14         1.6750   -1.4400    0.5000 c1        1 6C3     -0.083000
     12 C15         1.2300   -0.1240    0.5130 c1        1 6C3     -0.081000
     13 C16        -0.6010    1.0190   -2.7600 c1        1 6C3     -0.183000
     14 C19        -0.0640    1.0620   -5.4750 c3        1 6C3     -0.156000
     15 C4         -0.8220   -0.1430    4.2230 c1        1 6C3     -0.105000
     16 C5         -2.2330   -0.1110    4.2240 c2        1 6C3     -0.066000
     17 C6         -2.9250   -0.0740    3.0320 c1        1 6C3     -0.182000
     18 N1         -2.9160   -0.0110    0.6680 n3        1 6C3     -0.294000
     19 CL1        -0.0700   -0.2100    5.8130 cl        1 6C3     -0.005000
     20 O1         -2.8550    0.0340   -1.5870 o         1 6C3     -0.350000
     21 C17        -0.5990   -0.0610   -1.8980 c1        1 6C3      0.006000
     22 O2         -0.3640   -1.1720   -2.6230 os        1 6C3     -0.058000
     23 N2         -0.2160   -0.7920   -3.9580 n2        1 6C3     -0.025000
     24 C18        -0.3620    0.5480   -4.0310 c2        1 6C3     -0.107000
     25 H3          0.8690   -0.1590    3.0550 ha        1 6C3      0.167000
     26 H10         1.8510    1.8350    0.5690 ha        1 6C3      0.137000
     27 H11         4.1720    1.3780    0.6260 ha        1 6C3      0.137000
     28 H12         4.9280   -0.8660    0.6050 ha        1 6C3      0.137000
     29 H13         3.3440   -2.6180    0.5230 ha        1 6C3      0.137000
     30 H14         1.0060   -2.2010    0.4640 ha        1 6C3      0.147000
     31 H16        -0.8570    1.9140   -2.5350 DU        1 6C3      0.190000
     32 H191        0.8900    0.9800   -5.6600 hc        1 6C3      0.096667
     33 H192       -0.3340    2.0140   -5.5490 hc        1 6C3      0.096667
     34 H193       -0.5430    0.5550   -6.0880 hc        1 6C3      0.096667
     35 H5         -2.7120   -0.1160    5.0540 ha        1 6C3      0.154000
     36 H6         -3.8720   -0.0530    3.0360 ha        1 6C3      0.146000
     37 HN1        -3.8380    0.0070    0.6740 hn        1 6C3      0.252000
@<TRIPOS>BOND
     1    1    2 1   
     2    1   18 1   
     3    2    4 1   
     4    3   15 1   
     5    3   25 1   
     6    4    5 1   
     7    6   18 1   
     8    6   20 1   
     9    7    8 1   
    10    7   26 1   
    11    8   27 1   
    12    9   10 1   
    13    9   28 1   
    14   10   29 1   
    15   11   12 1   
    16   11   30 1   
    17   13   21 1   
    18   13   24 1   
    19   14   24 1   
    20   14   32 1   
    21   14   33 1   
    22   14   34 1   
    23   15   16 1   
    24   16   17 1   
    25   16   35 1   
    26   17   36 1   
    27   18   37 1   
    28   21   22 1   
    29   22   23 1   
    30   23   24 1   
@<TRIPOS>SUBSTRUCTURE
     1 6C3         1 TEMP              0 ****  ****    0 ROOT
