@<TRIPOS>MOLECULE
6C3
   37    40     1     0     0
SMALL
bcc


@<TRIPOS>ATOM
      1 C1          0.0160    0.0800   -0.0370 ca        1 6C3      0.106600
      2 C2          1.4390    0.0480   -0.0280 ca        1 6C3     -0.132800
      3 C3          2.1150   -0.0200    1.2040 ca        1 6C3     -0.056000
      4 C7          2.1520    0.0660   -1.2920 cc        1 6C3      0.131600
      5 C8          1.4570    0.1000   -2.4670 cd        1 6C3     -0.240000
      6 C9         -0.0210    0.1490   -2.4790 c         1 6C3      0.706700
      7 C10         4.3370   -1.0420   -1.7450 ca        1 6C3     -0.101500
      8 C11         5.7310   -1.0410   -1.7030 ca        1 6C3     -0.132000
      9 C12         6.4170    0.0600   -1.1910 ca        1 6C3     -0.115000
     10 C13         5.7070    1.1630   -0.7170 ca        1 6C3     -0.132000
     11 C14         4.3140    1.1650   -0.7470 ca        1 6C3     -0.101500
     12 C15         3.6200    0.0600   -1.2610 ca        1 6C3     -0.094800
     13 C16         2.2640    1.0360   -4.7660 cc        1 6C3     -0.321600
     14 C19         3.3800    0.9000   -7.1110 c3        1 6C3     -0.132400
     15 C4          1.4060   -0.0460    2.3960 ca        1 6C3     -0.028600
     16 C5         -0.0000   -0.0080    2.3930 ca        1 6C3     -0.064000
     17 C6         -0.6880    0.0530    1.1980 ca        1 6C3     -0.184000
     18 N1         -0.6700    0.1390   -1.2380 n         1 6C3     -0.443100
     19 CL1         2.2350   -0.1250    3.8770 cl        1 6C3     -0.083400
     20 O1         -0.7280    0.2080   -3.5010 o         1 6C3     -0.613500
     21 C17         2.0860    0.1020   -3.7670 cd        1 6C3      0.324500
     22 O2          2.6610   -1.1200   -4.2150 os        1 6C3     -0.118100
     23 N2          3.1710   -0.9620   -5.4170 nd        1 6C3     -0.358300
     24 C18         2.9730    0.3100   -5.8230 cc        1 6C3      0.319600
     25 H3          3.2180   -0.0530    1.2100 ha        1 6C3      0.165000
     26 H10         3.7970   -1.9010   -2.1740 ha        1 6C3      0.147000
     27 H11         6.2870   -1.9100   -2.0840 ha        1 6C3      0.139000
     28 H12         7.5160    0.0600   -1.1630 ha        1 6C3      0.136000
     29 H13         6.2450    2.0360   -0.3180 ha        1 6C3      0.139000
     30 H14         3.7550    2.0360   -0.3710 ha        1 6C3      0.147000
     31 H16         1.9520    2.0740   -4.8000 ha        1 6C3      0.178000
     32 H191        3.9690    1.8330   -6.9240 hc        1 6C3      0.057700
     33 H192        2.4670    1.1660   -7.7020 hc        1 6C3      0.057700
     34 H193        4.0040    0.1970   -7.7150 hc        1 6C3      0.057700
     35 H5         -0.5520   -0.0300    3.3460 ha        1 6C3      0.154000
     36 H6         -1.7890    0.0790    1.2030 ha        1 6C3      0.146000
     37 HN1        -1.6670    0.1580   -1.2270 hn        1 6C3      0.338500
@<TRIPOS>BOND
     1    1    2 ar  
     2    1   17 ar  
     3    1   18 1   
     4    2    3 ar  
     5    2    4 1   
     6    3   15 ar  
     7    3   25 1   
     8    4    5 2   
     9    4   12 1   
    10    5    6 1   
    11    5   21 1   
    12    6   18 1   
    13    6   20 2   
    14    7    8 ar  
    15    7   12 ar  
    16    7   26 1   
    17    8    9 ar  
    18    8   27 1   
    19    9   10 ar  
    20    9   28 1   
    21   10   11 ar  
    22   10   29 1   
    23   11   12 ar  
    24   11   30 1   
    25   13   21 2   
    26   13   24 1   
    27   13   31 1   
    28   14   24 1   
    29   14   32 1   
    30   14   33 1   
    31   14   34 1   
    32   15   16 ar  
    33   15   19 1   
    34   16   17 ar  
    35   16   35 1   
    36   17   36 1   
    37   18   37 1   
    38   21   22 1   
    39   22   23 1   
    40   23   24 2   
@<TRIPOS>SUBSTRUCTURE
     1 6C3         1 TEMP              0 ****  ****    0 ROOT
