@<TRIPOS>MOLECULE
6C3
   37    40     1     0     0
SMALL
bcc


@<TRIPOS>ATOM
      1 C1         -0.1940   -3.4090    0.4480 ca        1 6C3      0.106600
      2 C2         -1.1630   -3.4730    1.4880 ca        1 6C3     -0.132800
      3 C3         -1.7220   -2.2780    1.9770 ca        1 6C3     -0.056000
      4 C7         -1.5610   -4.7700    2.0020 cc        1 6C3      0.131600
      5 C8         -1.0180   -5.9080    1.4770 cd        1 6C3     -0.240000
      6 C9          0.0010   -5.8450    0.4070 c         1 6C3      0.706700
      7 C10        -3.8170   -5.3540    2.8840 ca        1 6C3     -0.101500
      8 C11        -4.7430   -5.3830    3.9270 ca        1 6C3     -0.132000
      9 C12        -4.4020   -4.8830    5.1830 ca        1 6C3     -0.115000
     10 C13        -3.1300   -4.3520    5.3980 ca        1 6C3     -0.132000
     11 C14        -2.2030   -4.3120    4.3590 ca        1 6C3     -0.101500
     12 C15        -2.5420   -4.8130    3.0940 ca        1 6C3     -0.094800
     13 C16        -0.7430   -8.2250    2.6480 cc        1 6C3     -0.321600
     14 C19        -1.4710  -10.6250    3.3340 c3        1 6C3     -0.132400
     15 C4         -1.3290   -1.0520    1.4590 ca        1 6C3     -0.028600
     16 C5         -0.3670   -0.9840    0.4350 ca        1 6C3     -0.064000
     17 C6          0.1930   -2.1420   -0.0670 ca        1 6C3     -0.184000
     18 N1          0.3630   -4.5730   -0.0540 n         1 6C3     -0.443100
     19 CL1        -2.0100    0.3830    2.0610 cl        1 6C3     -0.083400
     20 O1          0.5640   -6.8290   -0.1060 o         1 6C3     -0.613500
     21 C17        -1.3700   -7.2370    1.9170 cd        1 6C3      0.325500
     22 O2         -2.6430   -7.7380    1.5230 os        1 6C3     -0.118100
     23 N2         -2.8050   -8.9610    1.9800 nd        1 6C3     -0.358300
     24 C18        -1.7040   -9.3310    2.6690 cc        1 6C3      0.319600
     25 H3         -2.4800   -2.3280    2.7780 ha        1 6C3      0.165000
     26 H10        -4.0790   -5.7740    1.8990 ha        1 6C3      0.147000
     27 H11        -5.7430   -5.8090    3.7540 ha        1 6C3      0.139000
     28 H12        -5.1330   -4.9100    6.0040 ha        1 6C3      0.136000
     29 H13        -2.8560   -3.9630    6.3900 ha        1 6C3      0.139000
     30 H14        -1.2000   -3.8910    4.5310 ha        1 6C3      0.147000
     31 H16         0.2400   -8.2220    3.1050 ha        1 6C3      0.178000
     32 H191       -1.1760  -10.4490    4.3990 hc        1 6C3      0.057700
     33 H192       -2.3810  -11.2740    3.3170 hc        1 6C3      0.057700
     34 H193       -0.6380  -11.1640    2.8160 hc        1 6C3      0.057700
     35 H5         -0.0630   -0.0050    0.0310 ha        1 6C3      0.154000
     36 H6          0.9430   -2.0810   -0.8710 ha        1 6C3      0.146000
     37 HN1         1.0390   -4.5110   -0.7860 hn        1 6C3      0.338500
@<TRIPOS>BOND
     1    1    2 ar  
     2    1   17 ar  
     3    1   18 1   
     4    2    3 ar  
     5    2    4 1   
     6    3   15 ar  
     7    3   25 1   
     8    4    5 2   
     9    4   12 1   
    10    5    6 1   
    11    5   21 1   
    12    6   18 1   
    13    6   20 2   
    14    7    8 ar  
    15    7   12 ar  
    16    7   26 1   
    17    8    9 ar  
    18    8   27 1   
    19    9   10 ar  
    20    9   28 1   
    21   10   11 ar  
    22   10   29 1   
    23   11   12 ar  
    24   11   30 1   
    25   13   21 2   
    26   13   24 1   
    27   13   31 1   
    28   14   24 1   
    29   14   32 1   
    30   14   33 1   
    31   14   34 1   
    32   15   16 ar  
    33   15   19 1   
    34   16   17 ar  
    35   16   35 1   
    36   17   36 1   
    37   18   37 1   
    38   21   22 1   
    39   22   23 1   
    40   23   24 2   
@<TRIPOS>SUBSTRUCTURE
     1 6C3         1 TEMP              0 ****  ****    0 ROOT
