@<TRIPOS>MOLECULE
6C3
   37    40     1     0     0
SMALL
bcc


@<TRIPOS>ATOM
      1 C1          0.0120    0.0910   -0.0430 ca        1 6C3      0.106600
      2 C2          1.4340    0.0560   -0.0300 ca        1 6C3     -0.132800
      3 C3          2.1070   -0.0090    1.2040 ca        1 6C3     -0.056000
      4 C7          2.1510    0.0690   -1.2920 cc        1 6C3      0.131600
      5 C8          1.4580    0.1000   -2.4700 cd        1 6C3     -0.240000
      6 C9         -0.0200    0.1530   -2.4860 c         1 6C3      0.706700
      7 C10         4.3340   -1.0460   -1.7370 ca        1 6C3     -0.101500
      8 C11         5.7280   -1.0470   -1.6920 ca        1 6C3     -0.132000
      9 C12         6.4150    0.0530   -1.1810 ca        1 6C3     -0.115000
     10 C13         5.7060    1.1600   -0.7120 ca        1 6C3     -0.132000
     11 C14         4.3130    1.1640   -0.7450 ca        1 6C3     -0.101500
     12 C15         3.6190    0.0590   -1.2580 ca        1 6C3     -0.094800
     13 C16         2.2730    1.0280   -4.7690 cc        1 6C3     -0.321600
     14 C19         3.3950    0.8820   -7.1100 c3        1 6C3     -0.132400
     15 C4          1.3950   -0.0300    2.3940 ca        1 6C3     -0.028600
     16 C5         -0.0110    0.0100    2.3870 ca        1 6C3     -0.064000
     17 C6         -0.6960    0.0690    1.1900 ca        1 6C3     -0.184000
     18 N1         -0.6720    0.1480   -1.2460 ns        1 6C3     -0.443100
     19 Cl1         2.2200   -0.1070    3.8770 cl        1 6C3     -0.083400
     20 O1         -0.7240    0.2100   -3.5090 o         1 6C3     -0.613500
     21 C17         2.0900    0.0970   -3.7680 cd        1 6C3      0.325500
     22 O2          2.6630   -1.1280   -4.2110 os        1 6C3     -0.118100
     23 N2          3.1770   -0.9740   -5.4120 nd        1 6C3     -0.358300
     24 C18         2.9830    0.2970   -5.8220 cc        1 6C3      0.319600
     25 H3          3.2100   -0.0460    1.2120 ha        1 6C3      0.165000
     26 H10         3.7930   -1.9050   -2.1650 ha        1 6C3      0.147000
     27 H11         6.2830   -1.9190   -2.0700 ha        1 6C3      0.139000
     28 H12         7.5140    0.0510   -1.1510 ha        1 6C3      0.136000
     29 H13         6.2460    2.0320   -0.3150 ha        1 6C3      0.139000
     30 H14         3.7560    2.0370   -0.3740 ha        1 6C3      0.147000
     31 H16         1.9650    2.0670   -4.8070 ha        1 6C3      0.178000
     32 H191        3.9920    1.8100   -6.9250 hc        1 6C3      0.057700
     33 H192        2.4850    1.1550   -7.7020 hc        1 6C3      0.057700
     34 H193        4.0130    0.1730   -7.7140 hc        1 6C3      0.057700
     35 H5         -0.5660   -0.0070    3.3390 ha        1 6C3      0.154000
     36 H6         -1.7960    0.0970    1.1920 ha        1 6C3      0.146000
     37 HN1        -1.6690    0.1690   -1.2370 hn        1 6C3      0.338500
@<TRIPOS>BOND
     1    1    2 ar  
     2    1   17 ar  
     3    1   18 1   
     4    2    3 ar  
     5    2    4 1   
     6    3   15 ar  
     7    3   25 1   
     8    4    5 2   
     9    4   12 1   
    10    5    6 1   
    11    5   21 1   
    12    6   18 1   
    13    6   20 2   
    14    7    8 ar  
    15    7   12 ar  
    16    7   26 1   
    17    8    9 ar  
    18    8   27 1   
    19    9   10 ar  
    20    9   28 1   
    21   10   11 ar  
    22   10   29 1   
    23   11   12 ar  
    24   11   30 1   
    25   13   21 2   
    26   13   24 1   
    27   13   31 1   
    28   14   24 1   
    29   14   32 1   
    30   14   33 1   
    31   14   34 1   
    32   15   16 ar  
    33   15   19 1   
    34   16   17 ar  
    35   16   35 1   
    36   17   36 1   
    37   18   37 1   
    38   21   22 1   
    39   22   23 1   
    40   23   24 2   
@<TRIPOS>SUBSTRUCTURE
     1 6C3         1 TEMP              0 ****  ****    0 ROOT
