@<TRIPOS>MOLECULE
6C6
   48    51     1     0     0
SMALL
bcc


@<TRIPOS>ATOM
      1 C65        -6.3880    0.3530   -1.1880 c3        1 6C6     -0.098900
      2 C64        -7.6910    1.0010   -1.6270 c3        1 6C6     -0.077400
      3 C63        -7.8820    2.2630   -0.7960 c3        1 6C6     -0.077400
      4 C62        -6.6870    2.3910    0.1360 c3        1 6C6     -0.098900
      5 C61        -6.0100    1.0010    0.1640 c3        1 6C6      0.208500
      6 N6         -4.5980    1.0830    0.4570 nh        1 6C6     -0.823900
      7 C6         -3.8610   -0.0850    0.7040 ca        1 6C6      0.701200
      8 N1         -4.4510   -1.2330    1.1560 nb        1 6C6     -0.796000
      9 C2         -3.6290   -2.2760    1.4740 ca        1 6C6      0.638900
     10 N3         -2.2870   -2.3850    1.3990 nb        1 6C6     -0.702000
     11 C4         -1.6860   -1.2510    0.9220 ca        1 6C6      0.432800
     12 C5         -2.4390   -0.0460    0.5520 ca        1 6C6     -0.202200
     13 N7         -1.5560    0.9420    0.0980 nc        1 6C6     -0.591100
     14 C8         -0.3340    0.3820    0.1770 cd        1 6C6      0.459700
     15 N9         -0.3470   -0.9460    0.6570 na        1 6C6     -0.254000
     16 C1'         0.8060   -1.8080    0.9040 c3        1 6C6      0.217800
     17 O4'         1.8570   -1.0430    1.4640 os        1 6C6     -0.432600
     18 C2'         1.3500   -2.5070   -0.3890 c3        1 6C6      0.102100
     19 O2'         1.5310   -3.8760   -0.1010 oh        1 6C6     -0.614800
     20 C3'         2.6430   -1.7300   -0.7230 c3        1 6C6      0.128100
     21 O3'         3.6750   -2.6520   -0.9810 oh        1 6C6     -0.682800
     22 C4'         2.9570   -0.8870    0.5290 c3        1 6C6      0.049100
     23 C5'         3.1900    0.6130    0.2250 c3        1 6C6      0.227400
     24 O5'         4.5230    0.8690    0.0670 os        1 6C6     -0.553200
     25 PA          5.0070    1.0450   -1.6030 p5        1 6C6      1.333900
     26 OA2         4.6590   -0.3590   -2.0600 o         1 6C6     -0.929167
     27 OA3         4.0410    2.0910   -2.0770 o         1 6C6     -0.929167
     28 OA1         6.4600    1.3910   -1.5180 o         1 6C6     -0.929167
     29 H1         -6.4980   -0.7520   -1.0670 hc        1 6C6      0.050950
     30 H2         -5.5900    0.5310   -1.9530 hc        1 6C6      0.050950
     31 H3         -7.6600    1.2460   -2.7180 hc        1 6C6      0.032700
     32 H4         -8.5490    0.3000   -1.4690 hc        1 6C6      0.032700
     33 H5         -7.9640    3.1640   -1.4540 hc        1 6C6      0.032700
     34 H6         -8.8310    2.1980   -0.2050 hc        1 6C6      0.032700
     35 H7         -5.9870    3.1780   -0.2430 hc        1 6C6      0.050950
     36 H8         -7.0000    2.6870    1.1660 hc        1 6C6      0.050950
     37 H9         -6.4940    0.3970    0.9870 h1        1 6C6      0.076700
     38 H10        -4.1010    1.7440   -0.1070 hn        1 6C6      0.425800
     39 H11        -4.1570   -3.1760    1.8490 h5        1 6C6      0.029100
     40 H12         0.6250    0.8710   -0.0890 h5        1 6C6      0.126800
     41 H13         0.4980   -2.5700    1.6780 h2        1 6C6      0.091700
     42 H14         0.6140   -2.4700   -1.2340 h1        1 6C6      0.067700
     43 H15         2.4720   -4.0190    0.0720 ho        1 6C6      0.430000
     44 H16         2.4890   -1.0710   -1.6230 h1        1 6C6      0.117700
     45 H17         4.3810   -2.1290   -1.4350 ho        1 6C6      0.515000
     46 H18         3.8540   -1.2990    1.0640 h1        1 6C6      0.080700
     47 H19         2.6110    0.9110   -0.6970 h1        1 6C6     -0.002300
     48 H20         2.7910    1.1900    1.1120 h1        1 6C6     -0.002300
@<TRIPOS>BOND
     1    1    2 1   
     2    1    5 1   
     3    1   29 1   
     4    1   30 1   
     5    2    3 1   
     6    2   31 1   
     7    2   32 1   
     8    3    4 1   
     9    3   33 1   
    10    3   34 1   
    11    4    5 1   
    12    4   35 1   
    13    4   36 1   
    14    5    6 1   
    15    5   37 1   
    16    6    7 1   
    17    6   38 1   
    18    7    8 ar  
    19    7   12 ar  
    20    8    9 ar  
    21    9   10 ar  
    22    9   39 1   
    23   10   11 ar  
    24   11   12 ar  
    25   11   15 1   
    26   12   13 1   
    27   13   14 2   
    28   14   15 1   
    29   14   40 1   
    30   15   16 1   
    31   16   17 1   
    32   16   18 1   
    33   16   41 1   
    34   17   22 1   
    35   18   19 1   
    36   18   20 1   
    37   18   42 1   
    38   19   43 1   
    39   20   21 1   
    40   20   22 1   
    41   20   44 1   
    42   21   45 1   
    43   22   23 1   
    44   22   46 1   
    45   23   24 1   
    46   23   47 1   
    47   23   48 1   
    48   24   25 1   
    49   25   26 1   
    50   25   27 1   
    51   25   28 1   
@<TRIPOS>SUBSTRUCTURE
     1 6C6         1 TEMP              0 ****  ****    0 ROOT
