@<TRIPOS>MOLECULE
6C6
   48    45     1     0     0
SMALL
bcc


@<TRIPOS>ATOM
      1 C65         2.2160    4.5010    1.9070 c3        1 6C6     -0.178500
      2 C64         2.9950    4.3650    3.0670 c3        1 6C6     -0.156500
      3 C63         2.1980    3.3450    3.9860 c3        1 6C6     -0.156500
      4 C62         0.7490    3.1910    3.3100 c3        1 6C6     -0.178500
      5 C61         0.6880    4.2050    2.3500 c3        1 6C6     -0.008000
      6 N6         -0.1000    3.7690    1.1980 n3        1 6C6     -0.227000
      7 C6          0.0820    2.4760    0.6690 c2        1 6C6      0.127000
      8 N1          0.2840    2.9320   -0.5790 n1        1 6C6     -0.262000
      9 C2          0.2770    2.0650   -1.6300 c1        1 6C6     -0.040000
     10 N3          0.0640    0.7300   -1.4140 n1        1 6C6     -0.160000
     11 C4         -0.1380    0.2750   -0.1540 c1        1 6C6      0.025000
     12 C5         -0.1320    1.1350    0.8850 c1        1 6C6     -0.144000
     13 N7         -0.3600    0.4150    2.0300 n1        1 6C6     -0.161500
     14 C8         -0.5070   -0.9100    1.6760 c1        1 6C6      0.008000
     15 N9         -0.3730   -1.0040    0.3480 n1        1 6C6     -0.161500
     16 C1'         0.0260   -2.2110   -0.0840 c2        1 6C6      0.127000
     17 O4'         0.3480   -2.1700   -1.6480 os        1 6C6     -0.289000
     18 C2'        -1.0930   -3.2270    0.0820 c3        1 6C6     -0.009000
     19 O2'        -0.5600   -4.4860    0.6970 oh        1 6C6     -0.342000
     20 C3'        -1.5310   -3.4710   -1.1600 c3        1 6C6      0.017000
     21 O3'        -1.9290   -4.7840   -1.2710 oh        1 6C6     -0.410000
     22 C4'        -0.2740   -3.1890   -2.1420 c3        1 6C6     -0.062000
     23 C5'        -0.7570   -2.8700   -3.5310 c3        1 6C6      0.077000
     24 O5'        -1.4860   -3.9310   -4.0230 os        1 6C6     -0.714000
     25 PA         -2.1630   -3.7920   -5.4710 p5        1 6C6      1.567500
     26 OA2        -3.6350   -3.5250   -5.3120 o         1 6C6     -0.929167
     27 OA3        -1.9540   -5.1570   -6.2930 o         1 6C6     -0.929167
     28 OA1        -1.5100   -2.6290   -6.2340 o         1 6C6     -0.929167
     29 H1          2.5160    3.8220    1.2020 hc        1 6C6      0.096500
     30 H2          2.2950    5.4100    1.5540 hc        1 6C6      0.096500
     31 H3          3.0850    5.2450    3.5320 hc        1 6C6      0.074000
     32 H4          3.8340    4.0260    2.8550 hc        1 6C6      0.074000
     33 H5          2.6170    2.5450    4.0030 hc        1 6C6      0.074000
     34 H6          2.1160    3.6970    4.8800 hc        1 6C6      0.074000
     35 H7          0.6580    2.2720    2.8690 hc        1 6C6      0.096500
     36 H8          0.0040    3.3270    4.0260 hc        1 6C6      0.096500
     37 H9          0.3010    4.9900    2.7260 h1        1 6C6      0.093000
     38 H10        -0.8200    4.3070    0.8890 hn        1 6C6      0.166000
     39 H11         0.4340    2.4000   -2.5530 ha        1 6C6      0.168000
     40 H12        -0.7250   -1.6760    2.3080 DU        1 6C6      0.256000
     41 H13         0.8260   -2.5040    0.4170 h4        1 6C6      0.129000
     42 H14        -1.7860   -2.8700    0.6090 h1        1 6C6      0.106000
     43 H15        -0.8140   -4.5340    1.5540 ho        1 6C6      0.230000
     44 H16        -2.2340   -2.9090   -1.3680 h1        1 6C6      0.158000
     45 H17        -2.7290   -4.8630   -0.9910 ho        1 6C6      0.315000
     46 H18         0.3010   -3.9470   -2.1600 h1        1 6C6      0.121000
     47 H19         0.0090   -2.7060   -4.1110 h1        1 6C6      0.036500
     48 H20        -1.3140   -2.0800   -3.5020 h1        1 6C6      0.036500
@<TRIPOS>BOND
     1    1    2 1   
     2    1    5 1   
     3    1   29 1   
     4    1   30 1   
     5    2    3 1   
     6    2   31 1   
     7    2   32 1   
     8    3    4 1   
     9    3   33 1   
    10    3   34 1   
    11    4    5 1   
    12    4   35 1   
    13    4   36 1   
    14    5    6 1   
    15    5   37 1   
    16    6    7 1   
    17    6   38 1   
    18    7    8 1   
    19    7   12 1   
    20    9   10 1   
    21    9   39 1   
    22   11   12 1   
    23   13   14 1   
    24   14   15 1   
    25   16   17 1   
    26   16   18 1   
    27   16   41 1   
    28   17   22 1   
    29   18   19 1   
    30   18   20 1   
    31   18   42 1   
    32   19   43 1   
    33   20   21 1   
    34   20   22 1   
    35   20   44 1   
    36   21   45 1   
    37   22   23 1   
    38   22   46 1   
    39   23   24 1   
    40   23   47 1   
    41   23   48 1   
    42   24   25 1   
    43   25   26 1   
    44   25   27 1   
    45   25   28 1   
@<TRIPOS>SUBSTRUCTURE
     1 6C6         1 TEMP              0 ****  ****    0 ROOT
