@<TRIPOS>MOLECULE
6C6
   48    51     1     0     0
SMALL
bcc


@<TRIPOS>ATOM
      1 C65        -0.4470   -0.4990    0.1380 c3        1 6C6     -0.099900
      2 C64         1.0440   -0.7330   -0.0390 c3        1 6C6     -0.076900
      3 C63         1.6110   -1.1390    1.3160 c3        1 6C6     -0.076900
      4 C62         0.4610   -1.1700    2.3090 c3        1 6C6     -0.099900
      5 C61        -0.6960   -0.3750    1.6590 c3        1 6C6      0.208500
      6 N6         -1.9920   -0.8040    2.1310 nu        1 6C6     -0.819900
      7 C6         -3.1400   -0.0750    1.7720 ca        1 6C6      0.681200
      8 N1         -3.0890    1.2660    1.4980 nb        1 6C6     -0.795000
      9 C2         -4.2740    1.9010    1.2770 ca        1 6C6      0.624900
     10 N3         -5.5350    1.4190    1.2620 nb        1 6C6     -0.712000
     11 C4         -5.5960    0.0750    1.5100 ca        1 6C6      0.422800
     12 C5         -4.4040   -0.7390    1.7700 ca        1 6C6     -0.187200
     13 N7         -4.7790   -2.0750    1.9600 nc        1 6C6     -0.607100
     14 C8         -6.1190   -2.1010    1.8300 cd        1 6C6      0.470700
     15 N9         -6.6720   -0.8230    1.5430 na        1 6C6     -0.272000
     16 C1'        -8.0650   -0.4450    1.3560 c3        1 6C6      0.223800
     17 O4'        -8.8170   -0.5970    2.5560 os        1 6C6     -0.435600
     18 C2'        -8.7820   -1.2990    0.2560 c3        1 6C6      0.108100
     19 O2'        -9.6120   -0.4390   -0.4990 oh        1 6C6     -0.620800
     20 C3'        -9.5220   -2.3660    1.0770 c3        1 6C6      0.076100
     21 O3'       -10.7930   -2.6230    0.5300 oh        1 6C6     -0.667800
     22 C4'        -9.6290   -1.7950    2.5060 c3        1 6C6      0.062100
     23 C5'        -9.1400   -2.7690    3.6070 c3        1 6C6      0.224400
     24 O5'        -9.7920   -3.9690    3.5870 os        1 6C6     -0.569200
     25 PA         -9.0890   -5.2680    2.6760 p5        1 6C6      1.345900
     26 OA2       -10.0330   -5.2070    1.4980 o         1 6C6     -0.924167
     27 OA3        -7.7450   -4.6650    2.3120 o         1 6C6     -0.924167
     28 OA1        -9.1100   -6.4460    3.5900 o         1 6C6     -0.924167
     29 H1         -1.0260   -1.3550   -0.2920 hc        1 6C6      0.050700
     30 H2         -0.7820    0.4300   -0.3830 hc        1 6C6      0.050700
     31 H3          1.2310   -1.5290   -0.8010 hc        1 6C6      0.029950
     32 H4          1.5460    0.1990   -0.4040 hc        1 6C6      0.029950
     33 H5          2.3910   -0.4060    1.6450 hc        1 6C6      0.029950
     34 H6          2.1040   -2.1420    1.2560 hc        1 6C6      0.029950
     35 H7          0.1600   -2.2280    2.5180 hc        1 6C6      0.050700
     36 H8          0.7470   -0.7040    3.2830 hc        1 6C6      0.050700
     37 H9         -0.5720    0.7110    1.9440 h1        1 6C6      0.074700
     38 H10        -2.1350   -1.7940    2.0710 hn        1 6C6      0.423800
     39 H11        -4.1810    2.9870    1.0740 h5        1 6C6      0.022100
     40 H12        -6.7580   -3.0430    1.9390 h5        1 6C6      0.215800
     41 H13        -8.1010    0.6550    1.1080 h2        1 6C6      0.092700
     42 H14        -8.0640   -1.7540   -0.4740 h1        1 6C6      0.075700
     43 H15       -10.5210   -0.5890   -0.2080 ho        1 6C6      0.423000
     44 H16        -8.9120   -3.3320    1.1120 h1        1 6C6      0.165700
     45 H17       -10.9500   -3.5810    0.7000 ho        1 6C6      0.497000
     46 H18       -10.6760   -1.4540    2.7180 h1        1 6C6      0.048700
     47 H19        -9.3490   -2.2560    4.5930 h1        1 6C6      0.000200
     48 H20        -8.0270   -2.9000    3.5030 h1        1 6C6      0.000200
@<TRIPOS>BOND
     1    1    2 1   
     2    1    5 1   
     3    1   29 1   
     4    1   30 1   
     5    2    3 1   
     6    2   31 1   
     7    2   32 1   
     8    3    4 1   
     9    3   33 1   
    10    3   34 1   
    11    4    5 1   
    12    4   35 1   
    13    4   36 1   
    14    5    6 1   
    15    5   37 1   
    16    6    7 1   
    17    6   38 1   
    18    7    8 ar  
    19    7   12 ar  
    20    8    9 ar  
    21    9   10 ar  
    22    9   39 1   
    23   10   11 ar  
    24   11   12 ar  
    25   11   15 1   
    26   12   13 1   
    27   13   14 2   
    28   14   15 1   
    29   14   40 1   
    30   15   16 1   
    31   16   17 1   
    32   16   18 1   
    33   16   41 1   
    34   17   22 1   
    35   18   19 1   
    36   18   20 1   
    37   18   42 1   
    38   19   43 1   
    39   20   21 1   
    40   20   22 1   
    41   20   44 1   
    42   21   45 1   
    43   22   23 1   
    44   22   46 1   
    45   23   24 1   
    46   23   47 1   
    47   23   48 1   
    48   24   25 1   
    49   25   26 1   
    50   25   27 1   
    51   25   28 1   
@<TRIPOS>SUBSTRUCTURE
     1 6C6         1 TEMP              0 ****  ****    0 ROOT
