@<TRIPOS>MOLECULE
6C6
   48    51     1     0     0
SMALL
bcc


@<TRIPOS>ATOM
      1 C65        -0.3450   -0.5580    0.0770 c3        1 6C6     -0.098900
      2 C64         1.1520   -0.7690   -0.0830 c3        1 6C6     -0.077400
      3 C63         1.7530   -0.8910    1.3120 c3        1 6C6     -0.077400
      4 C62         0.6190   -0.7720    2.3180 c3        1 6C6     -0.098900
      5 C61        -0.5760   -0.1580    1.5530 c3        1 6C6      0.208500
      6 N6         -1.8480   -0.5370    2.1220 nh        1 6C6     -0.822900
      7 C6         -3.0300    0.0720    1.6740 ca        1 6C6      0.701200
      8 N1         -3.0340    1.3110    1.0950 nb        1 6C6     -0.796000
      9 C2         -4.2480    1.8600    0.8000 ca        1 6C6      0.638900
     10 N3         -5.4930    1.3690    0.9660 nb        1 6C6     -0.702000
     11 C4         -5.5010    0.1160    1.5190 ca        1 6C6      0.432800
     12 C5         -4.2760   -0.5930    1.9020 ca        1 6C6     -0.202200
     13 N7         -4.6020   -1.8470    2.4350 nc        1 6C6     -0.591100
     14 C8         -5.9460   -1.9100    2.3810 cd        1 6C6      0.459700
     15 N9         -6.5480   -0.7590    1.8270 na        1 6C6     -0.254000
     16 C1'        -7.9760   -0.4950    1.6750 c3        1 6C6      0.217800
     17 O4'        -8.6690   -0.9700    2.8140 os        1 6C6     -0.432600
     18 C2'        -8.6040   -1.1710    0.4080 c3        1 6C6      0.102100
     19 O2'        -9.3740   -0.2020   -0.2680 oh        1 6C6     -0.614800
     20 C3'        -9.4020   -2.3660    0.9750 c3        1 6C6      0.128100
     21 O3'       -10.6860   -2.3700    0.3970 oh        1 6C6     -0.682800
     22 C4'        -9.4820   -2.1300    2.4950 c3        1 6C6      0.049100
     23 C5'        -9.0280   -3.3470    3.3370 c3        1 6C6      0.227400
     24 O5'       -10.1010   -4.1160    3.6870 os        1 6C6     -0.553200
     25 PA        -10.2640   -5.5680    2.7270 p5        1 6C6      1.333900
     26 OA2       -10.4830   -4.8950    1.3840 o         1 6C6     -0.929167
     27 OA3        -8.8990   -6.1730    2.8830 o         1 6C6     -0.929167
     28 OA1       -11.4360   -6.2690    3.3350 o         1 6C6     -0.929167
     29 H1         -0.8960   -1.5000   -0.1720 hc        1 6C6      0.050950
     30 H2         -0.7220    0.2440   -0.6020 hc        1 6C6      0.050950
     31 H3          1.6120    0.0940   -0.6280 hc        1 6C6      0.032700
     32 H4          1.3570   -1.6880   -0.6850 hc        1 6C6      0.032700
     33 H5          2.2820   -1.8690    1.4320 hc        1 6C6      0.032700
     34 H6          2.5090   -0.0830    1.4800 hc        1 6C6      0.032700
     35 H7          0.3630   -1.7810    2.7300 hc        1 6C6      0.050950
     36 H8          0.9010   -0.1190    3.1790 hc        1 6C6      0.050950
     37 H9         -0.4920    0.9670    1.6250 h1        1 6C6      0.076700
     38 H10        -1.9500   -1.5210    2.2750 hn        1 6C6      0.425800
     39 H11        -4.1940    2.8720    0.3470 h5        1 6C6      0.029100
     40 H12        -6.5730   -2.7560    2.7300 h5        1 6C6      0.126800
     41 H13        -8.1100    0.6260    1.6450 h2        1 6C6      0.091700
     42 H14        -7.8250   -1.5030   -0.3260 h1        1 6C6      0.067700
     43 H15       -10.3020   -0.3480   -0.0360 ho        1 6C6      0.430000
     44 H16        -8.8800   -3.3370    0.7450 h1        1 6C6      0.117700
     45 H17       -11.0480   -3.2730    0.5800 ho        1 6C6      0.515000
     46 H18       -10.5270   -1.8440    2.7930 h1        1 6C6      0.080700
     47 H19        -8.2710   -3.9520    2.7580 h1        1 6C6     -0.002300
     48 H20        -8.5340   -2.9330    4.2660 h1        1 6C6     -0.002300
@<TRIPOS>BOND
     1    1    2 1   
     2    1    5 1   
     3    1   29 1   
     4    1   30 1   
     5    2    3 1   
     6    2   31 1   
     7    2   32 1   
     8    3    4 1   
     9    3   33 1   
    10    3   34 1   
    11    4    5 1   
    12    4   35 1   
    13    4   36 1   
    14    5    6 1   
    15    5   37 1   
    16    6    7 1   
    17    6   38 1   
    18    7    8 ar  
    19    7   12 ar  
    20    8    9 ar  
    21    9   10 ar  
    22    9   39 1   
    23   10   11 ar  
    24   11   12 ar  
    25   11   15 1   
    26   12   13 1   
    27   13   14 2   
    28   14   15 1   
    29   14   40 1   
    30   15   16 1   
    31   16   17 1   
    32   16   18 1   
    33   16   41 1   
    34   17   22 1   
    35   18   19 1   
    36   18   20 1   
    37   18   42 1   
    38   19   43 1   
    39   20   21 1   
    40   20   22 1   
    41   20   44 1   
    42   21   45 1   
    43   22   23 1   
    44   22   46 1   
    45   23   24 1   
    46   23   47 1   
    47   23   48 1   
    48   24   25 1   
    49   25   26 1   
    50   25   27 1   
    51   25   28 1   
@<TRIPOS>SUBSTRUCTURE
     1 6C6         1 TEMP              0 ****  ****    0 ROOT
