@<TRIPOS>MOLECULE
6CA
   68    60     1     0     0
SMALL
bcc


@<TRIPOS>ATOM
      1 O35         6.8490   -9.7820   -0.0190 o         1 6CA     -0.580000
      2 C33         5.6660  -10.1470   -0.0280 c1        1 6CA      0.361000
      3 O34         5.1650  -10.7670    1.0100 os        1 6CA     -0.548000
      4 C32         4.8000   -9.9120   -1.2750 c2        1 6CA     -0.136000
      5 C36         4.4100  -10.9820   -2.0500 c2        1 6CA     -0.090000
      6 C37         3.7010  -10.7690   -3.2070 c1        1 6CA     -0.181000
      7 C38         3.3770   -9.4800   -3.5950 c1        1 6CA     -0.144500
      8 C39         3.7650   -8.4070   -2.8220 c1        1 6CA     -0.144500
      9 C31         4.4750   -8.6190   -1.6640 c1        1 6CA      0.071000
     10 N30         5.0230   -7.4750   -0.9280 n3        1 6CA     -0.257000
     11 C27         4.1440   -6.5110   -0.3580 c2        1 6CA      0.113000
     12 C28         4.4330   -5.9560    0.8920 c2        1 6CA     -0.189000
     13 C29         3.6180   -4.9720    1.4150 c1        1 6CA     -0.114000
     14 C26         3.0450   -6.0760   -1.0730 c1        1 6CA     -0.203000
     15 C25         2.2270   -5.0920   -0.5550 c1        1 6CA     -0.100000
     16 C24         2.5090   -4.5330    0.6940 c1        1 6CA     -0.034000
     17 O23         1.5800   -3.6000    1.2910 os        1 6CA     -0.231000
     18 C22         1.9310   -2.2170    1.0930 c3        1 6CA     -0.018000
     19 C21         0.6850   -1.3140    1.4040 c3        1 6CA     -0.164000
     20 C20         1.1020    0.0990    1.5130 c3        1 6CA     -0.156000
     21 C19        -0.1710    1.0010    1.7110 c3        1 6CA     -0.156000
     22 C18         0.2470    2.5010    1.6560 c3        1 6CA     -0.164000
     23 C17        -1.0120    3.4060    1.6680 c3        1 6CA     -0.019000
     24 O16        -0.6170    4.7420    1.5660 os        1 6CA     -0.222000
     25 C11        -1.6530    5.6220    1.1300 c2        1 6CA      0.060000
     26 C12        -2.5480    6.1570    2.0580 c2        1 6CA     -0.161000
     27 C13        -3.5800    7.0180    1.6280 c1        1 6CA     -0.102000
     28 C10        -1.7760    5.9350   -0.2100 c1        1 6CA     -0.204000
     29 C9         -2.8080    6.7950   -0.6400 c1        1 6CA     -0.121500
     30 C8         -3.7050    7.3310    0.2930 c1        1 6CA     -0.055000
     31 C5         -4.7710    8.1790   -0.1440 c1        1 6CA     -0.055000
     32 C6         -6.0180    7.6250   -0.4810 c1        1 6CA     -0.144500
     33 C7         -7.0720    8.4590   -0.8650 c1        1 6CA     -0.144500
     34 C4         -4.5880    9.5500   -0.1930 c1        1 6CA     -0.121500
     35 C3         -5.6420   10.3820   -0.5770 c1        1 6CA     -0.113000
     36 C2         -6.8870    9.8300   -0.9140 c1        1 6CA     -0.093000
     37 C1         -8.0120   10.7430   -1.4580 c2        1 6CA      0.355000
     38 O14        -8.1350   10.9240   -2.7130 o         1 6CA     -0.566500
     39 O15        -8.8130   11.3050   -0.6570 o         1 6CA     -0.566500
     40 H36         4.6350  -11.8840   -1.7780 ha        1 6CA      0.153000
     41 H37         3.4270  -11.5260   -3.7530 ha        1 6CA      0.107000
     42 H38         2.8830   -9.3340   -4.3990 ha        1 6CA      0.122000
     43 H39         3.6590   -7.5310   -3.1530 ha        1 6CA      0.122000
     44 H30         5.8940   -7.3350   -0.9180 hn        1 6CA      0.280000
     45 H28         5.1750   -6.3100    1.4230 ha        1 6CA      0.139000
     46 H29         3.8260   -4.5710    2.3180 ha        1 6CA      0.126000
     47 H26         2.7910   -6.5340   -1.8960 ha        1 6CA      0.145000
     48 H25         1.4280   -4.7780   -1.0790 ha        1 6CA      0.129000
     49 H221        2.6510   -1.9840    1.6820 h1        1 6CA      0.068500
     50 H222        2.2120   -2.0790    0.1560 h1        1 6CA      0.068500
     51 H211       -0.0020   -1.4080    0.6460 hc        1 6CA      0.091000
     52 H212        0.2770   -1.6000    2.2540 hc        1 6CA      0.091000
     53 H201        1.5680    0.3670    0.6950 hc        1 6CA      0.080000
     54 H202        1.6980    0.2040    2.2750 hc        1 6CA      0.080000
     55 H191       -0.5820    0.8040    2.5860 hc        1 6CA      0.080000
     56 H192       -0.8050    0.8180    1.0110 hc        1 6CA      0.080000
     57 H181        0.8070    2.7110    2.4370 hc        1 6CA      0.093000
     58 H182        0.7690    2.6700    0.8140 hc        1 6CA      0.093000
     59 H171       -1.5860    3.1780    0.9120 h1        1 6CA      0.075500
     60 H172       -1.5350    3.2660    2.5570 h1        1 6CA      0.075500
     61 H12        -2.4620    5.9410    2.9840 ha        1 6CA      0.137000
     62 H13        -4.2300    7.3950    2.2960 ha        1 6CA      0.138000
     63 H10        -1.1430    5.5570   -0.8660 ha        1 6CA      0.128000
     64 H9         -2.9590    6.9450   -1.6280 ha        1 6CA      0.123000
     65 H6         -6.1510    6.6850   -0.4300 ha        1 6CA      0.122000
     66 H7         -7.9720    8.0590   -1.1200 ha        1 6CA      0.122000
     67 H4         -3.7070    9.9330   -0.0060 ha        1 6CA      0.123000
     68 H3         -5.5120   11.3460   -0.6160 ha        1 6CA      0.151000
@<TRIPOS>BOND
     1    1    2 1   
     2    2    4 1   
     3    4    5 1   
     4    4    9 1   
     5    5    6 1   
     6    5   40 1   
     7    6   41 1   
     8    7    8 1   
     9    7   42 1   
    10    8   43 1   
    11    9   10 1   
    12   10   11 1   
    13   10   44 1   
    14   11   12 1   
    15   11   14 1   
    16   12   13 1   
    17   12   45 1   
    18   13   46 1   
    19   14   47 1   
    20   15   16 1   
    21   15   48 1   
    22   16   17 1   
    23   17   18 1   
    24   18   19 1   
    25   18   49 1   
    26   18   50 1   
    27   19   20 1   
    28   19   51 1   
    29   19   52 1   
    30   20   21 1   
    31   20   53 1   
    32   20   54 1   
    33   21   22 1   
    34   21   55 1   
    35   21   56 1   
    36   22   23 1   
    37   22   57 1   
    38   22   58 1   
    39   23   24 1   
    40   23   59 1   
    41   23   60 1   
    42   24   25 1   
    43   25   26 1   
    44   25   28 1   
    45   26   27 1   
    46   26   61 1   
    47   27   62 1   
    48   28   63 1   
    49   29   30 1   
    50   29   64 1   
    51   31   34 1   
    52   32   33 1   
    53   32   65 1   
    54   33   66 1   
    55   34   67 1   
    56   35   36 1   
    57   35   68 1   
    58   36   37 1   
    59   37   38 1   
    60   37   39 1   
@<TRIPOS>SUBSTRUCTURE
     1 6CA         1 TEMP              0 ****  ****    0 ROOT
