@<TRIPOS>MOLECULE
6CA
   68    71     1     0     0
SMALL
bcc


@<TRIPOS>ATOM
      1 O35        19.7490   42.7020   36.7500 o         1 6CA     -0.830300
      2 C33        20.6360   43.0080   37.5950 c         1 6CA      0.911200
      3 O34        20.8340   44.1970   37.9880 o         1 6CA     -0.830300
      4 C32        21.5120   41.8830   38.1300 ca        1 6CA     -0.158600
      5 C36        21.6260   40.7380   37.3380 ca        1 6CA     -0.089000
      6 C37        22.4090   39.6550   37.7260 ca        1 6CA     -0.183000
      7 C38        23.1020   39.7080   38.9330 ca        1 6CA     -0.137000
      8 C39        23.0080   40.8320   39.7460 ca        1 6CA     -0.185000
      9 C31        22.2090   41.9360   39.3660 ca        1 6CA      0.152600
     10 N30        22.1970   43.1040   40.1560 nh        1 6CA     -0.624000
     11 C27        21.9080   43.0890   41.5200 ca        1 6CA      0.170600
     12 C28        21.9070   44.3270   42.2240 ca        1 6CA     -0.175500
     13 C29        21.7120   44.3730   43.5930 ca        1 6CA     -0.136500
     14 C26        21.6630   41.9120   42.2660 ca        1 6CA     -0.175500
     15 C25        21.4800   41.9570   43.6440 ca        1 6CA     -0.136500
     16 C24        21.5120   43.1830   44.3120 ca        1 6CA      0.045100
     17 O23        21.3990   43.3250   45.6900 os        1 6CA     -0.342900
     18 C22        20.6800   42.2740   46.3430 c3        1 6CA      0.129400
     19 C21        20.3400   42.7730   47.7380 c3        1 6CA     -0.081400
     20 C20        21.5350   42.7780   48.6690 c3        1 6CA     -0.081400
     21 C19        21.8690   41.4100   49.2250 c3        1 6CA     -0.078400
     22 C18        20.9680   40.9870   50.3660 c3        1 6CA     -0.086400
     23 C17        21.4230   41.5870   51.6870 c3        1 6CA      0.131400
     24 O16        20.5090   41.0960   52.6730 os        1 6CA     -0.339900
     25 C11        20.8400   41.3710   53.9890 ca        1 6CA      0.106100
     26 C12        21.8600   42.2400   54.3900 ca        1 6CA     -0.182000
     27 C13        22.0870   42.4440   55.7510 ca        1 6CA     -0.101000
     28 C10        20.0470   40.7130   54.9470 ca        1 6CA     -0.182000
     29 C9         20.2870   40.9320   56.2970 ca        1 6CA     -0.101000
     30 C8         21.3110   41.7960   56.7200 cp        1 6CA     -0.029000
     31 C5         21.5590   42.0100   58.1430 cp        1 6CA     -0.080000
     32 C6         20.4910   42.0960   59.0490 ca        1 6CA     -0.144000
     33 C7         20.7310   42.2940   60.4060 ca        1 6CA     -0.113000
     34 C4         22.8700   42.1270   58.6290 ca        1 6CA     -0.144000
     35 C3         23.1040   42.3220   59.9870 ca        1 6CA     -0.113000
     36 C2         22.0390   42.4060   60.8900 ca        1 6CA     -0.113600
     37 C1         22.2980   42.6160   62.3740 c         1 6CA      0.906200
     38 O14        23.4970   42.7180   62.7580 o         1 6CA     -0.832300
     39 O15        21.2990   42.6750   63.1470 o         1 6CA     -0.832300
     40 H36        21.0570   40.7130   36.3930 ha        1 6CA      0.152000
     41 H37        22.4800   38.7650   37.0870 ha        1 6CA      0.107000
     42 H38        23.7300   38.8630   39.2480 ha        1 6CA      0.104000
     43 H39        23.5770   40.8650   40.6880 ha        1 6CA      0.123000
     44 H30        21.8510   43.9170   39.6580 hn        1 6CA      0.480800
     45 H28        22.0560   45.2670   41.6700 ha        1 6CA      0.141500
     46 H29        21.7190   45.3320   44.1290 ha        1 6CA      0.127500
     47 H26        21.5990   40.9400   41.7530 ha        1 6CA      0.141500
     48 H25        21.3020   41.0230   44.1930 ha        1 6CA      0.127500
     49 H221       21.3310   41.3610   46.3860 h1        1 6CA      0.033700
     50 H222       19.7450   42.0360   45.7710 h1        1 6CA      0.033700
     51 H211       19.5290   42.1200   48.1540 hc        1 6CA      0.050200
     52 H212       19.9350   43.8160   47.6570 hc        1 6CA      0.050200
     53 H201       21.3330   43.4830   49.5180 hc        1 6CA      0.048700
     54 H202       22.4220   43.1750   48.1060 hc        1 6CA      0.048700
     55 H191       22.9360   41.4080   49.5750 hc        1 6CA      0.040700
     56 H192       21.7920   40.6480   48.4040 hc        1 6CA      0.040700
     57 H181       20.9750   39.8690   50.4600 hc        1 6CA      0.052700
     58 H182       19.9090   41.2950   50.1660 hc        1 6CA      0.052700
     59 H171       21.3750   42.7070   51.6620 h1        1 6CA      0.036700
     60 H172       22.4670   41.2630   51.9380 h1        1 6CA      0.036700
     61 H12        22.4800   42.7660   53.6520 ha        1 6CA      0.132500
     62 H13        22.8870   43.1310   56.0690 ha        1 6CA      0.137000
     63 H10        19.2490   40.0360   54.6130 ha        1 6CA      0.132500
     64 H9         19.6720   40.4150   57.0500 ha        1 6CA      0.137000
     65 H6         19.4580   42.0170   58.6800 ha        1 6CA      0.109000
     66 H7         19.9010   42.3660   61.1270 ha        1 6CA      0.151000
     67 H4         23.7160   42.0540   57.9310 ha        1 6CA      0.109000
     68 H3         24.1290   42.4110   60.3820 ha        1 6CA      0.151000
@<TRIPOS>BOND
     1    1    2 1   
     2    2    3 1   
     3    2    4 1   
     4    4    5 ar  
     5    4    9 ar  
     6    5    6 ar  
     7    5   40 1   
     8    6    7 ar  
     9    6   41 1   
    10    7    8 ar  
    11    7   42 1   
    12    8    9 ar  
    13    8   43 1   
    14    9   10 1   
    15   10   11 1   
    16   10   44 1   
    17   11   12 ar  
    18   11   14 ar  
    19   12   13 ar  
    20   12   45 1   
    21   13   16 ar  
    22   13   46 1   
    23   14   15 ar  
    24   14   47 1   
    25   15   16 ar  
    26   15   48 1   
    27   16   17 1   
    28   17   18 1   
    29   18   19 1   
    30   18   49 1   
    31   18   50 1   
    32   19   20 1   
    33   19   51 1   
    34   19   52 1   
    35   20   21 1   
    36   20   53 1   
    37   20   54 1   
    38   21   22 1   
    39   21   55 1   
    40   21   56 1   
    41   22   23 1   
    42   22   57 1   
    43   22   58 1   
    44   23   24 1   
    45   23   59 1   
    46   23   60 1   
    47   24   25 1   
    48   25   26 ar  
    49   25   28 ar  
    50   26   27 ar  
    51   26   61 1   
    52   27   30 ar  
    53   27   62 1   
    54   28   29 ar  
    55   28   63 1   
    56   29   30 ar  
    57   29   64 1   
    58   30   31 1   
    59   31   32 ar  
    60   31   34 ar  
    61   32   33 ar  
    62   32   65 1   
    63   33   36 ar  
    64   33   66 1   
    65   34   35 ar  
    66   34   67 1   
    67   35   36 ar  
    68   35   68 1   
    69   36   37 1   
    70   37   38 1   
    71   37   39 1   
@<TRIPOS>SUBSTRUCTURE
     1 6CA         1 TEMP              0 ****  ****    0 ROOT
