@<TRIPOS>MOLECULE
6CA
   68    71     1     0     0
SMALL
bcc


@<TRIPOS>ATOM
      1 O35         0.6480   -0.7030   -0.6560 o         1 6CA     -0.830300
      2 C33         1.7310   -0.0550   -0.6810 c         1 6CA      0.911200
      3 O34         2.0610    0.7750    0.2190 o         1 6CA     -0.830300
      4 C32         2.6550   -0.2790   -1.8710 ca        1 6CA     -0.158600
      5 C36         2.0680   -0.7650   -3.0430 ca        1 6CA     -0.089000
      6 C37         2.8170   -0.9970   -4.1940 ca        1 6CA     -0.183000
      7 C38         4.1850   -0.7350   -4.1850 ca        1 6CA     -0.137000
      8 C39         4.7990   -0.2520   -3.0350 ca        1 6CA     -0.185000
      9 C31         4.0500   -0.0220   -1.8570 ca        1 6CA      0.152600
     10 N30         4.6700    0.5540   -0.7280 nh        1 6CA     -0.624000
     11 C27         5.8230    0.0250   -0.1490 ca        1 6CA      0.170600
     12 C28         6.3600    0.6740    0.9990 ca        1 6CA     -0.175500
     13 C29         7.5480    0.2520    1.5710 ca        1 6CA     -0.136500
     14 C26         6.5270   -1.0900   -0.6600 ca        1 6CA     -0.175500
     15 C25         7.7270   -1.5060   -0.0940 ca        1 6CA     -0.136500
     16 C24         8.2450   -0.8340    1.0160 ca        1 6CA      0.045100
     17 O23         9.4620   -1.1360    1.6140 os        1 6CA     -0.342900
     18 C22         9.8910   -2.4920    1.4480 c3        1 6CA      0.129400
     19 C21        11.0050   -2.7290    2.4540 c3        1 6CA     -0.081400
     20 C20        12.3110   -2.0780    2.0520 c3        1 6CA     -0.081400
     21 C19        13.0740   -2.8590    1.0020 c3        1 6CA     -0.078400
     22 C18        13.8250   -4.0470    1.5640 c3        1 6CA     -0.086400
     23 C17        15.1580   -3.6300    2.1640 c3        1 6CA      0.131400
     24 O16        15.7700   -4.8370    2.6320 os        1 6CA     -0.339900
     25 C11        17.0800   -4.7200    3.0620 ca        1 6CA      0.106100
     26 C12        17.7520   -3.5080    3.2520 ca        1 6CA     -0.182000
     27 C13        19.0710   -3.5220    3.7030 ca        1 6CA     -0.101000
     28 C10        17.7250   -5.9410    3.3290 ca        1 6CA     -0.182000
     29 C9         19.0380   -5.9340    3.7810 ca        1 6CA     -0.101000
     30 C8         19.7320   -4.7280    3.9720 cp        1 6CA     -0.029000
     31 C5         21.1160   -4.7340    4.4390 cp        1 6CA     -0.080000
     32 C6         21.5370   -5.6570    5.4080 ca        1 6CA     -0.144000
     33 C7         22.8590   -5.6650    5.8470 ca        1 6CA     -0.113000
     34 C4         22.0480   -3.8220    3.9220 ca        1 6CA     -0.144000
     35 C3         23.3680   -3.8370    4.3620 ca        1 6CA     -0.113000
     36 C2         23.7880   -4.7580    5.3280 ca        1 6CA     -0.113600
     37 C1         25.2320   -4.7740    5.8050 c         1 6CA      0.906200
     38 O14        26.0300   -3.9290    5.3080 o         1 6CA     -0.832300
     39 O15        25.5610   -5.6320    6.6730 o         1 6CA     -0.832300
     40 H36         0.9860   -0.9790   -3.0220 ha        1 6CA      0.152000
     41 H37         2.3340   -1.3820   -5.1010 ha        1 6CA      0.107000
     42 H38         4.7870   -0.9060   -5.0890 ha        1 6CA      0.104000
     43 H39         5.8770   -0.0340   -3.0510 ha        1 6CA      0.123000
     44 H30         4.0070    0.9490   -0.0690 hn        1 6CA      0.480800
     45 H28         5.8190    1.5210    1.4480 ha        1 6CA      0.141500
     46 H29         7.9580    0.7610    2.4540 ha        1 6CA      0.127500
     47 H26         6.1180   -1.6550   -1.5120 ha        1 6CA      0.141500
     48 H25         8.2530   -2.3700   -0.5220 ha        1 6CA      0.127500
     49 H221        9.0340   -3.1910    1.6360 h1        1 6CA      0.033700
     50 H222       10.2580   -2.6300    0.3960 h1        1 6CA      0.033700
     51 H211       10.6830   -2.3190    3.4480 hc        1 6CA      0.050200
     52 H212       11.1430   -3.8360    2.5660 hc        1 6CA      0.050200
     53 H201       12.9550   -1.9560    2.9620 hc        1 6CA      0.048700
     54 H202       12.0890   -1.0500    1.6570 hc        1 6CA      0.048700
     55 H191       12.3570   -3.2240    0.2190 hc        1 6CA      0.040700
     56 H192       13.7980   -2.1710    0.4890 hc        1 6CA      0.040700
     57 H181       14.0180   -4.7930    0.7490 hc        1 6CA      0.052700
     58 H182       13.2130   -4.5640    2.3480 hc        1 6CA      0.052700
     59 H171       15.8120   -3.1440    1.3930 h1        1 6CA      0.036700
     60 H172       15.0140   -2.9290    3.0280 h1        1 6CA      0.036700
     61 H12        17.2570   -2.5480    3.0550 ha        1 6CA      0.132500
     62 H13        19.6010   -2.5690    3.8570 ha        1 6CA      0.137000
     63 H10        17.1810   -6.8830    3.1770 ha        1 6CA      0.132500
     64 H9         19.5480   -6.8880    3.9860 ha        1 6CA      0.137000
     65 H6         20.8150   -6.3710    5.8290 ha        1 6CA      0.109000
     66 H7         23.2010   -6.3820    6.6100 ha        1 6CA      0.151000
     67 H4         21.7320   -3.0980    3.1570 ha        1 6CA      0.109000
     68 H3         24.1110   -3.1280    3.9610 ha        1 6CA      0.151000
@<TRIPOS>BOND
     1    1    2 1   
     2    2    3 1   
     3    2    4 1   
     4    4    5 ar  
     5    4    9 ar  
     6    5    6 ar  
     7    5   40 1   
     8    6    7 ar  
     9    6   41 1   
    10    7    8 ar  
    11    7   42 1   
    12    8    9 ar  
    13    8   43 1   
    14    9   10 1   
    15   10   11 1   
    16   10   44 1   
    17   11   12 ar  
    18   11   14 ar  
    19   12   13 ar  
    20   12   45 1   
    21   13   16 ar  
    22   13   46 1   
    23   14   15 ar  
    24   14   47 1   
    25   15   16 ar  
    26   15   48 1   
    27   16   17 1   
    28   17   18 1   
    29   18   19 1   
    30   18   49 1   
    31   18   50 1   
    32   19   20 1   
    33   19   51 1   
    34   19   52 1   
    35   20   21 1   
    36   20   53 1   
    37   20   54 1   
    38   21   22 1   
    39   21   55 1   
    40   21   56 1   
    41   22   23 1   
    42   22   57 1   
    43   22   58 1   
    44   23   24 1   
    45   23   59 1   
    46   23   60 1   
    47   24   25 1   
    48   25   26 ar  
    49   25   28 ar  
    50   26   27 ar  
    51   26   61 1   
    52   27   30 ar  
    53   27   62 1   
    54   28   29 ar  
    55   28   63 1   
    56   29   30 ar  
    57   29   64 1   
    58   30   31 1   
    59   31   32 ar  
    60   31   34 ar  
    61   32   33 ar  
    62   32   65 1   
    63   33   36 ar  
    64   33   66 1   
    65   34   35 ar  
    66   34   67 1   
    67   35   36 ar  
    68   35   68 1   
    69   36   37 1   
    70   37   38 1   
    71   37   39 1   
@<TRIPOS>SUBSTRUCTURE
     1 6CA         1 TEMP              0 ****  ****    0 ROOT
