@<TRIPOS>MOLECULE
6CA
   68    71     1     0     0
SMALL
bcc


@<TRIPOS>ATOM
      1 O35         0.6460   -0.6870   -0.6470 o         1 6CA     -0.830300
      2 C33         1.7310   -0.0420   -0.6790 c         1 6CA      0.911200
      3 O34         2.0640    0.7940    0.2140 o         1 6CA     -0.830300
      4 C32         2.6530   -0.2800   -1.8680 ca        1 6CA     -0.158600
      5 C36         2.0640   -0.7720   -3.0350 ca        1 6CA     -0.089000
      6 C37         2.8110   -1.0150   -4.1850 ca        1 6CA     -0.183000
      7 C38         4.1800   -0.7590   -4.1780 ca        1 6CA     -0.137000
      8 C39         4.7970   -0.2700   -3.0330 ca        1 6CA     -0.185000
      9 C31         4.0490   -0.0280   -1.8560 ca        1 6CA      0.152600
     10 N30         4.6720    0.5540   -0.7320 nu        1 6CA     -0.624000
     11 C27         5.8240    0.0250   -0.1500 ca        1 6CA      0.170600
     12 C28         6.3640    0.6810    0.9930 ca        1 6CA     -0.175500
     13 C29         7.5510    0.2590    1.5670 ca        1 6CA     -0.136500
     14 C26         6.5230   -1.0960   -0.6530 ca        1 6CA     -0.175500
     15 C25         7.7220   -1.5120   -0.0840 ca        1 6CA     -0.136500
     16 C24         8.2430   -0.8330    1.0200 ca        1 6CA      0.045100
     17 O23         9.4600   -1.1350    1.6200 os        1 6CA     -0.342900
     18 C22         9.8860   -2.4920    1.4610 c3        1 6CA      0.129400
     19 C21        11.0010   -2.7250    2.4670 c3        1 6CA     -0.081400
     20 C20        12.3070   -2.0770    2.0580 c3        1 6CA     -0.081400
     21 C19        13.0680   -2.8660    1.0120 c3        1 6CA     -0.078400
     22 C18        13.8200   -4.0510    1.5800 c3        1 6CA     -0.086400
     23 C17        15.1550   -3.6310    2.1730 c3        1 6CA      0.131400
     24 O16        15.7660   -4.8360    2.6490 os        1 6CA     -0.339900
     25 C11        17.0790   -4.7170    3.0710 ca        1 6CA      0.106100
     26 C12        17.7540   -3.5050    3.2480 ca        1 6CA     -0.182000
     27 C13        19.0750   -3.5180    3.6920 ca        1 6CA     -0.101000
     28 C10        17.7220   -5.9380    3.3450 ca        1 6CA     -0.182000
     29 C9         19.0370   -5.9300    3.7900 ca        1 6CA     -0.101000
     30 C8         19.7350   -4.7230    3.9670 cp        1 6CA     -0.029000
     31 C5         21.1220   -4.7290    4.4260 cp        1 6CA     -0.080000
     32 C6         21.5470   -5.6450    5.4010 ca        1 6CA     -0.144000
     33 C7         22.8700   -5.6520    5.8320 ca        1 6CA     -0.113000
     34 C4         22.0520   -3.8230    3.8970 ca        1 6CA     -0.144000
     35 C3         23.3750   -3.8370    4.3300 ca        1 6CA     -0.113000
     36 C2         23.7990   -4.7510    5.3000 ca        1 6CA     -0.113600
     37 C1         25.2460   -4.7660    5.7690 c         1 6CA      0.906200
     38 O14        26.0420   -3.9260    5.2610 o         1 6CA     -0.832300
     39 O15        25.5770   -5.6190    6.6410 o         1 6CA     -0.832300
     40 H36         0.9810   -0.9810   -3.0120 ha        1 6CA      0.152000
     41 H37         2.3260   -1.4060   -5.0890 ha        1 6CA      0.107000
     42 H38         4.7800   -0.9400   -5.0820 ha        1 6CA      0.104000
     43 H39         5.8760   -0.0570   -3.0510 ha        1 6CA      0.123000
     44 H30         4.0110    0.9570   -0.0760 hn        1 6CA      0.480800
     45 H28         5.8260    1.5340    1.4350 ha        1 6CA      0.141500
     46 H29         7.9630    0.7750    2.4450 ha        1 6CA      0.127500
     47 H26         6.1120   -1.6660   -1.5000 ha        1 6CA      0.141500
     48 H25         8.2450   -2.3810   -0.5060 ha        1 6CA      0.127500
     49 H221       10.2510   -2.6370    0.4100 h1        1 6CA      0.033700
     50 H222        9.0280   -3.1880    1.6550 h1        1 6CA      0.033700
     51 H211       10.6810   -2.3090    3.4590 hc        1 6CA      0.050200
     52 H212       11.1380   -3.8320    2.5850 hc        1 6CA      0.050200
     53 H201       12.0860   -1.0510    1.6590 hc        1 6CA      0.048700
     54 H202       12.9530   -1.9520    2.9680 hc        1 6CA      0.048700
     55 H191       12.3490   -3.2350    0.2330 hc        1 6CA      0.040700
     56 H192       13.7910   -2.1810    0.4930 hc        1 6CA      0.040700
     57 H181       13.2090   -4.5620    2.3690 hc        1 6CA      0.052700
     58 H182       14.0080   -4.8030    0.7690 hc        1 6CA      0.052700
     59 H171       15.0140   -2.9230    3.0310 h1        1 6CA      0.036700
     60 H172       15.8070   -3.1530    1.3960 h1        1 6CA      0.036700
     61 H12        17.2590   -2.5460    3.0460 ha        1 6CA      0.132500
     62 H13        19.6080   -2.5660    3.8360 ha        1 6CA      0.137000
     63 H10        17.1760   -6.8800    3.2030 ha        1 6CA      0.132500
     64 H9         19.5470   -6.8830    4.0000 ha        1 6CA      0.137000
     65 H6         20.8250   -6.3540    5.8320 ha        1 6CA      0.109000
     66 H7         23.2160   -6.3640    6.5980 ha        1 6CA      0.151000
     67 H4         21.7340   -3.1050    3.1280 ha        1 6CA      0.109000
     68 H3         24.1170   -3.1330    3.9190 ha        1 6CA      0.151000
@<TRIPOS>BOND
     1    1    2 1   
     2    2    3 1   
     3    2    4 1   
     4    4    5 ar  
     5    4    9 ar  
     6    5    6 ar  
     7    5   40 1   
     8    6    7 ar  
     9    6   41 1   
    10    7    8 ar  
    11    7   42 1   
    12    8    9 ar  
    13    8   43 1   
    14    9   10 1   
    15   10   11 1   
    16   10   44 1   
    17   11   12 ar  
    18   11   14 ar  
    19   12   13 ar  
    20   12   45 1   
    21   13   16 ar  
    22   13   46 1   
    23   14   15 ar  
    24   14   47 1   
    25   15   16 ar  
    26   15   48 1   
    27   16   17 1   
    28   17   18 1   
    29   18   19 1   
    30   18   49 1   
    31   18   50 1   
    32   19   20 1   
    33   19   51 1   
    34   19   52 1   
    35   20   21 1   
    36   20   53 1   
    37   20   54 1   
    38   21   22 1   
    39   21   55 1   
    40   21   56 1   
    41   22   23 1   
    42   22   57 1   
    43   22   58 1   
    44   23   24 1   
    45   23   59 1   
    46   23   60 1   
    47   24   25 1   
    48   25   26 ar  
    49   25   28 ar  
    50   26   27 ar  
    51   26   61 1   
    52   27   30 ar  
    53   27   62 1   
    54   28   29 ar  
    55   28   63 1   
    56   29   30 ar  
    57   29   64 1   
    58   30   31 1   
    59   31   32 ar  
    60   31   34 ar  
    61   32   33 ar  
    62   32   65 1   
    63   33   36 ar  
    64   33   66 1   
    65   34   35 ar  
    66   34   67 1   
    67   35   36 ar  
    68   35   68 1   
    69   36   37 1   
    70   37   38 1   
    71   37   39 1   
@<TRIPOS>SUBSTRUCTURE
     1 6CA         1 TEMP              0 ****  ****    0 ROOT
