@<TRIPOS>MOLECULE
6CA
   69    72     1     0     0
SMALL
bcc


@<TRIPOS>ATOM
      1 O35         1.3800    1.9360   -1.2260 o         1 6CA     -0.490000
      2 C33         1.9650    0.8550   -1.3130 c         1 6CA      0.641700
      3 O34         1.4440   -0.1060   -0.4900 oh        1 6CA     -0.588100
      4 C32         3.1040    0.5280   -2.1890 ca        1 6CA     -0.241600
      5 C36         2.9860    0.8190   -3.5520 ca        1 6CA     -0.045000
      6 C37         4.0230    0.5380   -4.4320 ca        1 6CA     -0.178000
      7 C38         5.2060   -0.0210   -3.9420 ca        1 6CA     -0.069000
      8 C39         5.3550   -0.2970   -2.5900 ca        1 6CA     -0.190000
      9 C31         4.3050   -0.0340   -1.6780 ca        1 6CA      0.189600
     10 N30         4.3890   -0.3610   -0.3170 nh        1 6CA     -0.625000
     11 C27         5.6160   -0.7730    0.2640 ca        1 6CA      0.067600
     12 C28         6.2340    0.0060    1.2680 ca        1 6CA     -0.110500
     13 C29         7.3860   -0.4360    1.8990 ca        1 6CA     -0.169500
     14 C26         6.1920   -2.0100   -0.0860 ca        1 6CA     -0.110500
     15 C25         7.3540   -2.4550    0.5380 ca        1 6CA     -0.169500
     16 C24         7.9530   -1.6720    1.5310 ca        1 6CA      0.130100
     17 O23         9.0980   -2.0090    2.2180 os        1 6CA     -0.325900
     18 C22         9.7010   -3.2620    1.8590 c3        1 6CA      0.126400
     19 C21        10.9420   -3.4010    2.7250 c3        1 6CA     -0.082400
     20 C20        12.1010   -2.5610    2.2310 c3        1 6CA     -0.083400
     21 C19        12.8170   -3.1620    1.0390 c3        1 6CA     -0.078400
     22 C18        13.7400   -4.3050    1.4030 c3        1 6CA     -0.087400
     23 C17        15.0610   -3.7980    1.9590 c3        1 6CA      0.131400
     24 O16        15.8190   -4.9660    2.2840 os        1 6CA     -0.340900
     25 C11        17.1010   -4.7350    2.7570 ca        1 6CA      0.098100
     26 C12        17.6460   -3.4700    2.9970 ca        1 6CA     -0.181000
     27 C13        18.9500   -3.3690    3.4810 ca        1 6CA     -0.101500
     28 C10        17.8560   -5.8960    3.0010 ca        1 6CA     -0.181000
     29 C9         19.1520   -5.7750    3.4830 ca        1 6CA     -0.101500
     30 C8         19.7200   -4.5130    3.7300 cp        1 6CA     -0.020000
     31 C5         21.0840   -4.3970    4.2350 cp        1 6CA     -0.088000
     32 C6         21.5720   -5.3050    5.1860 ca        1 6CA     -0.143000
     33 C7         22.8730   -5.1900    5.6670 ca        1 6CA     -0.113000
     34 C4         21.9290   -3.3750    3.7760 ca        1 6CA     -0.143000
     35 C3         23.2300   -3.2670    4.2590 ca        1 6CA     -0.113000
     36 C2         23.7150   -4.1710    5.2090 ca        1 6CA     -0.110600
     37 C1         25.1380   -4.0480    5.7360 c         1 6CA      0.906200
     38 O14        25.8520   -3.1040    5.2940 o         1 6CA     -0.828300
     39 O15        25.5270   -4.8970    6.5870 o         1 6CA     -0.828300
     40 H36         2.0540    1.2810   -3.9170 ha        1 6CA      0.149000
     41 H37         3.9180    0.7620   -5.5020 ha        1 6CA      0.140000
     42 H38         6.0360   -0.2370   -4.6330 ha        1 6CA      0.138000
     43 H39         6.3060   -0.7160   -2.2240 ha        1 6CA      0.151000
     44 H30         1.8620   -0.9610   -0.6650 ho        1 6CA      0.438000
     45 H28         5.8010    0.9750    1.5650 ha        1 6CA      0.141000
     46 H29         7.8680    0.1650    2.6830 ha        1 6CA      0.149000
     47 H26         5.7230   -2.6390   -0.8590 ha        1 6CA      0.141000
     48 H25         7.7810   -3.4240    0.2440 ha        1 6CA      0.149000
     49 H221        8.9750   -4.0910    2.0700 h1        1 6CA      0.040200
     50 H222        9.9600   -3.2530    0.7680 h1        1 6CA      0.040200
     51 H211       10.6860   -3.0920    3.7730 hc        1 6CA      0.059700
     52 H212       11.2290   -4.4850    2.7450 hc        1 6CA      0.059700
     53 H201       11.7150   -1.5430    1.9540 hc        1 6CA      0.051700
     54 H202       12.8320   -2.4250    3.0710 hc        1 6CA      0.051700
     55 H191       12.0600   -3.5330    0.2970 hc        1 6CA      0.039700
     56 H192       13.4100   -2.3570    0.5280 hc        1 6CA      0.039700
     57 H181       13.9480   -4.9270    0.4930 hc        1 6CA      0.054200
     58 H182       13.2570   -4.9780    2.1590 hc        1 6CA      0.054200
     59 H171       15.6110   -3.1880    1.1940 h1        1 6CA      0.036700
     60 H172       14.9030   -3.1840    2.8840 h1        1 6CA      0.036700
     61 H12        17.0660   -2.5550    2.8150 ha        1 6CA      0.131000
     62 H13        19.3800   -2.3750    3.6760 ha        1 6CA      0.139500
     63 H10        17.4120   -6.8810    2.8050 ha        1 6CA      0.131000
     64 H9         19.7510   -6.6810    3.6710 ha        1 6CA      0.139500
     65 H6         20.9180   -6.1060    5.5600 ha        1 6CA      0.107500
     66 H7         23.2690   -5.8930    6.4180 ha        1 6CA      0.153000
     67 H4         21.5610   -2.6630    3.0230 ha        1 6CA      0.107500
     68 H3         23.9050   -2.4710    3.9050 ha        1 6CA      0.153000
     69 H302        3.8530    0.2400    0.2800 hn        1 6CA      0.422800
@<TRIPOS>BOND
     1    1    2 2   
     2    2    3 1   
     3    2    4 1   
     4    3   44 1   
     5    4    5 ar  
     6    4    9 ar  
     7    5    6 ar  
     8    5   40 1   
     9    6    7 ar  
    10    6   41 1   
    11    7    8 ar  
    12    7   42 1   
    13    8    9 ar  
    14    8   43 1   
    15    9   10 1   
    16   10   11 1   
    17   10   69 1   
    18   11   12 ar  
    19   11   14 ar  
    20   12   13 ar  
    21   12   45 1   
    22   13   16 ar  
    23   13   46 1   
    24   14   15 ar  
    25   14   47 1   
    26   15   16 ar  
    27   15   48 1   
    28   16   17 1   
    29   17   18 1   
    30   18   19 1   
    31   18   49 1   
    32   18   50 1   
    33   19   20 1   
    34   19   51 1   
    35   19   52 1   
    36   20   21 1   
    37   20   53 1   
    38   20   54 1   
    39   21   22 1   
    40   21   55 1   
    41   21   56 1   
    42   22   23 1   
    43   22   57 1   
    44   22   58 1   
    45   23   24 1   
    46   23   59 1   
    47   23   60 1   
    48   24   25 1   
    49   25   26 ar  
    50   25   28 ar  
    51   26   27 ar  
    52   26   61 1   
    53   27   30 ar  
    54   27   62 1   
    55   28   29 ar  
    56   28   63 1   
    57   29   30 ar  
    58   29   64 1   
    59   30   31 1   
    60   31   32 ar  
    61   31   34 ar  
    62   32   33 ar  
    63   32   65 1   
    64   33   36 ar  
    65   33   66 1   
    66   34   35 ar  
    67   34   67 1   
    68   35   36 ar  
    69   35   68 1   
    70   36   37 1   
    71   37   38 1   
    72   37   39 1   
@<TRIPOS>SUBSTRUCTURE
     1 6CA         1 TEMP              0 ****  ****    0 ROOT
