@<TRIPOS>MOLECULE
6CL
   26    25     1     0     0
SMALL
bcc


@<TRIPOS>ATOM
      1 N           0.9050   -1.2010    1.1720 n3        1 6CL     -0.880800
      2 CA          0.2210   -2.4740    1.3450 c3        1 6CL      0.024500
      3 CB          1.0460   -3.4950    2.1430 c3        1 6CL     -0.078400
      4 CG          1.7450   -4.5270    1.2720 c3        1 6CL     -0.089400
      5 CD          1.3750   -5.9540    1.6280 c3        1 6CL     -0.080400
      6 CE          0.1800   -6.5340    0.8780 c3        1 6CL     -0.043500
      7 CZ          0.6550   -7.1630   -0.5000 c         1 6CL      0.921600
      8 OH1         0.2080   -6.6240   -1.5470 o         1 6CL     -0.796300
      9 OH2         1.4140   -8.1520   -0.4080 o         1 6CL     -0.796300
     10 NZ         -0.9120   -5.5530    0.6460 n4        1 6CL     -0.843600
     11 C          -1.1920   -2.3570    1.9930 c         1 6CL      0.882600
     12 O          -1.5890   -1.2460    2.4230 o         1 6CL     -0.835300
     13 OXT        -1.9040   -3.4170    2.0370 o         1 6CL     -0.835300
     14 H2          0.2470   -0.5510    0.7750 hn        1 6CL      0.337300
     15 H           1.1520   -0.8400    2.0770 hn        1 6CL      0.337300
     16 HA          0.0470   -2.8720    0.3000 h1        1 6CL      0.039700
     17 HB2         0.3580   -4.0060    2.8710 hc        1 6CL      0.043200
     18 HB3         1.8170   -2.9700    2.7680 hc        1 6CL      0.043200
     19 HG2         1.5470   -4.3440    0.1830 hc        1 6CL      0.049700
     20 HG3         2.8550   -4.4140    1.4060 hc        1 6CL      0.049700
     21 HD2         2.2390   -6.6340    1.3880 hc        1 6CL      0.056700
     22 HD3         1.1880   -6.0280    2.7320 hc        1 6CL      0.056700
     23 HE         -0.2460   -7.3790    1.4900 hx        1 6CL      0.068700
     24 HZ1        -1.8050   -6.0330    0.5980 hn        1 6CL      0.455467
     25 HZ2        -0.7410   -5.1130   -0.2700 hn        1 6CL      0.455467
     26 HZ3        -0.9620   -4.8070    1.3840 hn        1 6CL      0.455467
@<TRIPOS>BOND
     1    1    2 1   
     2    1   14 1   
     3    1   15 1   
     4    2    3 1   
     5    2   11 1   
     6    2   16 1   
     7    3    4 1   
     8    3   17 1   
     9    3   18 1   
    10    4    5 1   
    11    4   19 1   
    12    4   20 1   
    13    5    6 1   
    14    5   21 1   
    15    5   22 1   
    16    6    7 1   
    17    6   10 1   
    18    6   23 1   
    19    7    8 1   
    20    7    9 1   
    21   10   24 1   
    22   10   25 1   
    23   10   26 1   
    24   11   12 1   
    25   11   13 1   
@<TRIPOS>SUBSTRUCTURE
     1 6CL         1 TEMP              0 ****  ****    0 ROOT
