@<TRIPOS>MOLECULE
6CM
   75    74     1     0     0
SMALL
bcc


@<TRIPOS>ATOM
      1 O19        -4.8270   -1.2850   -0.8840 o         1 6CM     -0.616100
      2 C19        -5.8660   -0.8270   -0.3680 c         1 6CM      0.660100
      3 N2         -6.1360    0.5270   -0.3970 n         1 6CM     -0.572900
      4 C2         -5.2840    1.4880   -1.0480 c3        1 6CM      0.039700
      5 C1         -6.1090    2.5380   -1.8260 c3        1 6CM      0.125400
      6 O1         -6.8640    3.3590   -0.9630 oh        1 6CM     -0.607800
      7 C3         -4.3410    2.2110   -0.0340 c3        1 6CM      0.152300
      8 C4         -3.1620    1.3550    0.2880 c2        1 6CM     -0.223200
      9 C5         -1.9710    1.8510    0.6330 c2        1 6CM     -0.149200
     10 C6         -0.8050    1.0070    0.9870 c3        1 6CM     -0.053200
     11 C7          0.4740    1.5340    0.3680 c3        1 6CM     -0.076400
     12 C8          1.6600    0.6770    0.7550 c3        1 6CM     -0.079400
     13 C9          2.9400    1.2010    0.1400 c3        1 6CM     -0.078400
     14 C10         4.1260    0.3440    0.5260 c3        1 6CM     -0.079400
     15 C11         5.4060    0.8680   -0.0880 c3        1 6CM     -0.079400
     16 C12         6.5920    0.0100    0.2980 c3        1 6CM     -0.079400
     17 C13         7.8720    0.5350   -0.3160 c3        1 6CM     -0.079400
     18 C14         9.0580   -0.3230    0.0700 c3        1 6CM     -0.079400
     19 C15        10.3390    0.2010   -0.5440 c3        1 6CM     -0.079400
     20 C16        11.5250   -0.6560   -0.1580 c3        1 6CM     -0.079400
     21 C17        12.8060   -0.1330   -0.7720 c3        1 6CM     -0.080400
     22 C18        13.9900   -0.9840   -0.3900 c3        1 6CM     -0.092100
     23 O3         -3.9800    3.4900   -0.5350 oh        1 6CM     -0.609800
     24 C20        -6.8930   -1.7090    0.3190 c3        1 6CM     -0.148400
     25 C21        -6.4720   -3.1620    0.2800 c3        1 6CM     -0.073400
     26 C22        -7.4970   -4.0410    0.9630 c3        1 6CM     -0.080400
     27 C23        -7.0800   -5.4960    0.9270 c3        1 6CM     -0.079400
     28 C24        -8.0960   -6.3780    1.6040 c3        1 6CM     -0.093100
     29 HN2        -6.9630    0.8800    0.0230 hn        1 6CM      0.320500
     30 H2         -4.6350    0.9370   -1.7940 h1        1 6CM      0.089700
     31 H11        -5.4080    3.1520   -2.4510 h1        1 6CM      0.054700
     32 H12        -6.8660    2.0420   -2.4910 h1        1 6CM      0.054700
     33 HO1        -6.2380    3.9270   -0.4920 ho        1 6CM      0.418000
     34 H3         -4.9080    2.4560    0.9140 h1        1 6CM      0.082700
     35 H4         -3.3480    0.2670    0.2260 ha        1 6CM      0.156000
     36 H5         -1.8040    2.9410    0.6850 ha        1 6CM      0.126000
     37 H61        -0.9700   -0.0550    0.6610 hc        1 6CM      0.052700
     38 H62        -0.6990    0.9950    2.1070 hc        1 6CM      0.052700
     39 H71         0.6480    2.5910    0.7030 hc        1 6CM      0.041200
     40 H72         0.3710    1.5530   -0.7490 hc        1 6CM      0.041200
     41 H81         1.4860   -0.3790    0.4180 hc        1 6CM      0.041200
     42 H82         1.7600    0.6550    1.8720 hc        1 6CM      0.041200
     43 H91         3.1140    2.2570    0.4770 hc        1 6CM      0.039700
     44 H92         2.8390    1.2230   -0.9770 hc        1 6CM      0.039700
     45 H101        3.9520   -0.7120    0.1900 hc        1 6CM      0.040200
     46 H102        4.2260    0.3220    1.6440 hc        1 6CM      0.040200
     47 H111        5.5800    1.9240    0.2490 hc        1 6CM      0.039700
     48 H112        5.3060    0.8900   -1.2050 hc        1 6CM      0.039700
     49 H121        6.4180   -1.0460   -0.0380 hc        1 6CM      0.039700
     50 H122        6.6920   -0.0120    1.4160 hc        1 6CM      0.039700
     51 H131        8.0460    1.5910    0.0210 hc        1 6CM      0.039700
     52 H132        7.7720    0.5570   -1.4330 hc        1 6CM      0.039700
     53 H141        8.8840   -1.3790   -0.2660 hc        1 6CM      0.039700
     54 H142        9.1590   -0.3450    1.1880 hc        1 6CM      0.039700
     55 H151       10.5120    1.2570   -0.2070 hc        1 6CM      0.039700
     56 H152       10.2380    0.2230   -1.6610 hc        1 6CM      0.039700
     57 H161       11.3510   -1.7120   -0.4940 hc        1 6CM      0.039700
     58 H162       11.6260   -0.6780    0.9590 hc        1 6CM      0.039700
     59 H171       12.9770    0.9240   -0.4350 hc        1 6CM      0.038700
     60 H172       12.7030   -0.1100   -1.8890 hc        1 6CM      0.038700
     61 H181       14.1240   -0.9980    0.7190 hc        1 6CM      0.032700
     62 H182       13.8490   -2.0350   -0.7390 hc        1 6CM      0.032700
     63 H183       14.9230   -0.5810   -0.8530 hc        1 6CM      0.032700
     64 HO3        -3.3270    3.3550   -1.2330 ho        1 6CM      0.408000
     65 H201       -7.0120   -1.3750    1.3840 hc        1 6CM      0.063200
     66 H202       -7.8840   -1.5860   -0.1920 hc        1 6CM      0.063200
     67 H211       -6.3370   -3.4830   -0.7870 hc        1 6CM      0.059200
     68 H212       -5.4730   -3.2750    0.7790 hc        1 6CM      0.059200
     69 H221       -7.6270   -3.7140    2.0280 hc        1 6CM      0.037700
     70 H222       -8.4920   -3.9240    0.4580 hc        1 6CM      0.037700
     71 H231       -6.9490   -5.8200   -0.1400 hc        1 6CM      0.041700
     72 H232       -6.0840   -5.6110    1.4300 hc        1 6CM      0.041700
     73 H241       -8.2210   -6.0860    2.6750 hc        1 6CM      0.033033
     74 H242       -9.0890   -6.2960    1.1010 hc        1 6CM      0.033033
     75 H243       -7.7690   -7.4460    1.5660 hc        1 6CM      0.033033
@<TRIPOS>BOND
     1    1    2 2   
     2    2    3 1   
     3    2   24 1   
     4    3    4 1   
     5    3   29 1   
     6    4    5 1   
     7    4    7 1   
     8    4   30 1   
     9    5    6 1   
    10    5   31 1   
    11    5   32 1   
    12    6   33 1   
    13    7    8 1   
    14    7   23 1   
    15    7   34 1   
    16    8    9 2   
    17    8   35 1   
    18    9   10 1   
    19    9   36 1   
    20   10   11 1   
    21   10   37 1   
    22   10   38 1   
    23   11   12 1   
    24   11   39 1   
    25   11   40 1   
    26   12   13 1   
    27   12   41 1   
    28   12   42 1   
    29   13   14 1   
    30   13   43 1   
    31   13   44 1   
    32   14   15 1   
    33   14   45 1   
    34   14   46 1   
    35   15   16 1   
    36   15   47 1   
    37   15   48 1   
    38   16   17 1   
    39   16   49 1   
    40   16   50 1   
    41   17   18 1   
    42   17   51 1   
    43   17   52 1   
    44   18   19 1   
    45   18   53 1   
    46   18   54 1   
    47   19   20 1   
    48   19   55 1   
    49   19   56 1   
    50   20   21 1   
    51   20   57 1   
    52   20   58 1   
    53   21   22 1   
    54   21   59 1   
    55   21   60 1   
    56   22   61 1   
    57   22   62 1   
    58   22   63 1   
    59   23   64 1   
    60   24   25 1   
    61   24   65 1   
    62   24   66 1   
    63   25   26 1   
    64   25   67 1   
    65   25   68 1   
    66   26   27 1   
    67   26   69 1   
    68   26   70 1   
    69   27   28 1   
    70   27   71 1   
    71   27   72 1   
    72   28   73 1   
    73   28   74 1   
    74   28   75 1   
@<TRIPOS>SUBSTRUCTURE
     1 6CM         1 TEMP              0 ****  ****    0 ROOT
