@<TRIPOS>MOLECULE
6CM
   76    75     1     0     0
SMALL
bcc


@<TRIPOS>ATOM
      1 O19         1.7290    1.9730   -1.2040 o         1 6CM     -0.413100
      2 C19         2.3470    1.0160   -0.7690 c         1 6CM      0.554100
      3 N2          2.8430    1.1630    0.6600 n4        1 6CM     -0.678800
      4 C2          1.7420    0.9460    1.6580 c3        1 6CM      0.076500
      5 C1          1.3080   -0.5330    1.7150 c3        1 6CM      0.112400
      6 O1          2.4490   -1.3630    1.7740 oh        1 6CM     -0.624800
      7 C3          2.1950    1.4180    3.0730 c3        1 6CM      0.184300
      8 C4          2.7200    2.8120    3.0510 c2        1 6CM     -0.330200
      9 C5          2.0200    3.9360    2.8510 c2        1 6CM     -0.067200
     10 C6          0.5740    4.0370    2.5460 c3        1 6CM     -0.085200
     11 C7         -0.0740    5.2320    3.2220 c3        1 6CM     -0.079400
     12 C8          0.2360    6.5350    2.5170 c3        1 6CM     -0.081400
     13 C9         -0.4230    7.7040    3.2190 c3        1 6CM     -0.080400
     14 C10        -0.1190    9.0080    2.5140 c3        1 6CM     -0.078400
     15 C11        -0.7780   10.1760    3.2160 c3        1 6CM     -0.079400
     16 C12        -0.4740   11.4810    2.5120 c3        1 6CM     -0.078400
     17 C13        -1.1330   12.6490    3.2140 c3        1 6CM     -0.079400
     18 C14        -0.8290   13.9550    2.5100 c3        1 6CM     -0.078400
     19 C15        -1.4880   15.1230    3.2120 c3        1 6CM     -0.079400
     20 C16        -1.1840   16.4280    2.5090 c3        1 6CM     -0.079400
     21 C17        -1.8420   17.5980    3.2110 c3        1 6CM     -0.080400
     22 C18        -1.5430   18.9000    2.5140 c3        1 6CM     -0.093100
     23 O3          1.0540    1.2240    3.8930 oh        1 6CM     -0.595800
     24 C20         2.7100   -0.2730   -1.4430 c3        1 6CM     -0.157400
     25 C21         1.8810   -0.4720   -2.6990 c3        1 6CM     -0.081400
     26 C22         2.3070   -1.7400   -3.4110 c3        1 6CM     -0.081400
     27 C23         1.4780   -1.9580   -4.6600 c3        1 6CM     -0.078400
     28 C24         1.8950   -3.2160   -5.3770 c3        1 6CM     -0.097100
     29 HN2         3.5770    0.4660    0.8420 hn        1 6CM      0.464300
     30 H2          0.8580    1.5760    1.3380 hx        1 6CM      0.126700
     31 H11         0.6270   -0.6600    2.5990 h1        1 6CM      0.094700
     32 H12         0.7620   -0.8140    0.7730 h1        1 6CM      0.094700
     33 HO1         2.5190   -1.7240    2.6670 ho        1 6CM      0.443000
     34 H3          2.9940    0.7090    3.4450 h1        1 6CM      0.064700
     35 H4          3.7970    2.8830    3.2890 ha        1 6CM      0.147000
     36 H5          2.5470    4.9100    2.9040 ha        1 6CM      0.154000
     37 H61         0.0340    3.1030    2.8590 hc        1 6CM      0.061200
     38 H62         0.4530    4.1350    1.4300 hc        1 6CM      0.061200
     39 H71         0.2620    5.2920    4.2910 hc        1 6CM      0.056700
     40 H72        -1.1860    5.0760    3.2320 hc        1 6CM      0.056700
     41 H81         1.3450    6.6990    2.4820 hc        1 6CM      0.039200
     42 H82        -0.1240    6.4850    1.4550 hc        1 6CM      0.039200
     43 H91        -1.5340    7.5440    3.2520 hc        1 6CM      0.046200
     44 H92        -0.0640    7.7570    4.2800 hc        1 6CM      0.046200
     45 H101       -0.4800    8.9560    1.4520 hc        1 6CM      0.040200
     46 H102        0.9910    9.1680    2.4790 hc        1 6CM      0.040200
     47 H111       -1.8880   10.0170    3.2500 hc        1 6CM      0.042200
     48 H112       -0.4190   10.2290    4.2770 hc        1 6CM      0.042200
     49 H121       -0.8340   11.4290    1.4500 hc        1 6CM      0.040200
     50 H122        0.6360   11.6410    2.4770 hc        1 6CM      0.040200
     51 H131       -0.7730   12.7020    4.2760 hc        1 6CM      0.041200
     52 H132       -2.2430   12.4900    3.2480 hc        1 6CM      0.041200
     53 H141       -1.1890   13.9030    1.4490 hc        1 6CM      0.039700
     54 H142        0.2810   14.1140    2.4760 hc        1 6CM      0.039700
     55 H151       -2.5980   14.9640    3.2470 hc        1 6CM      0.040700
     56 H152       -1.1280   15.1750    4.2740 hc        1 6CM      0.040700
     57 H161       -1.5440   16.3770    1.4480 hc        1 6CM      0.039700
     58 H162       -0.0740   16.5880    2.4750 hc        1 6CM      0.039700
     59 H171       -2.9520   17.4360    3.2460 hc        1 6CM      0.038700
     60 H172       -1.4830   17.6470    4.2720 hc        1 6CM      0.038700
     61 H181       -1.9160   18.8790    1.4620 hc        1 6CM      0.033700
     62 H182       -0.4430   19.0910    2.4910 hc        1 6CM      0.033700
     63 H183       -2.0370   19.7470    3.0470 hc        1 6CM      0.033700
     64 HO3         1.0280    1.9390    4.5450 ho        1 6CM      0.446000
     65 H201        2.5580   -1.1380   -0.7370 hc        1 6CM      0.109700
     66 H202        3.8040   -0.2330   -1.7090 hc        1 6CM      0.109700
     67 H211        2.0070    0.4110   -3.3810 hc        1 6CM      0.067700
     68 H212        0.7940   -0.5330   -2.4290 hc        1 6CM      0.067700
     69 H221        3.3920   -1.6730   -3.6880 hc        1 6CM      0.049200
     70 H222        2.1900   -2.6190   -2.7240 hc        1 6CM      0.049200
     71 H231        0.3930   -2.0240   -4.3830 hc        1 6CM      0.046700
     72 H232        1.5930   -1.0770   -5.3450 hc        1 6CM      0.046700
     73 H241        1.2730   -3.3600   -6.2940 hc        1 6CM      0.043033
     74 H242        2.9680   -3.1590   -5.6860 hc        1 6CM      0.043033
     75 H243        1.7650   -4.1100   -4.7200 hc        1 6CM      0.043033
     76 H22         3.2220    2.1090    0.8040 hn        1 6CM      0.464300
@<TRIPOS>BOND
     1    1    2 2   
     2    2    3 1   
     3    2   24 1   
     4    3    4 1   
     5    3   29 1   
     6    3   76 1   
     7    4    5 1   
     8    4    7 1   
     9    4   30 1   
    10    5    6 1   
    11    5   31 1   
    12    5   32 1   
    13    6   33 1   
    14    7    8 1   
    15    7   23 1   
    16    7   34 1   
    17    8    9 2   
    18    8   35 1   
    19    9   10 1   
    20    9   36 1   
    21   10   11 1   
    22   10   37 1   
    23   10   38 1   
    24   11   12 1   
    25   11   39 1   
    26   11   40 1   
    27   12   13 1   
    28   12   41 1   
    29   12   42 1   
    30   13   14 1   
    31   13   43 1   
    32   13   44 1   
    33   14   15 1   
    34   14   45 1   
    35   14   46 1   
    36   15   16 1   
    37   15   47 1   
    38   15   48 1   
    39   16   17 1   
    40   16   49 1   
    41   16   50 1   
    42   17   18 1   
    43   17   51 1   
    44   17   52 1   
    45   18   19 1   
    46   18   53 1   
    47   18   54 1   
    48   19   20 1   
    49   19   55 1   
    50   19   56 1   
    51   20   21 1   
    52   20   57 1   
    53   20   58 1   
    54   21   22 1   
    55   21   59 1   
    56   21   60 1   
    57   22   61 1   
    58   22   62 1   
    59   22   63 1   
    60   23   64 1   
    61   24   25 1   
    62   24   65 1   
    63   24   66 1   
    64   25   26 1   
    65   25   67 1   
    66   25   68 1   
    67   26   27 1   
    68   26   69 1   
    69   26   70 1   
    70   27   28 1   
    71   27   71 1   
    72   27   72 1   
    73   28   73 1   
    74   28   74 1   
    75   28   75 1   
@<TRIPOS>SUBSTRUCTURE
     1 6CM         1 TEMP              0 ****  ****    0 ROOT
