@<TRIPOS>MOLECULE
6CM
   76    75     1     0     0
SMALL
bcc


@<TRIPOS>ATOM
      1 O19         1.7490    1.9900   -1.1850 o         1 6CM     -0.413100
      2 C19         2.3680    1.0320   -0.7530 c         1 6CM      0.554100
      3 N2          2.8580    1.1710    0.6790 ny        1 6CM     -0.678800
      4 C2          1.7550    0.9450    1.6710 c3        1 6CM      0.076500
      5 C1          1.3250   -0.5370    1.7180 c3        1 6CM      0.112400
      6 O1          2.4690   -1.3630    1.7760 oh        1 6CM     -0.624800
      7 C3          2.2000    1.4100    3.0910 c3        1 6CM      0.184300
      8 C4          2.7210    2.8060    3.0790 c2        1 6CM     -0.331200
      9 C5          2.0180    3.9280    2.8800 c2        1 6CM     -0.067200
     10 C6          0.5730    4.0260    2.5680 c3        1 6CM     -0.085200
     11 C7         -0.0810    5.2210    3.2390 c3        1 6CM     -0.079400
     12 C8          0.2290    6.5230    2.5320 c3        1 6CM     -0.081400
     13 C9         -0.4360    7.6920    3.2280 c3        1 6CM     -0.080400
     14 C10        -0.1320    8.9950    2.5200 c3        1 6CM     -0.078400
     15 C11        -0.7970   10.1630    3.2160 c3        1 6CM     -0.079400
     16 C12        -0.4940   11.4670    2.5090 c3        1 6CM     -0.078400
     17 C13        -1.1590   12.6350    3.2050 c3        1 6CM     -0.079400
     18 C14        -0.8560   13.9390    2.4980 c3        1 6CM     -0.078400
     19 C15        -1.5200   15.1080    3.1950 c3        1 6CM     -0.079400
     20 C16        -1.2180   16.4120    2.4880 c3        1 6CM     -0.079400
     21 C17        -1.8820   17.5820    3.1830 c3        1 6CM     -0.080400
     22 C18        -1.5840   18.8820    2.4830 c3        1 6CM     -0.093100
     23 O3          1.0570    1.2080    3.9050 oh        1 6CM     -0.595800
     24 C20         2.7370   -0.2520   -1.4340 c3        1 6CM     -0.157400
     25 C21         1.9140   -0.4450   -2.6950 c3        1 6CM     -0.081400
     26 C22         2.3450   -1.7060   -3.4130 c3        1 6CM     -0.081400
     27 C23         1.5220   -1.9200   -4.6660 c3        1 6CM     -0.078400
     28 C24         1.9460   -3.1710   -5.3910 c3        1 6CM     -0.097100
     29 HN2         3.2340    2.1170    0.8300 hn        1 6CM      0.464800
     30 H2          0.8700    1.5740    1.3510 hx        1 6CM      0.127700
     31 H11         0.6410   -0.6710    2.5990 h1        1 6CM      0.094700
     32 H12         0.7830   -0.8130    0.7720 h1        1 6CM      0.094700
     33 HO1         2.5370   -1.7290    2.6670 ho        1 6CM      0.443000
     34 H3          3.0000    0.7020    3.4610 h1        1 6CM      0.064700
     35 H4          3.7960    2.8790    3.3220 ha        1 6CM      0.147000
     36 H5          2.5410    4.9040    2.9420 ha        1 6CM      0.154000
     37 H61         0.0340    3.0910    2.8810 hc        1 6CM      0.061200
     38 H62         0.4570    4.1210    1.4520 hc        1 6CM      0.061200
     39 H71        -1.1920    5.0620    3.2440 hc        1 6CM      0.057200
     40 H72         0.2500    5.2840    4.3090 hc        1 6CM      0.057200
     41 H81         1.3390    6.6890    2.5020 hc        1 6CM      0.039200
     42 H82        -0.1260    6.4690    1.4680 hc        1 6CM      0.039200
     43 H91        -0.0810    7.7490    4.2910 hc        1 6CM      0.046200
     44 H92        -1.5460    7.5290    3.2580 hc        1 6CM      0.046200
     45 H101       -0.4890    8.9390    1.4580 hc        1 6CM      0.040200
     46 H102        0.9770    9.1580    2.4890 hc        1 6CM      0.040200
     47 H111       -0.4410   10.2200    4.2790 hc        1 6CM      0.042200
     48 H112       -1.9070   10.0010    3.2470 hc        1 6CM      0.042200
     49 H121        0.6150   11.6300    2.4780 hc        1 6CM      0.040200
     50 H122       -0.8510   11.4110    1.4470 hc        1 6CM      0.040200
     51 H131       -0.8020   12.6920    4.2680 hc        1 6CM      0.041200
     52 H132       -2.2680   12.4730    3.2370 hc        1 6CM      0.041200
     53 H141        0.2530   14.1020    2.4670 hc        1 6CM      0.039700
     54 H142       -1.2120   13.8830    1.4360 hc        1 6CM      0.039700
     55 H151       -2.6300   14.9460    3.2260 hc        1 6CM      0.040700
     56 H152       -1.1640   15.1650    4.2570 hc        1 6CM      0.040700
     57 H161       -1.5750   16.3550    1.4250 hc        1 6CM      0.039700
     58 H162       -0.1090   16.5750    2.4560 hc        1 6CM      0.039700
     59 H171       -1.5260   17.6360    4.2460 hc        1 6CM      0.038700
     60 H172       -2.9910   17.4160    3.2160 hc        1 6CM      0.038700
     61 H181       -1.9550   18.8570    1.4290 hc        1 6CM      0.033700
     62 H182       -0.4850   19.0770    2.4620 hc        1 6CM      0.033700
     63 H183       -2.0830   19.7300    3.0110 hc        1 6CM      0.033700
     64 HO3         1.0280    1.9170    4.5630 ho        1 6CM      0.446000
     65 H201        3.8320   -0.2070   -1.6960 hc        1 6CM      0.109700
     66 H202        2.5850   -1.1220   -0.7340 hc        1 6CM      0.109700
     67 H211        0.8260   -0.5100   -2.4290 hc        1 6CM      0.067700
     68 H212        2.0390    0.4430   -3.3700 hc        1 6CM      0.067700
     69 H221        3.4310   -1.6350   -3.6860 hc        1 6CM      0.049200
     70 H222        2.2290   -2.5910   -2.7320 hc        1 6CM      0.049200
     71 H231        0.4350   -1.9910   -4.3940 hc        1 6CM      0.046700
     72 H232        1.6360   -1.0330   -5.3450 hc        1 6CM      0.046700
     73 H241        1.3270   -3.3110   -6.3100 hc        1 6CM      0.043033
     74 H242        1.8160   -4.0690   -4.7390 hc        1 6CM      0.043033
     75 H243        3.0180   -3.1090   -5.6940 hc        1 6CM      0.043033
     76 H22         3.5940    0.4750    0.8590 hn        1 6CM      0.464800
@<TRIPOS>BOND
     1    1    2 2   
     2    2    3 1   
     3    2   24 1   
     4    3    4 1   
     5    3   29 1   
     6    3   76 1   
     7    4    5 1   
     8    4    7 1   
     9    4   30 1   
    10    5    6 1   
    11    5   31 1   
    12    5   32 1   
    13    6   33 1   
    14    7    8 1   
    15    7   23 1   
    16    7   34 1   
    17    8    9 2   
    18    8   35 1   
    19    9   10 1   
    20    9   36 1   
    21   10   11 1   
    22   10   37 1   
    23   10   38 1   
    24   11   12 1   
    25   11   39 1   
    26   11   40 1   
    27   12   13 1   
    28   12   41 1   
    29   12   42 1   
    30   13   14 1   
    31   13   43 1   
    32   13   44 1   
    33   14   15 1   
    34   14   45 1   
    35   14   46 1   
    36   15   16 1   
    37   15   47 1   
    38   15   48 1   
    39   16   17 1   
    40   16   49 1   
    41   16   50 1   
    42   17   18 1   
    43   17   51 1   
    44   17   52 1   
    45   18   19 1   
    46   18   53 1   
    47   18   54 1   
    48   19   20 1   
    49   19   55 1   
    50   19   56 1   
    51   20   21 1   
    52   20   57 1   
    53   20   58 1   
    54   21   22 1   
    55   21   59 1   
    56   21   60 1   
    57   22   61 1   
    58   22   62 1   
    59   22   63 1   
    60   23   64 1   
    61   24   25 1   
    62   24   65 1   
    63   24   66 1   
    64   25   26 1   
    65   25   67 1   
    66   25   68 1   
    67   26   27 1   
    68   26   69 1   
    69   26   70 1   
    70   27   28 1   
    71   27   71 1   
    72   27   72 1   
    73   28   73 1   
    74   28   74 1   
    75   28   75 1   
@<TRIPOS>SUBSTRUCTURE
     1 6CM         1 TEMP              0 ****  ****    0 ROOT
