@<TRIPOS>MOLECULE
6CM
   75    72     1     0     0
SMALL
bcc


@<TRIPOS>ATOM
      1 O19        -1.9490   -1.4530   -6.8790 o         1 6CM     -0.391000
      2 C19        -0.7710   -1.7320   -6.7800 c1        1 6CM      0.302000
      3 N2         -0.0660   -1.4230   -5.5870 n2        1 6CM     -0.359000
      4 C2         -0.7490   -0.8270   -4.4930 c3        1 6CM     -0.002000
      5 C1         -1.3300   -1.9100   -3.6110 c3        1 6CM     -0.034000
      6 O1         -2.6560   -2.1790   -4.0080 oh        1 6CM     -0.336000
      7 C3          0.2200    0.0110   -3.6910 c3        1 6CM      0.059000
      8 C4          1.1570   -0.8960   -2.9260 c2        1 6CM     -0.187000
      9 C5          1.6420   -0.5080   -1.7290 c1        1 6CM     -0.153000
     10 C6          1.2490    0.8340   -1.1530 c2        1 6CM     -0.134000
     11 C7          2.1120    1.1380    0.0520 c3        1 6CM     -0.157000
     12 C8          1.2980    1.8970    1.0770 c3        1 6CM     -0.158000
     13 C9          2.0190    1.8780    2.4070 c3        1 6CM     -0.158000
     14 C10         1.1740    2.5800    3.4480 c3        1 6CM     -0.158000
     15 C11         1.6840    2.2320    4.8300 c3        1 6CM     -0.158000
     16 C12         0.7540    2.8130    5.8720 c3        1 6CM     -0.158000
     17 C13         0.9120    2.0510    7.1700 c3        1 6CM     -0.158000
     18 C14         0.0110    2.6570    8.2230 c3        1 6CM     -0.158000
     19 C15        -0.1850    1.6660    9.3490 c3        1 6CM     -0.158000
     20 C16        -1.0330    2.2950   10.4320 c3        1 6CM     -0.158000
     21 C17        -1.4730    1.2290   11.4110 c3        1 6CM     -0.159000
     22 C18        -2.2040    1.8760   12.5670 c3        1 6CM     -0.210000
     23 O3          0.9650    0.8290   -4.5610 oh        1 6CM     -0.332000
     24 C20        -0.0580   -2.4220   -7.9220 c3        1 6CM     -0.182000
     25 C21        -1.0620   -2.7980   -8.9900 c3        1 6CM     -0.158000
     26 C22        -0.3750   -3.6120  -10.0640 c3        1 6CM     -0.158000
     27 C23        -1.4030   -4.1040  -11.0590 c3        1 6CM     -0.159000
     28 C24        -0.7090   -4.8650  -12.1670 c3        1 6CM     -0.211000
     29 HN2         0.8210   -1.6230   -5.5170 hn        1 6CM      0.232000
     30 H2         -1.4700   -0.2600   -4.8300 h1        1 6CM      0.118000
     31 H11        -1.3220   -1.6100   -2.6790 h1        1 6CM      0.077000
     32 H12        -0.7920   -2.7240   -3.6960 h1        1 6CM      0.077000
     33 HO1        -3.1100   -2.5100   -3.3190 ho        1 6CM      0.207000
     34 H3         -0.2770    0.5710   -3.0630 h1        1 6CM      0.111000
     35 H4          1.4100   -1.7620   -3.2980 ha        1 6CM      0.135000
     36 H5          2.2470   -1.0930   -1.2350 ha        1 6CM      0.123000
     37 H61         0.3090    0.8110   -0.8830 ha        1 6CM      0.086000
     38 H62         1.3770    1.5300   -1.8290 ha        1 6CM      0.086000
     39 H71         2.8780    1.6800   -0.2230 hc        1 6CM      0.082000
     40 H72         2.4300    0.3000    0.4450 hc        1 6CM      0.082000
     41 H81         0.4220    1.4750    1.1750 hc        1 6CM      0.078500
     42 H82         1.1830    2.8220    0.7820 hc        1 6CM      0.078500
     43 H91         2.1730    0.9520    2.6820 hc        1 6CM      0.080000
     44 H92         2.8770    2.3390    2.3200 hc        1 6CM      0.080000
     45 H101        0.2440    2.2900    3.3620 hc        1 6CM      0.079000
     46 H102        1.2280    3.5470    3.3150 hc        1 6CM      0.079000
     47 H111        2.5810    2.6050    4.9490 hc        1 6CM      0.079500
     48 H112        1.7190    1.2600    4.9290 hc        1 6CM      0.079500
     49 H121        0.9740    3.7540    6.0180 hc        1 6CM      0.078500
     50 H122       -0.1710    2.7390    5.5610 hc        1 6CM      0.078500
     51 H131        1.8430    2.1040    7.4670 hc        1 6CM      0.079000
     52 H132        0.6670    1.1150    7.0300 hc        1 6CM      0.079000
     53 H141       -0.8560    2.8740    7.8250 hc        1 6CM      0.079000
     54 H142        0.4220    3.4720    8.5740 hc        1 6CM      0.079000
     55 H151        0.6850    1.4170    9.7200 hc        1 6CM      0.079000
     56 H152       -0.6340    0.8670    9.0060 hc        1 6CM      0.079000
     57 H161       -0.5100    2.9740   10.9030 hc        1 6CM      0.079000
     58 H162       -1.8210    2.7120   10.0290 hc        1 6CM      0.079000
     59 H171       -0.6880    0.7510   11.7480 hc        1 6CM      0.078000
     60 H172       -2.0700    0.5980   10.9610 hc        1 6CM      0.078000
     61 H181       -2.9550    2.4040   12.2240 hc        1 6CM      0.072000
     62 H182       -1.5880    2.4620   13.0560 hc        1 6CM      0.072000
     63 H183       -2.5410    1.1810   13.1710 hc        1 6CM      0.072000
     64 HO3         0.6020    1.6400   -4.5890 ho        1 6CM      0.232000
     65 H201        0.3830   -3.2300   -7.5910 hc        1 6CM      0.111500
     66 H202        0.6110   -1.8180   -8.3010 hc        1 6CM      0.111500
     67 H211       -1.4360   -1.9860   -9.3860 hc        1 6CM      0.088500
     68 H212       -1.7810   -3.3270   -8.5890 hc        1 6CM      0.088500
     69 H221        0.2840   -3.0550  -10.5240 hc        1 6CM      0.081500
     70 H222        0.0750   -4.3790   -9.6550 hc        1 6CM      0.081500
     71 H231       -1.8810   -3.3390  -11.4390 hc        1 6CM      0.080000
     72 H232       -2.0390   -4.6940  -10.6070 hc        1 6CM      0.080000
     73 H241       -1.3480   -5.0520  -12.8860 hc        1 6CM      0.073333
     74 H242       -0.3590   -5.7100  -11.8130 hc        1 6CM      0.073333
     75 H243        0.0310   -4.3280  -12.5190 hc        1 6CM      0.073333
@<TRIPOS>BOND
     1    1    2 1   
     2    2   24 1   
     3    3    4 1   
     4    3   29 1   
     5    4    5 1   
     6    4    7 1   
     7    4   30 1   
     8    5    6 1   
     9    5   31 1   
    10    5   32 1   
    11    6   33 1   
    12    7    8 1   
    13    7   23 1   
    14    7   34 1   
    15    8    9 1   
    16    8   35 1   
    17    9   36 1   
    18   10   11 1   
    19   10   37 1   
    20   10   38 1   
    21   11   12 1   
    22   11   39 1   
    23   11   40 1   
    24   12   13 1   
    25   12   41 1   
    26   12   42 1   
    27   13   14 1   
    28   13   43 1   
    29   13   44 1   
    30   14   15 1   
    31   14   45 1   
    32   14   46 1   
    33   15   16 1   
    34   15   47 1   
    35   15   48 1   
    36   16   17 1   
    37   16   49 1   
    38   16   50 1   
    39   17   18 1   
    40   17   51 1   
    41   17   52 1   
    42   18   19 1   
    43   18   53 1   
    44   18   54 1   
    45   19   20 1   
    46   19   55 1   
    47   19   56 1   
    48   20   21 1   
    49   20   57 1   
    50   20   58 1   
    51   21   22 1   
    52   21   59 1   
    53   21   60 1   
    54   22   61 1   
    55   22   62 1   
    56   22   63 1   
    57   23   64 1   
    58   24   25 1   
    59   24   65 1   
    60   24   66 1   
    61   25   26 1   
    62   25   67 1   
    63   25   68 1   
    64   26   27 1   
    65   26   69 1   
    66   26   70 1   
    67   27   28 1   
    68   27   71 1   
    69   27   72 1   
    70   28   73 1   
    71   28   74 1   
    72   28   75 1   
@<TRIPOS>SUBSTRUCTURE
     1 6CM         1 TEMP              0 ****  ****    0 ROOT
