@<TRIPOS>MOLECULE
6CM
   76    75     1     0     0
SMALL
bcc


@<TRIPOS>ATOM
      1 O19        -1.1000   -0.8720    0.5010 o         1 6CM     -0.417100
      2 C19         0.0340   -0.6800    0.0900 c         1 6CM      0.553100
      3 N2          0.8480    0.3890    0.7780 n4        1 6CM     -0.665800
      4 C2          0.1810    1.0280    1.9620 c3        1 6CM      0.121500
      5 C1          0.1460    0.1120    3.1990 c3        1 6CM      0.114400
      6 O1          1.3700   -0.6000    3.2800 oh        1 6CM     -0.637800
      7 C3          0.8530    2.4000    2.2630 c3        1 6CM      0.177300
      8 C4          2.3040    2.2580    2.5720 c2        1 6CM     -0.298200
      9 C5          3.2780    3.1560    2.4000 c2        1 6CM     -0.077200
     10 C6          3.1800    4.5040    1.7920 c3        1 6CM     -0.081200
     11 C7          2.4410    5.4800    2.6900 c3        1 6CM     -0.079400
     12 C8          2.0890    6.7480    1.9410 c3        1 6CM     -0.083400
     13 C9          1.3910    7.7420    2.8450 c3        1 6CM     -0.080400
     14 C10         1.0220    9.0010    2.0910 c3        1 6CM     -0.079400
     15 C11         0.3220    9.9950    2.9930 c3        1 6CM     -0.079400
     16 C12        -0.0510   11.2530    2.2380 c3        1 6CM     -0.079400
     17 C13        -0.7520   12.2460    3.1400 c3        1 6CM     -0.079400
     18 C14        -1.1260   13.5030    2.3850 c3        1 6CM     -0.079400
     19 C15        -1.8270   14.4970    3.2860 c3        1 6CM     -0.079400
     20 C16        -2.2030   15.7540    2.5300 c3        1 6CM     -0.079400
     21 C17        -2.9040   16.7490    3.4310 c3        1 6CM     -0.079400
     22 C18        -3.2800   18.0010    2.6820 c3        1 6CM     -0.093100
     23 O3          0.5810    3.1700    1.0980 oh        1 6CM     -0.634800
     24 C20         0.7280   -1.4080   -1.0240 c3        1 6CM     -0.164400
     25 C21         1.5390   -0.5140   -1.9380 c3        1 6CM     -0.094400
     26 C22         1.9820   -1.2870   -3.1660 c3        1 6CM     -0.080400
     27 C23         2.8280   -0.4190   -4.0750 c3        1 6CM     -0.079400
     28 C24         3.2640   -1.1800   -5.3010 c3        1 6CM     -0.097100
     29 HN2         1.7380   -0.0230    1.0940 hn        1 6CM      0.478300
     30 H2         -0.8920    1.2390    1.6610 hx        1 6CM      0.130700
     31 H11        -0.0130    0.7470    4.1100 h1        1 6CM      0.075200
     32 H12        -0.7020   -0.6210    3.0930 h1        1 6CM      0.075200
     33 HO1         1.4130   -1.0010    4.1590 ho        1 6CM      0.452000
     34 H3          0.3180    2.8420    3.1540 h1        1 6CM      0.085700
     35 H4          2.5470    1.3020    3.0750 ha        1 6CM      0.147000
     36 H5          4.2960    2.8890    2.7470 ha        1 6CM      0.142000
     37 H61         2.6750    4.4390    0.7890 hc        1 6CM      0.063700
     38 H62         4.2130    4.9030    1.5970 hc        1 6CM      0.063700
     39 H71         1.5060    5.0030    3.0880 hc        1 6CM      0.043700
     40 H72         3.0810    5.7300    3.5770 hc        1 6CM      0.043700
     41 H81         1.4260    6.5000    1.0700 hc        1 6CM      0.044200
     42 H82         3.0230    7.2100    1.5240 hc        1 6CM      0.044200
     43 H91         0.4660    7.2770    3.2760 hc        1 6CM      0.042200
     44 H92         2.0620    8.0030    3.7060 hc        1 6CM      0.042200
     45 H101        0.3530    8.7420    1.2270 hc        1 6CM      0.042200
     46 H102        1.9480    9.4690    1.6630 hc        1 6CM      0.042200
     47 H111        0.9920   10.2580    3.8540 hc        1 6CM      0.041200
     48 H112       -0.6020    9.5270    3.4240 hc        1 6CM      0.041200
     49 H121        0.8740   11.7220    1.8090 hc        1 6CM      0.041200
     50 H122       -0.7190   10.9910    1.3760 hc        1 6CM      0.041200
     51 H131       -1.6750   11.7770    3.5710 hc        1 6CM      0.040700
     52 H132       -0.0820   12.5100    4.0010 hc        1 6CM      0.040700
     53 H141       -1.7950   13.2400    1.5230 hc        1 6CM      0.040700
     54 H142       -0.2030   13.9730    1.9540 hc        1 6CM      0.040700
     55 H151       -2.7500   14.0280    3.7180 hc        1 6CM      0.040200
     56 H152       -1.1570   14.7620    4.1460 hc        1 6CM      0.040200
     57 H161       -2.8730   15.4890    1.6700 hc        1 6CM      0.040200
     58 H162       -1.2800   16.2230    2.0980 hc        1 6CM      0.040200
     59 H171       -3.8250   16.2770    3.8640 hc        1 6CM      0.039200
     60 H172       -2.2330   17.0110    4.2910 hc        1 6CM      0.039200
     61 H181       -2.3720   18.4990    2.2640 hc        1 6CM      0.034033
     62 H182       -3.9690   17.7630    1.8360 hc        1 6CM      0.034033
     63 H183       -3.7950   18.7210    3.3640 hc        1 6CM      0.034033
     64 HO3         0.7040    4.1030    1.3230 ho        1 6CM      0.452000
     65 H201       -0.0730   -1.9380   -1.6160 hc        1 6CM      0.120200
     66 H202        1.3850   -2.2010   -0.5660 hc        1 6CM      0.120200
     67 H211        0.9250    0.3690   -2.2610 hc        1 6CM      0.050200
     68 H212        2.4480   -0.1270   -1.4060 hc        1 6CM      0.050200
     69 H221        1.0820   -1.6520   -3.7270 hc        1 6CM      0.057200
     70 H222        2.5700   -2.1890   -2.8520 hc        1 6CM      0.057200
     71 H231        2.2410    0.4860   -4.3820 hc        1 6CM      0.042700
     72 H232        3.7310   -0.0570   -3.5150 hc        1 6CM      0.042700
     73 H241        3.8710   -2.0740   -5.0170 hc        1 6CM      0.045367
     74 H242        2.3790   -1.5270   -5.8870 hc        1 6CM      0.045367
     75 H243        3.8870   -0.5250   -5.9570 hc        1 6CM      0.045367
     76 H22         1.0560    1.1330    0.0940 hn        1 6CM      0.478300
@<TRIPOS>BOND
     1    1    2 2   
     2    2    3 1   
     3    2   24 1   
     4    3    4 1   
     5    3   29 1   
     6    3   76 1   
     7    4    5 1   
     8    4    7 1   
     9    4   30 1   
    10    5    6 1   
    11    5   31 1   
    12    5   32 1   
    13    6   33 1   
    14    7    8 1   
    15    7   23 1   
    16    7   34 1   
    17    8    9 2   
    18    8   35 1   
    19    9   10 1   
    20    9   36 1   
    21   10   11 1   
    22   10   37 1   
    23   10   38 1   
    24   11   12 1   
    25   11   39 1   
    26   11   40 1   
    27   12   13 1   
    28   12   41 1   
    29   12   42 1   
    30   13   14 1   
    31   13   43 1   
    32   13   44 1   
    33   14   15 1   
    34   14   45 1   
    35   14   46 1   
    36   15   16 1   
    37   15   47 1   
    38   15   48 1   
    39   16   17 1   
    40   16   49 1   
    41   16   50 1   
    42   17   18 1   
    43   17   51 1   
    44   17   52 1   
    45   18   19 1   
    46   18   53 1   
    47   18   54 1   
    48   19   20 1   
    49   19   55 1   
    50   19   56 1   
    51   20   21 1   
    52   20   57 1   
    53   20   58 1   
    54   21   22 1   
    55   21   59 1   
    56   21   60 1   
    57   22   61 1   
    58   22   62 1   
    59   22   63 1   
    60   23   64 1   
    61   24   25 1   
    62   24   65 1   
    63   24   66 1   
    64   25   26 1   
    65   25   67 1   
    66   25   68 1   
    67   26   27 1   
    68   26   69 1   
    69   26   70 1   
    70   27   28 1   
    71   27   71 1   
    72   27   72 1   
    73   28   73 1   
    74   28   74 1   
    75   28   75 1   
@<TRIPOS>SUBSTRUCTURE
     1 6CM         1 TEMP              0 ****  ****    0 ROOT
