@<TRIPOS>MOLECULE
6CN
   33    34     1     0     0
SMALL
bcc


@<TRIPOS>ATOM
      1 O3P         0.0000    0.0000    0.0000 o         1 6CN     -0.704500
      2 P           1.4800    0.0000    0.0000 p5        1 6CN      0.710900
      3 O1P         2.0160    0.0000    1.5180 o         1 6CN     -0.704500
      4 O2P         2.0170   -1.3150   -0.7580 o         1 6CN     -0.704500
      5 O5'         2.0170    1.3140   -0.7590 os        1 6CN     -0.496200
      6 C5'         1.6290    2.6380   -0.3910 c3        1 6CN      0.134400
      7 C4'         2.3190    3.6470   -1.3120 c3        1 6CN      0.207100
      8 C3'         2.0120    5.0900   -0.8540 c3        1 6CN      0.114100
      9 O3'         3.0930    5.6090   -0.0770 oh        1 6CN     -0.590800
     10 C2'         1.8680    5.8800   -2.1750 c3        1 6CN      0.126100
     11 O2'         2.8550    6.9100   -2.2530 oh        1 6CN     -0.594800
     12 O4'         1.7760    3.5610   -2.6480 os        1 6CN     -0.340600
     13 C1'         2.1040    4.8210   -3.2740 c3        1 6CN      0.195500
     14 N1          1.2220    5.0670   -4.4170 n         1 6CN      0.077000
     15 C6          1.7650    5.3490   -5.6520 cc        1 6CN      0.095900
     16 C5          0.9380    5.5760   -6.7110 cd        1 6CN     -0.362200
     17 C4         -0.4650    5.5160   -6.5110 c         1 6CN      0.622700
     18 O4         -1.2260    5.7140   -7.4400 o         1 6CN     -0.721500
     19 N3         -0.9480    5.2360   -5.2850 ns        1 6CN     -0.158500
     20 C2         -0.1130    5.0090   -4.2550 c         1 6CN      0.570500
     21 O2         -0.5720    4.7590   -3.1570 o         1 6CN     -0.661500
     22 C7          3.1860    5.4030   -5.8210 cg        1 6CN      0.203500
     23 N8          4.3120    5.4320   -5.9700 n1        1 6CN     -0.392800
     24 H5'         0.5990    2.3770   -0.1820 h1        1 6CN      0.038200
     25 H5'A        1.9950    2.5640    0.6260 h1        1 6CN      0.038200
     26 H4'         3.3890    3.4790   -1.3300 h1        1 6CN      0.033700
     27 H3'         1.0860    5.1200   -0.2940 h1        1 6CN      0.027700
     28 HO3'        2.8730    5.5540    0.8380 ho        1 6CN      0.390000
     29 H2'         0.8700    6.2950   -2.2580 h1        1 6CN      0.028700
     30 HO2'        2.7970    7.4980   -1.5180 ho        1 6CN      0.395000
     31 H1'         3.1420    4.8270   -3.5830 h2        1 6CN      0.051700
     32 H5          0.9530    6.0590   -7.6800 ha        1 6CN      0.163000
     33 HN3        -1.8640    5.0840   -4.9110 hn        1 6CN      0.206500
@<TRIPOS>BOND
     1    1    2 1   
     2    2    3 1   
     3    2    4 1   
     4    2    5 1   
     5    5    6 1   
     6    6    7 1   
     7    6   24 1   
     8    6   25 1   
     9    7    8 1   
    10    7   12 1   
    11    7   26 1   
    12    8    9 1   
    13    8   10 1   
    14    8   27 1   
    15    9   28 1   
    16   10   11 1   
    17   10   13 1   
    18   10   29 1   
    19   11   30 1   
    20   12   13 1   
    21   13   14 1   
    22   13   31 1   
    23   14   15 1   
    24   14   20 1   
    25   15   16 2   
    26   15   22 1   
    27   16   17 1   
    28   16   32 1   
    29   17   18 2   
    30   17   19 1   
    31   19   20 1   
    32   19   33 1   
    33   20   21 2   
    34   22   23 3   
@<TRIPOS>SUBSTRUCTURE
     1 6CN         1 TEMP              0 ****  ****    0 ROOT
