@<TRIPOS>MOLECULE
6CN
   33    34     1     0     0
SMALL
bcc


@<TRIPOS>ATOM
      1 O3P        -3.5230    1.5800    1.2650 o         1 6CN     -0.929833
      2 P          -3.8920    0.2880    0.5990 p5        1 6CN      1.336900
      3 O1P        -3.3590   -0.9490    1.2980 o         1 6CN     -0.929833
      4 O2P        -5.2430    0.1700   -0.0330 o         1 6CN     -0.929833
      5 O5'        -2.8010    0.2720   -0.7660 os        1 6CN     -0.556200
      6 C5'        -1.4830    0.3530   -0.4140 c3        1 6CN      0.233400
      7 C4'        -0.8180   -1.0420   -0.5050 c3        1 6CN      0.057100
      8 C3'        -0.7060   -1.7740    0.8460 c3        1 6CN      0.138100
      9 O3'        -1.5360   -2.9100    0.8750 oh        1 6CN     -0.688800
     10 C2'         0.7660   -2.2410    0.9490 c3        1 6CN      0.111100
     11 O2'         0.9720   -3.6160    0.6960 oh        1 6CN     -0.625800
     12 O4'         0.5200   -0.9210   -1.0580 os        1 6CN     -0.443600
     13 C1'         1.4950   -1.4560   -0.1870 c3        1 6CN      0.262500
     14 N1          2.4400   -0.3860    0.2250 n         1 6CN     -0.347000
     15 C6          3.2490    0.1580   -0.7780 cc        1 6CN      0.232900
     16 C5          3.8320    1.3920   -0.6960 cd        1 6CN     -0.308200
     17 C4          3.5350    2.2780    0.4340 c         1 6CN      0.719700
     18 O4          3.9820    3.4380    0.5460 o         1 6CN     -0.652500
     19 N3          2.7280    1.7380    1.4330 n         1 6CN     -0.586500
     20 C2          2.1940    0.4280    1.3750 c         1 6CN      0.810500
     21 O2          1.6150    0.0040    2.3900 o         1 6CN     -0.594500
     22 C7          3.5600   -0.6370   -1.9370 cg        1 6CN      0.210500
     23 N8          3.8560   -1.2350   -2.8890 n1        1 6CN     -0.357800
     24 H5'        -0.9350    1.0220   -1.1420 h1        1 6CN      0.000700
     25 H5'A       -1.3640    0.7670    0.6270 h1        1 6CN      0.000700
     26 H4'        -1.3810   -1.6720   -1.2460 h1        1 6CN      0.079700
     27 H3'        -0.9630   -1.0850    1.6980 h1        1 6CN      0.118700
     28 HO3'       -2.4520   -2.5610    1.0230 ho        1 6CN      0.520000
     29 H2'         1.1970   -2.0570    1.9660 h1        1 6CN      0.095700
     30 HO2'        0.1700   -3.9670    0.2840 ho        1 6CN      0.433000
     31 H1'         2.1240   -2.1790   -0.7920 h2        1 6CN      0.070700
     32 H5          4.5140    1.7770   -1.4620 ha        1 6CN      0.166000
     33 HN3         2.4160    2.3110    2.1880 hn        1 6CN      0.351500
@<TRIPOS>BOND
     1    1    2 1   
     2    2    3 1   
     3    2    4 1   
     4    2    5 1   
     5    5    6 1   
     6    6    7 1   
     7    6   24 1   
     8    6   25 1   
     9    7    8 1   
    10    7   12 1   
    11    7   26 1   
    12    8    9 1   
    13    8   10 1   
    14    8   27 1   
    15    9   28 1   
    16   10   11 1   
    17   10   13 1   
    18   10   29 1   
    19   11   30 1   
    20   12   13 1   
    21   13   14 1   
    22   13   31 1   
    23   14   15 1   
    24   14   20 1   
    25   15   16 2   
    26   15   22 1   
    27   16   17 1   
    28   16   32 1   
    29   17   18 2   
    30   17   19 1   
    31   19   20 1   
    32   19   33 1   
    33   20   21 2   
    34   22   23 3   
@<TRIPOS>SUBSTRUCTURE
     1 6CN         1 TEMP              0 ****  ****    0 ROOT
