@<TRIPOS>MOLECULE
6CN
   33    32     1     0     0
SMALL
bcc


@<TRIPOS>ATOM
      1 O3P        -0.7160   -2.6430    3.2110 o         1 6CN     -1.061000
      2 P           0.6560   -2.8690    2.6230 p3        1 6CN      2.564000
      3 O1P         1.6000   -3.3260    3.7100 o         1 6CN     -1.061000
      4 O2P         0.5760   -3.9260    1.5480 o         1 6CN     -1.061000
      5 O5'         1.1900   -1.5190    1.9960 o         1 6CN     -0.766000
      6 C5'         0.6020   -1.0540    0.8020 c3        1 6CN      0.011000
      7 C4'         1.6580   -0.5420   -0.1020 c3        1 6CN     -0.069000
      8 C3'         2.1190    0.6150    0.3450 c3        1 6CN      0.164000
      9 O3'         3.5380    0.7740   -0.0170 oh        1 6CN     -0.715000
     10 C2'         1.2620    1.6870   -0.3660 c3        1 6CN     -0.071000
     11 O2'         2.0410    2.6230   -0.8940 oh        1 6CN     -0.379000
     12 O4'         1.0370   -0.2460   -1.5800 os        1 6CN     -0.307000
     13 C1'         0.4760    0.9200   -1.5060 c3        1 6CN      0.129000
     14 N1         -0.8980    0.7850   -1.1540 n         1 6CN     -0.248000
     15 C6         -1.5950   -0.4120   -1.4630 c2        1 6CN      0.174000
     16 C5         -2.9760   -0.5960   -0.9910 c1        1 6CN     -0.296000
     17 C4         -3.6250    0.4620   -0.2020 c2        1 6CN      0.354000
     18 O4         -4.7860    0.3430    0.1350 o         1 6CN     -0.385000
     19 N3         -2.9200    1.6570    0.0920 n         1 6CN     -0.331000
     20 C2         -1.5830    1.8700   -0.4550 c2        1 6CN      0.408000
     21 O2         -1.0550    2.9590   -0.3620 o         1 6CN     -0.320000
     22 C7         -0.9600   -1.4450   -2.3690 c1        1 6CN     -0.070000
     23 N8         -0.4820   -2.2230   -3.0510 n1        1 6CN     -0.065000
     24 H5'        -0.0290   -0.3340    1.0070 h1        1 6CN      0.077500
     25 H5'A        0.1260   -1.7910    0.3640 h1        1 6CN      0.077500
     26 H4'         2.3870   -1.1910   -0.1690 h1        1 6CN      0.111000
     27 H3'         2.0050    0.6760    1.3140 h1        1 6CN     -0.012000
     28 HO3'        4.0090    0.9720    0.7110 ho        1 6CN      0.238000
     29 H2'         0.6330    2.0880    0.2650 h1        1 6CN      0.104000
     30 HO2'        1.9310    3.3870   -0.4490 ho        1 6CN      0.234000
     31 H1'         0.5640    1.3930   -2.3570 h2        1 6CN      0.101000
     32 H5         -3.4880   -1.3770   -1.2740 DU        1 6CN      0.153000
     33 HN3        -3.2940    2.2840    0.6390 hn        1 6CN      0.316000
@<TRIPOS>BOND
     1    1    2 1   
     2    2    3 1   
     3    2    4 1   
     4    5    6 1   
     5    6    7 1   
     6    6   24 1   
     7    6   25 1   
     8    7    8 1   
     9    7   12 1   
    10    7   26 1   
    11    8    9 1   
    12    8   10 1   
    13    8   27 1   
    14    9   28 1   
    15   10   11 1   
    16   10   13 1   
    17   10   29 1   
    18   11   30 1   
    19   12   13 1   
    20   13   14 1   
    21   13   31 1   
    22   14   15 1   
    23   14   20 1   
    24   15   16 1   
    25   15   22 1   
    26   16   17 1   
    27   17   18 1   
    28   17   19 1   
    29   19   20 1   
    30   19   33 1   
    31   20   21 1   
    32   22   23 1   
@<TRIPOS>SUBSTRUCTURE
     1 6CN         1 TEMP              0 ****  ****    0 ROOT
