@<TRIPOS>MOLECULE
6CP
   45    40     1     0     0
SMALL
bcc


@<TRIPOS>ATOM
      1 C2         -2.3250   -0.2600   -0.1840 c1        1 6CP      0.162000
      2 C8         -1.6640   -0.4510    4.2650 c1        1 6CP     -0.015000
      3 C10         1.9350    0.5520    0.5280 c3        1 6CP     -0.009000
      4 C11         3.1030   -0.0310    0.8650 c3        1 6CP     -0.106000
      5 C12         4.0980   -0.1230   -0.3710 c3        1 6CP     -0.151000
      6 C13         4.3570    1.2230   -1.0300 c3        1 6CP     -0.156000
      7 C14         4.0400    2.2480   -0.2070 c3        1 6CP     -0.155000
      8 C15         4.2720    2.2790    1.1320 c3        1 6CP     -0.156000
      9 C16         4.0190    0.9350    1.7700 c3        1 6CP     -0.151000
     10 C19        -5.4080   -2.6910   -2.4490 c1        1 6CP     -0.048000
     11 C20        -5.2200   -2.4100   -3.7940 c1        1 6CP     -0.126000
     12 C21        -4.4390   -1.3290   -4.1730 c1        1 6CP     -0.126000
     13 C22        -3.8460   -0.5300   -3.2090 c1        1 6CP     -0.106000
     14 N1         -0.9740   -0.0610   -0.1710 n1        1 6CP     -0.264000
     15 C6         -0.3100   -0.0330    0.9960 c1        1 6CP      0.217000
     16 O6          0.9650    0.2690    1.5170 o         1 6CP     -0.214000
     17 C5         -0.9960   -0.2070    2.1890 c1        1 6CP     -0.200000
     18 N7         -0.5810   -0.2360    3.4830 n1        1 6CP     -0.202000
     19 N9         -2.7460   -0.5550    3.4610 n2        1 6CP     -0.131000
     20 C4         -2.3310   -0.4030    2.1750 c1        1 6CP      0.055000
     21 N3         -3.0020   -0.4310    0.9890 n1        1 6CP     -0.183000
     22 N2         -3.5180    0.0710   -0.8770 n3        1 6CP     -0.221000
     23 C17        -4.0340   -0.8100   -1.8630 c2        1 6CP      0.056000
     24 C18        -4.8150   -1.8910   -1.4840 c2        1 6CP     -0.162000
     25 CL1        -6.4080   -4.0370   -1.9710 cl        1 6CP     -0.016000
     26 H8         -1.6670   -0.4980    5.2390 DU        1 6CP      0.237000
     27 H101        2.0610    1.5200    0.4620 h1        1 6CP      0.099000
     28 H102        1.6330    0.2020   -0.3370 h1        1 6CP      0.099000
     29 H11         2.9700   -0.9030    1.2870 hc        1 6CP      0.099000
     30 H121        3.7170   -0.7300   -1.0360 hc        1 6CP      0.084000
     31 H122        4.9490   -0.4900   -0.0620 hc        1 6CP      0.084000
     32 H131        3.8190    1.2890   -1.8440 hc        1 6CP      0.080000
     33 H132        5.3060    1.2860   -1.2680 hc        1 6CP      0.080000
     34 H141        3.0780    2.3920   -0.3170 hc        1 6CP      0.079500
     35 H142        4.4880    3.0390   -0.5770 hc        1 6CP      0.079500
     36 H151        3.6830    2.9430    1.5430 hc        1 6CP      0.080000
     37 H152        5.2040    2.5370    1.2890 hc        1 6CP      0.080000
     38 H161        3.5740    1.0740    2.6300 hc        1 6CP      0.084000
     39 H162        4.8780    0.4960    1.9280 hc        1 6CP      0.084000
     40 H20        -5.6370   -2.9730   -4.4730 ha        1 6CP      0.143000
     41 H21        -4.3060   -1.1320   -5.1200 ha        1 6CP      0.143000
     42 H22        -3.2960    0.2310   -3.4760 ha        1 6CP      0.155000
     43 H7          0.2760   -0.1290    3.7740 DU        1 6CP      0.237000
     44 H2         -3.9520    0.8510   -0.6900 hn        1 6CP      0.234000
     45 H18        -4.9480   -2.0890   -0.5380 ha        1 6CP      0.150000
@<TRIPOS>BOND
     1    1   21 1   
     2    1   22 1   
     3    2   18 1   
     4    2   19 1   
     5    3    4 1   
     6    3   16 1   
     7    3   27 1   
     8    3   28 1   
     9    4    5 1   
    10    4    9 1   
    11    4   29 1   
    12    5    6 1   
    13    5   30 1   
    14    5   31 1   
    15    6    7 1   
    16    6   32 1   
    17    6   33 1   
    18    7    8 1   
    19    7   34 1   
    20    7   35 1   
    21    8    9 1   
    22    8   36 1   
    23    8   37 1   
    24    9   38 1   
    25    9   39 1   
    26   10   24 1   
    27   10   25 1   
    28   11   12 1   
    29   11   40 1   
    30   12   41 1   
    31   13   23 1   
    32   13   42 1   
    33   14   15 1   
    34   15   17 1   
    35   17   20 1   
    36   19   20 1   
    37   22   23 1   
    38   22   44 1   
    39   23   24 1   
    40   24   45 1   
@<TRIPOS>SUBSTRUCTURE
     1 6CP         1 TEMP              0 ****  ****    0 ROOT
