@<TRIPOS>MOLECULE
6CP
   45    48     1     0     0
SMALL
bcc


@<TRIPOS>ATOM
      1 C2          0.9510   -0.4310    0.5830 ca        1 6CP      0.879900
      2 C8         -0.8510   -4.4110   -0.2160 cc        1 6CP      0.438700
      3 C10        -3.0090    0.8830    0.4360 c3        1 6CP      0.141400
      4 C11        -4.5280    0.9600    0.3150 c3        1 6CP     -0.072700
      5 C12        -5.0140    2.2680    0.9240 c3        1 6CP     -0.073400
      6 C13        -6.5180    2.4000    0.7910 c3        1 6CP     -0.075900
      7 C14        -6.9610    2.2720   -0.6520 c3        1 6CP     -0.078400
      8 C15        -6.4670    0.9790   -1.2670 c3        1 6CP     -0.075900
      9 C16        -4.9630    0.8490   -1.1380 c3        1 6CP     -0.073400
     10 C19         5.2670    1.2870   -0.4930 ca        1 6CP      0.030400
     11 C20         6.0290    0.2250   -0.0010 ca        1 6CP     -0.133000
     12 C21         5.4090   -0.7450    0.7820 ca        1 6CP     -0.113000
     13 C22         4.0510   -0.6690    1.0830 ca        1 6CP     -0.099000
     14 N1         -0.3680    0.0500    0.5250 nb        1 6CP     -0.806000
     15 C6         -1.3430   -0.8460    0.3050 ca        1 6CP      0.718600
     16 O6         -2.6730   -0.5050    0.2340 os        1 6CP     -0.455100
     17 C5         -1.0480   -2.2190    0.1190 ca        1 6CP     -0.375800
     18 N7         -1.7860   -3.3740   -0.1280 na        1 6CP     -0.243300
     19 N9          0.4280   -4.0190   -0.0460 nd        1 6CP     -0.636700
     20 C4          0.3580   -2.6190    0.1730 ca        1 6CP      0.599300
     21 N3          1.3630   -1.7280    0.4000 nb        1 6CP     -0.695000
     22 N2          1.9150    0.5520    0.9340 nh        1 6CP     -0.696300
     23 C17         3.2780    0.3970    0.5790 ca        1 6CP      0.132600
     24 C18         3.9030    1.3820   -0.2200 ca        1 6CP     -0.165000
     25 H8         -1.1560   -5.4490   -0.4080 h5        1 6CP      0.074800
     26 H101       -2.6690    1.1980    1.4560 h1        1 6CP      0.057700
     27 H102       -2.5030    1.5050   -0.3460 h1        1 6CP      0.057700
     28 H11        -4.9760    0.1020    0.8900 hc        1 6CP      0.064700
     29 H121       -4.7280    2.3090    2.0070 hc        1 6CP      0.044450
     30 H122       -4.5130    3.1280    0.4070 hc        1 6CP      0.044450
     31 H131       -7.0180    1.6060    1.4060 hc        1 6CP      0.041200
     32 H132       -6.8400    3.3940    1.1970 hc        1 6CP      0.041200
     33 H141       -8.0800    2.3110   -0.7060 hc        1 6CP      0.041200
     34 H142       -6.5660    3.1410   -1.2420 hc        1 6CP      0.041200
     35 H151       -6.9630    0.1100   -0.7590 hc        1 6CP      0.041200
     36 H152       -6.7530    0.9440   -2.3500 hc        1 6CP      0.041200
     37 H161       -4.4640    1.6530   -1.7410 hc        1 6CP      0.044450
     38 H162       -4.6270   -0.1390   -1.5470 hc        1 6CP      0.044450
     39 H20         7.1030    0.1550   -0.2290 ha        1 6CP      0.148000
     40 H21         6.0000   -1.5870    1.1740 ha        1 6CP      0.141000
     41 H22         3.5920   -1.4480    1.7110 ha        1 6CP      0.165000
     42 H7         -2.7650   -3.4230   -0.2170 hn        1 6CP      0.319700
     43 H2          1.5830    1.4920    0.8250 hn        1 6CP      0.430800
     44 H18         3.3240    2.2260   -0.6260 ha        1 6CP      0.145000
     45 CL1         6.0080    2.4850   -1.4480 cl        1 6CP     -0.099400
@<TRIPOS>BOND
     1    1   14 ar  
     2    1   21 ar  
     3    1   22 1   
     4    2   18 1   
     5    2   19 2   
     6    2   25 1   
     7    3    4 1   
     8    3   16 1   
     9    3   26 1   
    10    3   27 1   
    11    4    5 1   
    12    4    9 1   
    13    4   28 1   
    14    5    6 1   
    15    5   29 1   
    16    5   30 1   
    17    6    7 1   
    18    6   31 1   
    19    6   32 1   
    20    7    8 1   
    21    7   33 1   
    22    7   34 1   
    23    8    9 1   
    24    8   35 1   
    25    8   36 1   
    26    9   37 1   
    27    9   38 1   
    28   10   11 ar  
    29   10   24 ar  
    30   10   45 1   
    31   11   12 ar  
    32   11   39 1   
    33   12   13 ar  
    34   12   40 1   
    35   13   23 ar  
    36   13   41 1   
    37   14   15 ar  
    38   15   16 1   
    39   15   17 ar  
    40   17   18 1   
    41   17   20 ar  
    42   18   42 1   
    43   19   20 1   
    44   20   21 ar  
    45   22   23 1   
    46   22   43 1   
    47   23   24 ar  
    48   24   44 1   
@<TRIPOS>SUBSTRUCTURE
     1 6CP         1 TEMP              0 ****  ****    0 ROOT
