@<TRIPOS>MOLECULE
6CP
   45    46     1     0     0
SMALL
bcc


@<TRIPOS>ATOM
      1 C2         -0.4920    0.7870    0.4960 c2        1 6CP      0.179000
      2 C8          0.1110   -0.4280    4.8290 c1        1 6CP      0.048000
      3 C10         3.8140    2.7040   -1.0840 c2        1 6CP     -0.187000
      4 C11         4.8640    1.9620   -0.8990 c1        1 6CP     -0.179000
      5 C12         8.7510   -2.2690   -0.4380 c3        1 6CP     -0.211000
      6 C13         8.3330   -0.8270   -0.5570 c3        1 6CP     -0.160000
      7 C14         7.2880   -0.6400   -1.6370 c3        1 6CP     -0.157000
      8 C15         6.8520    0.8050   -1.7800 c3        1 6CP     -0.121000
      9 C16         5.9170    1.2200   -0.7030 c2        1 6CP     -0.117000
     10 C19        -4.7640    0.0950   -0.7320 c2        1 6CP     -0.105000
     11 C20        -4.8700   -0.5580   -1.9140 c2        1 6CP     -0.129000
     12 C21        -3.6900   -0.6950   -2.7920 c3        1 6CP     -0.195000
     13 C22        -2.4360   -0.1270   -2.3350 c1        1 6CP     -0.111000
     14 N1          0.8730    1.0670    0.5270 n2        1 6CP     -0.295000
     15 C6          1.5290    0.8620    1.6940 c2        1 6CP      0.222000
     16 O6          2.8680    1.1230    1.8010 oh        1 6CP     -0.245000
     17 C5          0.8700    0.3660    2.8340 c2        1 6CP     -0.210000
     18 N7          1.2210    0.0350    4.1570 nu        1 6CP     -0.218000
     19 N9         -0.9700   -0.4010    3.9470 nu        1 6CP     -0.254000
     20 C4         -0.5530    0.0870    2.6880 c2        1 6CP      0.091000
     21 N3         -1.2480    0.2820    1.5440 n2        1 6CP     -0.232000
     22 N2         -1.1480    1.1290   -0.7120 nu        1 6CP     -0.193000
     23 C17        -2.3870    0.5330   -1.0620 c2        1 6CP     -0.064000
     24 C18        -3.5180    0.6640   -0.2830 c2        1 6CP     -0.002000
     25 H8         -1.8920   -0.6810    4.1590 hn        1 6CP      0.269000
     26 H101        3.2120    1.4590    0.9500 ho        1 6CP      0.258000
     27 H102        3.8550    3.8020   -1.0340 ha        1 6CP      0.138000
     28 H11         2.8230    2.2790   -1.3070 ha        1 6CP      0.138000
     29 H121        7.8760   -2.9140   -0.1790 hc        1 6CP      0.072667
     30 H122        9.5230   -2.3850    0.3610 hc        1 6CP      0.072667
     31 H131        9.1830   -2.6360   -1.4010 hc        1 6CP      0.072667
     32 H132        7.9260   -0.4710    0.4270 hc        1 6CP      0.077500
     33 H141        9.2290   -0.1930   -0.7900 hc        1 6CP      0.077500
     34 H142        7.7110   -0.9870   -2.6180 hc        1 6CP      0.083500
     35 H151        6.3970   -1.2840   -1.4140 hc        1 6CP      0.083500
     36 H152        7.7540    1.4760   -1.7470 hc        1 6CP      0.090500
     37 H161        6.3710    0.9440   -2.7850 hc        1 6CP      0.090500
     38 H162        6.1670    0.8660    0.3140 ha        1 6CP      0.139000
     39 H20        -3.4960   -1.7920   -3.0030 hc        1 6CP      0.174000
     40 H21        -5.8170   -1.0020   -2.2570 ha        1 6CP      0.149000
     41 H22        -3.9110   -0.2270   -3.8000 hc        1 6CP      0.174000
     42 H7          2.1330    0.1320    4.5210 hn        1 6CP      0.271000
     43 H2         -0.5290    1.1900   -1.5030 hn        1 6CP      0.246000
     44 H18        -3.5170    1.1900    0.6880 ha        1 6CP      0.173000
     45 Cl1        -6.1110    0.2770    0.2930 cl        1 6CP     -0.008000
@<TRIPOS>BOND
     1    1   14 1   
     2    1   21 1   
     3    1   22 1   
     4    2   18 1   
     5    2   19 1   
     6    3    4 1   
     7    3   27 1   
     8    3   28 1   
     9    4    9 1   
    10    5    6 1   
    11    5   29 1   
    12    5   30 1   
    13    5   31 1   
    14    6    7 1   
    15    6   32 1   
    16    6   33 1   
    17    7    8 1   
    18    7   34 1   
    19    7   35 1   
    20    8    9 1   
    21    8   36 1   
    22    8   37 1   
    23    9   38 1   
    24   10   11 1   
    25   10   24 1   
    26   10   45 1   
    27   11   12 1   
    28   11   40 1   
    29   12   13 1   
    30   12   39 1   
    31   12   41 1   
    32   13   23 1   
    33   14   15 1   
    34   15   16 1   
    35   15   17 1   
    36   16   26 1   
    37   17   18 1   
    38   17   20 1   
    39   18   42 1   
    40   19   20 1   
    41   19   25 1   
    42   20   21 1   
    43   22   23 1   
    44   22   43 1   
    45   23   24 1   
    46   24   44 1   
@<TRIPOS>SUBSTRUCTURE
     1 6CP         1 TEMP              0 ****  ****    0 ROOT
