@<TRIPOS>MOLECULE
6CP
   45    48     1     0     0
SMALL
bcc


@<TRIPOS>ATOM
      1 C2         -0.2050   -0.0560    0.4910 ca        1 6CP      0.917900
      2 C8          0.2720   -1.4440    4.7800 c1        1 6CP      0.050000
      3 C10         4.8170    0.8130   -1.3480 cx        1 6CP     -0.139400
      4 C11         5.7160   -0.2830   -0.8380 cx        1 6CP     -0.118700
      5 C12         6.8610   -0.7500   -1.6830 c3        1 6CP     -0.048900
      6 C13         8.1200    0.0680   -1.4740 c3        1 6CP     -0.076400
      7 C14         7.8320    1.5540   -1.5170 c3        1 6CP     -0.076400
      8 C15         6.9360    1.9760   -0.3700 c3        1 6CP     -0.048900
      9 C16         5.7460    1.0870   -0.1980 cx        1 6CP     -0.118700
     10 C19        -4.0460    0.0470   -2.2730 c2        1 6CP      0.022200
     11 C20        -4.9140   -0.1820   -1.0540 c3        1 6CP     -0.027000
     12 C21        -4.4220    0.7040    0.0560 c2        1 6CP     -0.184300
     13 C22        -3.1100    0.8530    0.0540 c1        1 6CP     -0.059800
     14 N1          1.1890   -0.0520    0.4730 nb        1 6CP     -0.828000
     15 C6          1.8230   -0.4230    1.6110 ca        1 6CP      0.715600
     16 O6          3.1920   -0.4480    1.6700 oh        1 6CP     -0.615300
     17 C5          1.1140   -0.7930    2.7670 ca        1 6CP     -0.381800
     18 N7          1.4320   -1.2130    4.0720 nh        1 6CP     -0.223500
     19 N9         -0.8080   -1.1780    3.9390 nh        1 6CP     -0.364200
     20 C4         -0.3410   -0.7660    2.6700 ca        1 6CP      0.479800
     21 N3         -1.0210   -0.4150    1.5530 nb        1 6CP     -0.711000
     22 N2         -0.8110    0.3470   -0.7110 nh        1 6CP     -0.702700
     23 C17        -2.1620    0.5840   -0.8680 ce        1 6CP      0.124900
     24 C18        -2.7670    0.4940   -2.2260 ce        1 6CP     -0.157000
     25 H8         -1.7620   -1.2520    4.1830 hn        1 6CP      0.321700
     26 H101        3.5650   -0.1660    0.8130 ho        1 6CP      0.453000
     27 H102        3.7300    0.7520   -1.1600 hc        1 6CP      0.072700
     28 H11         5.0380    1.2650   -2.3320 hc        1 6CP      0.072700
     29 H121        5.2480   -1.1050   -0.2580 hc        1 6CP      0.072700
     30 H122        6.5610   -0.7000   -2.7650 hc        1 6CP      0.044200
     31 H131        7.0830   -1.8260   -1.4520 hc        1 6CP      0.044200
     32 H132        8.5770   -0.1930   -0.4830 hc        1 6CP      0.041200
     33 H141        8.8660   -0.1950   -2.2690 hc        1 6CP      0.041200
     34 H142        8.7950    2.1260   -1.4630 hc        1 6CP      0.041200
     35 H151        7.3430    1.8110   -2.4940 hc        1 6CP      0.041200
     36 H152        7.5330    1.9640    0.5830 hc        1 6CP      0.044200
     37 H161        6.5890    3.0300   -0.5340 hc        1 6CP      0.044200
     38 H162        5.2940    1.1900    0.8110 hc        1 6CP      0.072700
     39 H20        -5.9770    0.0950   -1.2820 hc        1 6CP      0.082700
     40 H21        -4.8910   -1.2740   -0.7950 hc        1 6CP      0.082700
     41 H22        -5.1390    1.2340    0.6870 ha        1 6CP      0.154000
     42 H7          2.3550   -1.3150    4.4050 hn        1 6CP      0.320700
     43 H2         -0.2230    0.4730   -1.5060 hn        1 6CP      0.463800
     44 H18        -2.1590    0.6940   -3.1160 ha        1 6CP      0.152000
     45 CL1        -4.7740   -0.3160   -3.7630 cl        1 6CP     -0.091400
@<TRIPOS>BOND
     1    1   14 ar  
     2    1   21 ar  
     3    1   22 1   
     4    2   18 2   
     5    2   19 2   
     6    3    4 1   
     7    3    9 1   
     8    3   27 1   
     9    3   28 1   
    10    4    5 1   
    11    4    9 1   
    12    4   29 1   
    13    5    6 1   
    14    5   30 1   
    15    5   31 1   
    16    6    7 1   
    17    6   32 1   
    18    6   33 1   
    19    7    8 1   
    20    7   34 1   
    21    7   35 1   
    22    8    9 1   
    23    8   36 1   
    24    8   37 1   
    25    9   38 1   
    26   10   11 1   
    27   10   24 2   
    28   10   45 1   
    29   11   12 1   
    30   11   39 1   
    31   11   40 1   
    32   12   13 2   
    33   12   41 1   
    34   13   23 2   
    35   14   15 ar  
    36   15   16 1   
    37   15   17 ar  
    38   16   26 1   
    39   17   18 1   
    40   17   20 ar  
    41   18   42 1   
    42   19   20 1   
    43   19   25 1   
    44   20   21 ar  
    45   22   23 1   
    46   22   43 1   
    47   23   24 1   
    48   24   44 1   
@<TRIPOS>SUBSTRUCTURE
     1 6CP         1 TEMP              0 ****  ****    0 ROOT
