@<TRIPOS>MOLECULE
6CR
   33    35     1     0     0
SMALL
bcc


@<TRIPOS>ATOM
      1 N1         -0.2240    0.2380    0.4100 nb        1 6CR     -0.695000
      2 C2          1.1200    0.5350    0.3410 ca        1 6CR      0.690900
      3 N3          2.1040    0.3640    1.2720 nb        1 6CR     -0.638000
      4 C4          1.6360   -0.1910    2.4220 ca        1 6CR      0.418800
      5 C5          0.2200   -0.5650    2.6320 ca        1 6CR     -0.093200
      6 C6         -0.6720   -0.3130    1.5600 ca        1 6CR      0.592300
      7 N7          0.0680   -1.1170    3.9010 nc        1 6CR     -0.509100
      8 C8          1.3020   -1.0920    4.4490 cd        1 6CR      0.486700
      9 N9          2.2900   -0.5340    3.6100 na        1 6CR     -0.257000
     10 C1'         3.7240   -0.4290    3.8580 c3        1 6CR      0.212800
     11 CL1        -2.3060   -0.7020    1.7100 cl        1 6CR     -0.020000
     12 C2'         4.2630    1.0410    3.8460 c3        1 6CR      0.092100
     13 O2'         5.2600    1.1730    2.8670 oh        1 6CR     -0.580800
     14 N20         1.5600    1.1350   -0.9550 n4        1 6CR     -0.809300
     15 C3'         4.7840    1.2800    5.2820 c3        1 6CR      0.086100
     16 O3'         6.1930    1.4030    5.2620 oh        1 6CR     -0.586800
     17 C4'         4.4430    0.0030    6.0680 c3        1 6CR      0.085100
     18 O4'         4.0230   -1.0010    5.1260 os        1 6CR     -0.396600
     19 C5'         3.3250    0.2280    7.0910 c3        1 6CR      0.111400
     20 O5'         3.6080    1.3390    7.9080 oh        1 6CR     -0.583800
     21 H8          1.5610   -1.4700    5.4530 h5        1 6CR      0.115800
     22 H1'         4.2540   -1.0670    3.0860 h2        1 6CR      0.118700
     23 H2'         3.4740    1.7870    3.5620 h1        1 6CR      0.099700
     24 HO2'        6.0750    0.7640    3.2020 ho        1 6CR      0.436000
     25 HN20        1.3930    0.4560   -1.7080 hn        1 6CR      0.480800
     26 HN2A        2.5610    1.3690   -0.9150 hn        1 6CR      0.480800
     27 H3'         4.3010    2.1790    5.7520 h1        1 6CR      0.099700
     28 HO3'        6.3980    2.3310    5.0870 ho        1 6CR      0.429000
     29 H4'         5.3620   -0.4260    6.5580 h1        1 6CR      0.116700
     30 H5'         2.3630    0.4880    6.5710 h1        1 6CR      0.059200
     31 H5'A        3.1800   -0.7050    7.6970 h1        1 6CR      0.059200
     32 HO5'        4.3080    1.0820    8.5240 ho        1 6CR      0.418000
     33 H203        1.0110    1.9850   -1.1340 hn        1 6CR      0.480800
@<TRIPOS>BOND
     1    1    2 ar  
     2    1    6 ar  
     3    2    3 ar  
     4    2   14 1   
     5    3    4 ar  
     6    4    5 ar  
     7    4    9 1   
     8    5    6 ar  
     9    5    7 1   
    10    6   11 1   
    11    7    8 2   
    12    8    9 1   
    13    8   21 1   
    14    9   10 1   
    15   10   12 1   
    16   10   18 1   
    17   10   22 1   
    18   12   13 1   
    19   12   15 1   
    20   12   23 1   
    21   13   24 1   
    22   14   25 1   
    23   14   26 1   
    24   14   33 1   
    25   15   16 1   
    26   15   17 1   
    27   15   27 1   
    28   16   28 1   
    29   17   18 1   
    30   17   19 1   
    31   17   29 1   
    32   19   20 1   
    33   19   30 1   
    34   19   31 1   
    35   20   32 1   
@<TRIPOS>SUBSTRUCTURE
     1 6CR         1 TEMP              0 ****  ****    0 ROOT
