@<TRIPOS>MOLECULE
6CR
   32    34     1     0     0
SMALL
bcc


@<TRIPOS>ATOM
      1 N1         -0.2190    0.2820    0.5610 nb        1 6CR     -0.757000
      2 C2          1.1450    0.5800    0.4230 ca        1 6CR      0.901900
      3 N3          2.1280    0.3920    1.3820 nb        1 6CR     -0.778000
      4 C4          1.6480   -0.0930    2.5550 ca        1 6CR      0.469800
      5 C5          0.2420   -0.4170    2.8140 ca        1 6CR     -0.201200
      6 C6         -0.6450   -0.1970    1.7380 ca        1 6CR      0.623300
      7 N7          0.0970   -0.9020    4.1240 nc        1 6CR     -0.512100
      8 C8          1.3310   -0.8810    4.6440 cd        1 6CR      0.426700
      9 N9          2.3200   -0.3960    3.7490 na        1 6CR     -0.302000
     10 C1'         3.7500   -0.2990    3.9420 c3        1 6CR      0.230800
     11 CL1        -2.2960   -0.5590    1.9360 cl        1 6CR     -0.106000
     12 C2'         4.3020    1.1590    3.8010 c3        1 6CR      0.080100
     13 O2'         5.4520    1.1300    2.9840 oh        1 6CR     -0.591800
     14 N20         1.5300    1.1750   -0.7790 nh        1 6CR     -0.926500
     15 C3'         4.7310    1.5680    5.2290 c3        1 6CR      0.134100
     16 O3'         6.0450    2.0580    5.3050 oh        1 6CR     -0.571800
     17 C4'         4.5330    0.3070    6.0910 c3        1 6CR      0.051100
     18 O4'         4.1120   -0.7730    5.2400 os        1 6CR     -0.416600
     19 C5'         3.4850    0.5080    7.1840 c3        1 6CR      0.115400
     20 O5'         3.3720   -0.6340    8.0050 oh        1 6CR     -0.588800
     21 H8          1.6080   -1.2000    5.6570 h5        1 6CR      0.082800
     22 H1'         4.2610   -0.9940    3.2080 h2        1 6CR      0.106700
     23 H2'         3.5380    1.8710    3.3930 h1        1 6CR      0.085700
     24 HO2'        5.1470    1.1660    2.0680 ho        1 6CR      0.430000
     25 HN20        0.8900    1.1150   -1.5370 hn        1 6CR      0.433800
     26 HN2A        2.4960    1.1480   -1.0080 hn        1 6CR      0.433800
     27 H3'         4.0920    2.4160    5.6020 h1        1 6CR      0.096700
     28 HO3'        6.6220    1.4620    4.8060 ho        1 6CR      0.426000
     29 H4'         5.5040   -0.0390    6.5420 h1        1 6CR      0.102700
     30 H5'         2.4890    0.7510    6.7240 h1        1 6CR      0.057700
     31 H5'A        3.8010    1.3350    7.8750 h1        1 6CR      0.057700
     32 HO5'        3.2400   -1.3950    7.4230 ho        1 6CR      0.408000
@<TRIPOS>BOND
     1    1    2 ar  
     2    1    6 ar  
     3    2    3 ar  
     4    2   14 1   
     5    3    4 ar  
     6    4    5 ar  
     7    4    9 1   
     8    5    6 ar  
     9    5    7 1   
    10    6   11 1   
    11    7    8 2   
    12    8    9 1   
    13    8   21 1   
    14    9   10 1   
    15   10   12 1   
    16   10   18 1   
    17   10   22 1   
    18   12   13 1   
    19   12   15 1   
    20   12   23 1   
    21   13   24 1   
    22   14   25 1   
    23   14   26 1   
    24   15   16 1   
    25   15   17 1   
    26   15   27 1   
    27   16   28 1   
    28   17   18 1   
    29   17   19 1   
    30   17   29 1   
    31   19   20 1   
    32   19   30 1   
    33   19   31 1   
    34   20   32 1   
@<TRIPOS>SUBSTRUCTURE
     1 6CR         1 TEMP              0 ****  ****    0 ROOT
