@<TRIPOS>MOLECULE
6CR
   32    34     1     0     0
SMALL
bcc


@<TRIPOS>ATOM
      1 N1         -0.2740    0.3490    0.6830 nb        1 6CR     -0.758000
      2 C2          1.0730    0.6950    0.5050 ca        1 6CR      0.895900
      3 N3          2.1040    0.4770    1.4060 nb        1 6CR     -0.776000
      4 C4          1.6910   -0.0940    2.5660 ca        1 6CR      0.465800
      5 C5          0.3070   -0.4740    2.8660 ca        1 6CR     -0.197200
      6 C6         -0.6330   -0.2140    1.8460 ca        1 6CR      0.619300
      7 N7          0.2350   -1.0430    4.1490 nc        1 6CR     -0.524100
      8 C8          1.4900   -1.0200    4.6150 cd        1 6CR      0.429700
      9 N9          2.4230   -0.4490    3.7080 na        1 6CR     -0.303000
     10 C1'         3.8560   -0.3340    3.8600 c3        1 6CR      0.220800
     11 Cl1        -2.2640   -0.6370    2.0910 cl        1 6CR     -0.111000
     12 C2'         4.3860    1.1370    3.7720 c3        1 6CR      0.079100
     13 O2'         5.4970    1.1720    2.9030 oh        1 6CR     -0.589800
     14 N20         1.3880    1.3790   -0.6730 nv        1 6CR     -0.923500
     15 C3'         4.8760    1.4740    5.2000 c3        1 6CR      0.129100
     16 O3'         6.2380    1.8090    5.2700 oh        1 6CR     -0.572800
     17 C4'         4.5530    0.2170    6.0390 c3        1 6CR      0.091100
     18 O4'         4.2610   -0.8520    5.1280 os        1 6CR     -0.383600
     19 C5'         3.3710    0.4790    6.9710 c3        1 6CR      0.106400
     20 O5'         3.0180   -0.7560    7.5700 oh        1 6CR     -0.590800
     21 H8          1.8340   -1.3900    5.5960 h5        1 6CR      0.105800
     22 H1'         4.3590   -0.9910    3.0880 h2        1 6CR      0.106700
     23 H2'         3.5950    1.8590    3.4400 h1        1 6CR      0.082700
     24 HO2'        5.1470    1.2040    2.0030 ho        1 6CR      0.429000
     25 HN20        2.3420    1.3780   -0.9490 hn        1 6CR      0.430300
     26 HN2A        0.7170    1.3320   -1.4060 hn        1 6CR      0.430300
     27 H3'         4.3420    2.3800    5.5990 h1        1 6CR      0.092700
     28 HO3'        6.7340    1.1770    4.7310 ho        1 6CR      0.426000
     29 H4'         5.4420   -0.1440    6.6240 h1        1 6CR      0.107700
     30 H5'         3.6760    1.2270    7.7500 h1        1 6CR      0.036200
     31 H5'A        2.4930    0.8770    6.3930 h1        1 6CR      0.036200
     32 HO5'        2.3880   -0.5520    8.2710 ho        1 6CR      0.407000
@<TRIPOS>BOND
     1    1    2 ar  
     2    1    6 ar  
     3    2    3 ar  
     4    2   14 1   
     5    3    4 ar  
     6    4    5 ar  
     7    4    9 1   
     8    5    6 ar  
     9    5    7 1   
    10    6   11 1   
    11    7    8 2   
    12    8    9 1   
    13    8   21 1   
    14    9   10 1   
    15   10   12 1   
    16   10   18 1   
    17   10   22 1   
    18   12   13 1   
    19   12   15 1   
    20   12   23 1   
    21   13   24 1   
    22   14   25 1   
    23   14   26 1   
    24   15   16 1   
    25   15   17 1   
    26   15   27 1   
    27   16   28 1   
    28   17   18 1   
    29   17   19 1   
    30   17   29 1   
    31   19   20 1   
    32   19   30 1   
    33   19   31 1   
    34   20   32 1   
@<TRIPOS>SUBSTRUCTURE
     1 6CR         1 TEMP              0 ****  ****    0 ROOT
