@<TRIPOS>MOLECULE
6CR
   32    34     1     0     0
SMALL
bcc


@<TRIPOS>ATOM
      1 N1         -3.5450   -0.0570   -0.8610 nb        1 6CR     -0.762000
      2 C2         -2.7640    1.0320   -1.2730 ca        1 6CR      0.909900
      3 N3         -1.4500    1.2910   -0.9030 nb        1 6CR     -0.756000
      4 C4         -0.9190    0.3390   -0.1010 ca        1 6CR      0.496800
      5 C5         -1.6390   -0.8500    0.3690 ca        1 6CR     -0.215200
      6 C6         -2.9770   -0.9710   -0.0620 ca        1 6CR      0.624300
      7 N7         -0.8000   -1.6270    1.1860 nc        1 6CR     -0.503100
      8 C8          0.3600   -0.9640    1.2220 cd        1 6CR      0.399700
      9 N9          0.3570    0.2580    0.4910 na        1 6CR     -0.295000
     10 C1'         1.4780    1.1110    0.1900 c3        1 6CR      0.245800
     11 CL1        -3.8980   -2.3070    0.4550 cl        1 6CR     -0.112000
     12 C2'         2.4250    1.3370    1.4160 c3        1 6CR      0.126100
     13 O2'         2.7010    2.7200    1.4250 oh        1 6CR     -0.582800
     14 N20        -3.3510    1.9090   -2.1800 nh        1 6CR     -0.933500
     15 C3'         3.6500    0.4410    1.1230 c3        1 6CR      0.082100
     16 O3'         4.8140    1.1980    1.3890 oh        1 6CR     -0.596800
     17 C4'         3.5160    0.0280   -0.3530 c3        1 6CR      0.053100
     18 O4'         2.2870    0.5600   -0.8610 os        1 6CR     -0.410600
     19 C5'         3.5130   -1.4910   -0.5370 c3        1 6CR      0.118400
     20 O5'         3.5390   -1.8340   -1.9030 oh        1 6CR     -0.587800
     21 H8          1.2520   -1.2810    1.7760 h5        1 6CR      0.067800
     22 H1'         1.0910    2.0940   -0.2180 h2        1 6CR      0.145700
     23 H2'         1.9520    1.0530    2.3940 h1        1 6CR      0.070700
     24 HO2'        3.5620    2.8520    1.8480 ho        1 6CR      0.437000
     25 HN20       -4.3350    1.8590   -2.3000 hn        1 6CR      0.440300
     26 HN2A       -2.9120    2.7870   -2.3260 hn        1 6CR      0.440300
     27 H3'         3.6420   -0.4630    1.7920 h1        1 6CR      0.056700
     28 HO3'        5.5550    0.7520    0.9600 ho        1 6CR      0.425000
     29 H4'         4.3220    0.4910   -0.9880 h1        1 6CR      0.093700
     30 H5'         4.4500   -1.9360   -0.1060 h1        1 6CR      0.051200
     31 H5'A        2.6110   -1.9370   -0.0370 h1        1 6CR      0.051200
     32 HO5'        2.7640   -1.4260   -2.3130 ho        1 6CR      0.419000
@<TRIPOS>BOND
     1    1    2 ar  
     2    1    6 ar  
     3    2    3 ar  
     4    2   14 1   
     5    3    4 ar  
     6    4    5 ar  
     7    4    9 1   
     8    5    6 ar  
     9    5    7 1   
    10    6   11 1   
    11    7    8 2   
    12    8    9 1   
    13    8   21 1   
    14    9   10 1   
    15   10   12 1   
    16   10   18 1   
    17   10   22 1   
    18   12   13 1   
    19   12   15 1   
    20   12   23 1   
    21   13   24 1   
    22   14   25 1   
    23   14   26 1   
    24   15   16 1   
    25   15   17 1   
    26   15   27 1   
    27   16   28 1   
    28   17   18 1   
    29   17   19 1   
    30   17   29 1   
    31   19   20 1   
    32   19   30 1   
    33   19   31 1   
    34   20   32 1   
@<TRIPOS>SUBSTRUCTURE
     1 6CR         1 TEMP              0 ****  ****    0 ROOT
