@<TRIPOS>MOLECULE
6CR
   32    27     1     0     0
SMALL
bcc


@<TRIPOS>ATOM
      1 N1         -2.8260   -0.6420   -3.7180 n1        1 6CR     -0.231000
      2 C2         -1.4800   -0.8680   -3.7340 c1        1 6CR      0.183000
      3 N3         -0.7290   -0.5930   -2.6320 n1        1 6CR     -0.258000
      4 C4         -1.3220   -0.0880   -1.5070 c1        1 6CR     -0.066000
      5 C5         -2.6520    0.1350   -1.4920 c1        1 6CR     -0.066000
      6 C6         -3.4130   -0.1460   -2.6140 c1        1 6CR      0.129000
      7 N7         -2.9870    0.5800   -0.2620 n1        1 6CR     -0.152500
      8 C8         -1.8560    0.6330    0.4910 c1        1 6CR     -0.026000
      9 N9         -0.8300    0.2220   -0.2710 n1        1 6CR     -0.152500
     10 C1'         0.4800   -0.0410    0.2280 c2        1 6CR      0.140000
     11 CL1        -5.0380    0.1410   -3.1990 cl        1 6CR      0.060000
     12 C2'         1.1050    1.0620    0.4310 c3        1 6CR     -0.030000
     13 O2'         1.9470    1.4110   -0.7670 oh        1 6CR     -0.322000
     14 N20        -1.0160   -1.3610   -4.9860 n3        1 6CR     -0.323000
     15 C3'         1.9820    0.7990    1.6250 c3        1 6CR      0.024000
     16 O3'         3.2850    0.6930    1.2400 oh        1 6CR     -0.313000
     17 C4'         1.4790   -0.5640    2.2290 c3        1 6CR     -0.026000
     18 O4'         0.3900   -0.7790    1.6470 os        1 6CR     -0.273000
     19 C5'         1.2570   -0.4240    3.7590 c3        1 6CR     -0.038000
     20 O5'         1.0150   -1.6590    4.3030 oh        1 6CR     -0.314000
     21 H8         -1.7890    0.9920    1.3810 DU        1 6CR      0.213000
     22 H1'         0.9580   -0.5740   -0.3840 h4        1 6CR      0.145000
     23 H2'         0.5050    1.7440    0.6150 h1        1 6CR      0.115000
     24 HO2'        1.8930    2.3010   -0.9240 ho        1 6CR      0.236000
     25 HN20       -1.4120   -1.0840   -5.7610 hn        1 6CR      0.228000
     26 HN2A       -0.2760   -1.9300   -5.0170 hn        1 6CR      0.228000
     27 H3'         1.8800    1.5280    2.2930 h1        1 6CR      0.101000
     28 HO3'        3.7670    1.2720    1.6830 ho        1 6CR      0.231000
     29 H4'         2.1270   -1.2910    2.0350 h1        1 6CR      0.157000
     30 H5'         2.0560   -0.0370    4.1710 h1        1 6CR      0.096000
     31 H5'A        0.4860    0.1630    3.9240 h1        1 6CR      0.096000
     32 HO5'        1.0130   -1.5940    5.2120 ho        1 6CR      0.206000
@<TRIPOS>BOND
     1    1    6 1   
     2    2    3 1   
     3    2   14 1   
     4    4    5 1   
     5    6   11 1   
     6    7    8 1   
     7    8    9 1   
     8   10   12 1   
     9   10   18 1   
    10   10   22 1   
    11   12   13 1   
    12   12   15 1   
    13   12   23 1   
    14   13   24 1   
    15   14   25 1   
    16   14   26 1   
    17   15   16 1   
    18   15   17 1   
    19   15   27 1   
    20   16   28 1   
    21   17   18 1   
    22   17   19 1   
    23   17   29 1   
    24   19   20 1   
    25   19   30 1   
    26   19   31 1   
    27   20   32 1   
@<TRIPOS>SUBSTRUCTURE
     1 6CR         1 TEMP              0 ****  ****    0 ROOT
