@<TRIPOS>MOLECULE
6CS
   20    20     1     0     0
SMALL
bcc


@<TRIPOS>ATOM
      1 O           1.5880   -1.6780    1.0220 o         1 6CS     -0.821800
      2 C           1.6960   -0.6800    0.2740 c         1 6CS      0.936600
      3 OXT         2.7660   -0.0420    0.0440 o         1 6CS     -0.821800
      4 CA          0.4330   -0.0470   -0.4310 c3        1 6CS     -0.065500
      5 N          -0.7060   -0.9090   -0.5460 n2        1 6CS     -0.548900
      6 CAI        -1.8850   -0.5120   -0.1700 c2        1 6CS      0.487200
      7 CAA        -3.0630   -1.4560   -0.2640 c3        1 6CS     -0.105400
      8 NAG        -2.2530    0.8070    0.3020 nh        1 6CS     -0.804200
      9 CG2        -1.2300    1.8070    0.0690 c3        1 6CS      0.146800
     10 CB          0.2040    1.2980    0.2980 c3        1 6CS      0.111100
     11 OG1         1.0880    2.2930   -0.1850 oh        1 6CS     -0.640800
     12 HA          0.7640    0.1760   -1.4900 h1        1 6CS      0.073700
     13 HN         -2.4930    0.7540    1.2750 hn        1 6CS      0.356800
     14 HAA1       -2.7410   -2.4650   -0.6160 hc        1 6CS      0.038033
     15 HAA2       -3.5390   -1.5650    0.7410 hc        1 6CS      0.038033
     16 HAA3       -3.8180   -1.0470   -0.9790 hc        1 6CS      0.038033
     17 HG21       -1.3210    2.1450   -1.0010 h1        1 6CS      0.046700
     18 HG22       -1.4200    2.6970    0.7280 h1        1 6CS      0.046700
     19 HB          0.3840    1.1580    1.4020 h1        1 6CS      0.038700
     20 HOG1        1.9670    1.8700   -0.2250 ho        1 6CS      0.452000
@<TRIPOS>BOND
     1    1    2 1   
     2    2    3 1   
     3    2    4 1   
     4    4    5 1   
     5    4   10 1   
     6    4   12 1   
     7    5    6 2   
     8    6    7 1   
     9    6    8 1   
    10    7   14 1   
    11    7   15 1   
    12    7   16 1   
    13    8    9 1   
    14    8   13 1   
    15    9   10 1   
    16    9   17 1   
    17    9   18 1   
    18   10   11 1   
    19   10   19 1   
    20   11   20 1   
@<TRIPOS>SUBSTRUCTURE
     1 6CS         1 TEMP              0 ****  ****    0 ROOT
