@<TRIPOS>MOLECULE
6CS
   20    20     1     0     0
SMALL
bcc


@<TRIPOS>ATOM
      1 O          -0.1250   -0.3260   -0.0810 o         1 6CS     -0.821800
      2 C           1.1260   -0.3160   -0.0390 c         1 6CS      0.936600
      3 OXT         1.9000   -0.5370   -1.0170 o         1 6CS     -0.821800
      4 CA          1.8950   -0.0840    1.3200 c3        1 6CS     -0.065500
      5 N           1.1370    0.5500    2.3580 n2        1 6CS     -0.548900
      6 CAI         1.0920    0.0470    3.5550 c2        1 6CS      0.487200
      7 CAA         0.2510    0.7140    4.6210 c3        1 6CS     -0.105400
      8 NAG         1.8230   -1.1010    4.0480 nh        1 6CS     -0.804200
      9 CG2         2.8830   -1.5330    3.1570 c3        1 6CS      0.146800
     10 CB          2.5130   -1.4600    1.6660 c3        1 6CS      0.111100
     11 OG1         3.6990   -1.6820    0.9250 oh        1 6CS     -0.640800
     12 HA          2.7370    0.6290    1.0680 h1        1 6CS      0.073700
     13 HN          1.1790   -1.8480    4.2340 hn        1 6CS      0.356800
     14 HAA1        0.9080    1.0710    5.4510 hc        1 6CS      0.038033
     15 HAA2       -0.4850   -0.0180    5.0330 hc        1 6CS      0.038033
     16 HAA3       -0.3090    1.5840    4.2040 hc        1 6CS      0.038033
     17 HG21        3.7720   -0.8670    3.3380 h1        1 6CS      0.046700
     18 HG22        3.1830   -2.5850    3.4160 h1        1 6CS      0.046700
     19 HB          1.7730   -2.2720    1.4180 h1        1 6CS      0.038700
     20 HOG1        3.4900   -1.4260    0.0070 ho        1 6CS      0.452000
@<TRIPOS>BOND
     1    1    2 1   
     2    2    3 1   
     3    2    4 1   
     4    4    5 1   
     5    4   10 1   
     6    4   12 1   
     7    5    6 2   
     8    6    7 1   
     9    6    8 1   
    10    7   14 1   
    11    7   15 1   
    12    7   16 1   
    13    8    9 1   
    14    8   13 1   
    15    9   10 1   
    16    9   17 1   
    17    9   18 1   
    18   10   11 1   
    19   10   19 1   
    20   11   20 1   
@<TRIPOS>SUBSTRUCTURE
     1 6CS         1 TEMP              0 ****  ****    0 ROOT
