@<TRIPOS>MOLECULE
6CS
   20    20     1     0     0
SMALL
bcc


@<TRIPOS>ATOM
      1 O          -0.1750   -0.3410   -0.0410 o         1 6CS     -0.821800
      2 C           1.0760   -0.3240   -0.0230 c         1 6CS      0.936600
      3 OXT         1.8320   -0.5440   -1.0150 o         1 6CS     -0.821800
      4 CA          1.8710   -0.0860    1.3200 c3        1 6CS     -0.065500
      5 N           1.1300    0.5470    2.3720 n2        1 6CS     -0.548900
      6 CAI         1.1100    0.0450    3.5710 c2        1 6CS      0.487200
      7 CAA         0.2870    0.7100    4.6520 c3        1 6CS     -0.105400
      8 NAG         1.8570   -1.0980    4.0510 nu        1 6CS     -0.804200
      9 CG2         2.9010   -1.5260    3.1410 c3        1 6CS      0.146800
     10 CB          2.5020   -1.4580    1.6570 c3        1 6CS      0.111100
     11 OG1         3.6750   -1.6750    0.8930 oh        1 6CS     -0.640800
     12 HA          2.7040    0.6310    1.0500 h1        1 6CS      0.073700
     13 HN          1.2210   -1.8480    4.2510 hn        1 6CS      0.356800
     14 HAA1       -0.2850    1.5780    4.2430 hc        1 6CS      0.038033
     15 HAA2       -0.4380   -0.0250    5.0790 hc        1 6CS      0.038033
     16 HAA3        0.9580    1.0730    5.4670 hc        1 6CS      0.038033
     17 HG21        3.7900   -0.8550    3.3030 h1        1 6CS      0.046700
     18 HG22        3.2120   -2.5760    3.3960 h1        1 6CS      0.046700
     19 HB          1.7610   -2.2750    1.4250 h1        1 6CS      0.038700
     20 HOG1        3.4460   -1.4220   -0.0210 ho        1 6CS      0.452000
@<TRIPOS>BOND
     1    1    2 1   
     2    2    3 1   
     3    2    4 1   
     4    4    5 1   
     5    4   10 1   
     6    4   12 1   
     7    5    6 2   
     8    6    7 1   
     9    6    8 1   
    10    7   14 1   
    11    7   15 1   
    12    7   16 1   
    13    8    9 1   
    14    8   13 1   
    15    9   10 1   
    16    9   17 1   
    17    9   18 1   
    18   10   11 1   
    19   10   19 1   
    20   11   20 1   
@<TRIPOS>SUBSTRUCTURE
     1 6CS         1 TEMP              0 ****  ****    0 ROOT
