@<TRIPOS>MOLECULE
6CS
   20    18     1     0     0
SMALL
bcc


@<TRIPOS>ATOM
      1 O          -1.8170    1.3840   -1.7250 o         1 6CS     -0.556000
      2 C          -0.5580    1.3840   -1.7250 c1        1 6CS      0.359000
      3 OXT         0.0710    1.3890   -2.8150 os        1 6CS     -0.552000
      4 CA          0.1960    1.3840   -0.4180 c3        1 6CS     -0.170000
      5 N          -0.6580    1.2180    0.6380 n2        1 6CS     -0.167000
      6 CAI        -0.8670   -0.3490    1.1310 c1        1 6CS     -0.008000
      7 CAA        -2.2620   -0.9170    1.2750 c2        1 6CS     -0.151000
      8 NAG         0.2210   -1.2090    0.8770 n3        1 6CS     -0.272000
      9 CG2         1.0420   -0.9220   -0.3280 c3        1 6CS     -0.089000
     10 CB          1.4220    0.2130   -0.4280 c3        1 6CS     -0.021000
     11 OG1         2.3700    0.5040    0.7410 oh        1 6CS     -0.366000
     12 HA          0.5750    2.2840   -0.4210 h1        1 6CS      0.103000
     13 HN          0.5590   -1.7270    1.5460 hn        1 6CS      0.146000
     14 HAA1       -2.2940   -1.5110    2.0490 ha        1 6CS      0.076667
     15 HAA2       -2.4940   -1.4180    0.4700 ha        1 6CS      0.076667
     16 HAA3       -2.8990   -0.1870    1.3980 ha        1 6CS      0.076667
     17 HG21        1.8230   -1.5070   -0.3130 h1        1 6CS      0.112500
     18 HG22        0.5110   -1.1380   -1.1190 h1        1 6CS      0.112500
     19 HB          1.9230    0.2980   -1.2620 h1        1 6CS      0.097000
     20 HOG1        3.1350    0.8280    0.4290 ho        1 6CS      0.193000
@<TRIPOS>BOND
     1    1    2 1   
     2    2    4 1   
     3    4    5 1   
     4    4   10 1   
     5    4   12 1   
     6    5    6 1   
     7    6    8 1   
     8    7   14 1   
     9    7   15 1   
    10    7   16 1   
    11    8    9 1   
    12    8   13 1   
    13    9   10 1   
    14    9   17 1   
    15    9   18 1   
    16   10   11 1   
    17   10   19 1   
    18   11   20 1   
@<TRIPOS>SUBSTRUCTURE
     1 6CS         1 TEMP              0 ****  ****    0 ROOT
