@<TRIPOS>MOLECULE
6CT
   39    39     1     0     0
SMALL
bcc


@<TRIPOS>ATOM
      1 P           3.1870   -2.4480    1.4790 p4        1 6CT      1.707200
      2 OP2         3.2620   -3.6390    0.4930 os        1 6CT     -1.258000
      3 OP1         4.4870   -2.3260    2.2110 o         1 6CT     -0.908500
      4 O5'         2.9120   -1.1330    0.6870 os        1 6CT     -0.581200
      5 C5'         1.5880   -0.8740    0.2300 c3        1 6CT      0.224400
      6 C4'         1.6500   -0.1470   -1.0990 c3        1 6CT     -0.123700
      7 C3'         1.9190    1.1670   -0.8950 c3        1 6CT      0.129100
      8 O3'         2.6570    1.6910   -1.9820 oh        1 6CT     -0.655800
      9 C2'         0.4830    1.8760   -0.8070 c3        1 6CT     -0.091400
     10 C1'        -0.5770    0.7750   -1.3150 c3        1 6CT      0.109700
     11 N1         -1.3520    0.2600   -0.2100 n         1 6CT     -0.346000
     12 C2         -1.9810   -1.0450   -0.3200 c         1 6CT      0.785500
     13 O2         -1.8360   -1.6990   -1.3190 o         1 6CT     -0.724500
     14 N3         -2.8700   -1.5260    0.7470 n         1 6CT     -0.597500
     15 C4         -3.0270   -0.7670    1.9430 c         1 6CT      0.713700
     16 O4         -3.7310   -1.1870    2.8410 o         1 6CT     -0.698500
     17 C5         -2.4320    0.5580    2.0460 cc        1 6CT     -0.305400
     18 C5M        -2.8230    1.5110    3.2630 c3        1 6CT     -0.039900
     19 C6         -1.6050    1.0800    0.9350 cd        1 6CT      0.054600
     20 C'          0.1720   -0.2100   -1.8600 c3        1 6CT     -0.081700
     21 CM'         0.3370    0.0150   -3.3400 c3        1 6CT     -0.075100
     22 H5'         1.1200   -0.3190    0.8840 h1        1 6CT     -0.003300
     23 H5''        1.0950   -1.7430    0.1160 h1        1 6CT     -0.003300
     24 H4'         2.3530   -0.5570   -1.6810 hc        1 6CT      0.017700
     25 H3'         2.3930    1.2830   -0.0930 h1        1 6CT      0.131700
     26 HO3'        3.2840    2.2370   -1.6760 ho        1 6CT      0.464000
     27 H2'         0.2880    2.1280    0.1240 hc        1 6CT      0.038700
     28 H2''        0.4570    2.6640   -1.3840 hc        1 6CT      0.038700
     29 H1'        -1.1730    1.1660   -2.0000 h1        1 6CT      0.064700
     30 HN3        -3.2600   -2.3370    0.6750 hn        1 6CT      0.316500
     31 H71        -2.5100    1.1040    4.1160 hc        1 6CT      0.055367
     32 H72        -2.4020    2.3770    3.1450 hc        1 6CT      0.055367
     33 H73        -3.8030    1.6230    3.2900 hc        1 6CT      0.055367
     34 H6         -1.2170    2.0090    0.9890 h4        1 6CT      0.327000
     35 H'         -0.2470   -1.0730   -1.6990 hc        1 6CT      0.109700
     36 HM'1       -0.5050   -0.2290   -3.8080 hc        1 6CT      0.017367
     37 HM'2        0.5440    0.9660   -3.5090 hc        1 6CT      0.017367
     38 HM'3        1.0800   -0.5520   -3.6800 hc        1 6CT      0.017367
     39 OP3         2.0820   -2.6780    2.4620 o         1 6CT     -0.957300
@<TRIPOS>BOND
     1    1    3 1   
     2    1    4 1   
     3    1   39 2   
     4    4    5 1   
     5    5    6 1   
     6    5   22 1   
     7    5   23 1   
     8    6    7 1   
     9    6   20 1   
    10    6   24 1   
    11    7    8 1   
    12    7    9 1   
    13    7   25 1   
    14    8   26 1   
    15    9   10 1   
    16    9   27 1   
    17    9   28 1   
    18   10   11 1   
    19   10   20 1   
    20   10   29 1   
    21   11   12 1   
    22   11   19 1   
    23   12   13 2   
    24   12   14 1   
    25   14   15 1   
    26   14   30 1   
    27   15   16 2   
    28   15   17 1   
    29   17   18 1   
    30   17   19 2   
    31   18   31 1   
    32   18   32 1   
    33   18   33 1   
    34   19   34 1   
    35   20   21 1   
    36   20   35 1   
    37   21   36 1   
    38   21   37 1   
    39   21   38 1   
@<TRIPOS>SUBSTRUCTURE
     1 6CT         1 TEMP              0 ****  ****    0 ROOT
