@<TRIPOS>MOLECULE
6CT
   39    40     1     0     0
SMALL
bcc


@<TRIPOS>ATOM
      1 P          -4.6890   -0.5100    4.3410 p5        1 6CT      1.426800
      2 OP2        -3.9220   -1.1570    5.4270 o         1 6CT     -0.839500
      3 OP1        -5.3710    0.7810    5.0820 oh        1 6CT     -0.781400
      4 O5'        -3.5930    0.3240    3.4350 os        1 6CT     -0.595200
      5 C5'        -3.9970    0.7710    2.1720 c3        1 6CT      0.183400
      6 C4'        -2.8810    0.5020    1.1680 c3        1 6CT     -0.114700
      7 C3'        -1.5890    1.2490    1.5420 c3        1 6CT      0.158100
      8 O3'        -0.7340    0.4540    2.3510 oh        1 6CT     -0.635800
      9 C2'        -0.8720    1.5880    0.2340 c3        1 6CT     -0.088400
     10 C1'        -1.8170    1.1680   -0.9170 c3        1 6CT      0.137700
     11 N1         -1.8180    2.0850   -2.0440 n         1 6CT     -0.310400
     12 C2         -1.3760    1.5980   -3.3010 c         1 6CT      0.709100
     13 O2         -0.9930    0.4110   -3.5100 o         1 6CT     -0.718100
     14 N3         -1.3620    2.4950   -4.3790 n         1 6CT     -0.594500
     15 C4         -1.7560    3.8510   -4.2560 c         1 6CT      0.673300
     16 O4         -1.6870    4.5410   -5.3070 o         1 6CT     -0.727100
     17 C5         -2.1830    4.2690   -2.9420 ce        1 6CT     -0.507500
     18 C5M        -2.6010    5.6700   -2.7680 c3        1 6CT      0.047100
     19 C6         -2.2060    3.3890   -1.8670 c1        1 6CT     -0.079900
     20 C'         -3.2090    0.9730   -0.2500 c3        1 6CT     -0.069700
     21 CM'        -4.0600   -0.0160   -1.0020 c3        1 6CT     -0.082100
     22 H5'        -4.9390    0.2410    1.8570 h1        1 6CT      0.035200
     23 H5''       -4.1890    1.8810    2.2200 h1        1 6CT      0.035200
     24 H4'        -2.6670   -0.6010    1.1610 hc        1 6CT      0.057700
     25 H3'        -1.8400    2.1880    2.1080 h1        1 6CT      0.035700
     26 HO3'       -1.2900    0.1300    3.0760 ho        1 6CT      0.429000
     27 H2'         0.0950    1.0340    0.1590 hc        1 6CT      0.053700
     28 H2''       -0.6570    2.6850    0.1980 hc        1 6CT      0.053700
     29 H1'        -1.4760    0.1580   -1.2980 h1        1 6CT      0.065700
     30 HN3        -1.0570    2.1480   -5.2580 hn        1 6CT      0.299500
     31 H71        -1.7590    6.3710   -3.0030 hc        1 6CT     -0.000967
     32 H72        -2.9320    5.8520   -1.7170 hc        1 6CT     -0.000967
     33 H73        -3.4460    5.9240   -3.4580 hc        1 6CT     -0.000967
     34 H6         -4.8840    1.0330    5.8570 ho        1 6CT      0.419000
     35 H'         -3.7350    1.9660   -0.2020 hc        1 6CT      0.083700
     36 HM'1       -5.0280   -0.1760   -0.4660 hc        1 6CT      0.028700
     37 HM'2       -4.2750    0.3630   -2.0300 hc        1 6CT      0.028700
     38 HM'3       -3.5420   -1.0020   -1.0910 hc        1 6CT      0.028700
     39 OP3        -5.6800   -1.1520    3.4560 o         1 6CT     -0.839500
@<TRIPOS>BOND
     1    1    2 1   
     2    1    3 1   
     3    1    4 1   
     4    1   39 1   
     5    3   34 1   
     6    4    5 1   
     7    5    6 1   
     8    5   22 1   
     9    5   23 1   
    10    6    7 1   
    11    6   20 1   
    12    6   24 1   
    13    7    8 1   
    14    7    9 1   
    15    7   25 1   
    16    8   26 1   
    17    9   10 1   
    18    9   27 1   
    19    9   28 1   
    20   10   11 1   
    21   10   20 1   
    22   10   29 1   
    23   11   12 1   
    24   11   19 2   
    25   12   13 2   
    26   12   14 1   
    27   14   15 1   
    28   14   30 1   
    29   15   16 2   
    30   15   17 1   
    31   17   18 1   
    32   17   19 2   
    33   18   31 1   
    34   18   32 1   
    35   18   33 1   
    36   20   21 1   
    37   20   35 1   
    38   21   36 1   
    39   21   37 1   
    40   21   38 1   
@<TRIPOS>SUBSTRUCTURE
     1 6CT         1 TEMP              0 ****  ****    0 ROOT
