@<TRIPOS>MOLECULE
6CW
   26    27     1     0     0
SMALL
bcc


@<TRIPOS>ATOM
      1 N          -1.5120    4.3120    5.6690 n3        1 6CW     -0.890800
      2 CA         -1.1930    2.9470    5.2610 c3        1 6CW      0.025500
      3 CB         -1.7610    1.9190    6.2550 c3        1 6CW      0.006800
      4 CG         -0.9730    0.6790    6.3060 cc        1 6CW     -0.133400
      5 CD2        -0.7680   -0.1600    7.4680 ca        1 6CW     -0.077800
      6 CE3        -1.1670   -0.0940    8.8020 ca        1 6CW     -0.079000
      7 CE2         0.0480   -1.2800    7.0290 ca        1 6CW     -0.058200
      8 NE1         0.3200   -1.1050    5.6730 na        1 6CW     -0.200400
      9 CD1        -0.3030    0.0720    5.2420 cd        1 6CW     -0.079100
     10 CZ2         0.4330   -2.2910    7.9200 ca        1 6CW     -0.147000
     11 CH2         0.0020   -2.1740    9.2370 ca        1 6CW      0.019400
     12 CLL         0.4470   -3.3870   10.3610 cl        1 6CW     -0.145400
     13 CZ3        -0.7840   -1.0970    9.6820 ca        1 6CW     -0.169000
     14 C          -1.7150    2.6200    3.8240 c         1 6CW      0.884600
     15 O          -2.8520    3.0580    3.4950 o         1 6CW     -0.844300
     16 OXT        -0.9580    1.9580    3.0540 o         1 6CW     -0.844300
     17 H          -2.5130    4.4150    5.6520 hn        1 6CW      0.331800
     18 H2         -1.1490    4.9310    4.9660 hn        1 6CW      0.331800
     19 HA         -0.0700    2.8560    5.2510 h1        1 6CW      0.047700
     20 HB2        -1.8040    2.3550    7.2910 hc        1 6CW      0.043700
     21 HB3        -2.8170    1.6790    5.9490 hc        1 6CW      0.043700
     22 HE3        -1.7800    0.7520    9.1480 ha        1 6CW      0.137000
     23 HE1         0.8260   -1.7300    5.1080 hn        1 6CW      0.289700
     24 HD1        -0.2390    0.4290    4.1970 h4        1 6CW      0.246000
     25 HZ2         1.0480   -3.1380    7.5900 ha        1 6CW      0.133000
     26 HZ3        -1.0960   -1.0510   10.7350 ha        1 6CW      0.129000
@<TRIPOS>BOND
     1    1    2 1   
     2    1   17 1   
     3    1   18 1   
     4    2    3 1   
     5    2   14 1   
     6    2   19 1   
     7    3    4 1   
     8    3   20 1   
     9    3   21 1   
    10    4    5 1   
    11    4    9 2   
    12    5    6 ar  
    13    5    7 ar  
    14    6   13 ar  
    15    6   22 1   
    16    7    8 1   
    17    7   10 ar  
    18    8    9 1   
    19    8   23 1   
    20    9   24 1   
    21   10   11 ar  
    22   10   25 1   
    23   11   12 1   
    24   11   13 ar  
    25   13   26 1   
    26   14   15 1   
    27   14   16 1   
@<TRIPOS>SUBSTRUCTURE
     1 6CW         1 TEMP              0 ****  ****    0 ROOT
