@<TRIPOS>MOLECULE
6DD
   54    56     1     0     0
SMALL
bcc


@<TRIPOS>ATOM
      1 C5          0.1170   -0.1090    0.1860 ca        1 6DD     -0.038000
      2 C4A         1.5130    0.0350    0.0450 ca        1 6DD     -0.311600
      3 C4          2.4410   -0.0360    1.1490 ca        1 6DD      0.715600
      4 O4          1.8890   -0.2700    2.3810 oh        1 6DD     -0.604300
      5 N3          3.7620    0.1140    1.0300 nb        1 6DD     -0.831000
      6 C2          4.2360    0.3360   -0.2810 ca        1 6DD      0.893900
      7 NA2         5.6330    0.3840   -0.4340 nv        1 6DD     -0.918500
      8 N1          3.4600    0.4450   -1.3960 nb        1 6DD     -0.777000
      9 C8A         2.1030    0.2880   -1.2320 ca        1 6DD      0.477600
     10 C8          1.2240    0.3870   -2.3580 ca        1 6DD     -0.209300
     11 C7         -0.1320    0.2410   -2.1950 ca        1 6DD     -0.073000
     12 C6         -0.6990   -0.0130   -0.9200 ca        1 6DD     -0.146300
     13 C9         -2.1860   -0.1970   -0.8060 c3        1 6DD      0.144300
     14 N10        -2.9600    1.0240   -0.8770 n         1 6DD     -0.395000
     15 CA1        -3.3610    1.5460   -2.0970 c         1 6DD      0.665900
     16 OA1        -3.1290    0.9740   -3.1760 o         1 6DD     -0.617100
     17 C14        -3.1550    1.7840    0.3080 ca        1 6DD      0.045600
     18 C15        -3.6890    1.1790    1.4660 ca        1 6DD     -0.163000
     19 C16        -3.8910    1.9330    2.6160 ca        1 6DD     -0.076000
     20 C13        -2.8370    3.1580    0.3410 ca        1 6DD     -0.163000
     21 C12        -3.0570    3.9060    1.4950 ca        1 6DD     -0.076000
     22 C11        -3.5880    3.2980    2.6360 ca        1 6DD     -0.141600
     23 C          -3.8010    4.0740    3.8990 c         1 6DD      0.644700
     24 O          -3.5680    3.5420    5.0080 o         1 6DD     -0.629100
     25 N          -4.3540    5.3340    3.7780 ns        1 6DD     -0.511900
     26 CA         -4.0620    6.3680    4.7600 c3        1 6DD     -0.076300
     27 CT         -3.4850    7.6700    4.0740 c         1 6DD      0.913600
     28 O2         -3.2330    8.6340    4.8380 o         1 6DD     -0.821300
     29 O1         -3.3000    7.6440    2.8250 o         1 6DD     -0.821300
     30 CB         -5.2830    6.7600    5.5940 c3        1 6DD     -0.074400
     31 CG         -5.7140    5.6670    6.5540 c3        1 6DD     -0.185400
     32 CD         -7.1320    5.2330    6.3560 c         1 6DD      0.636100
     33 OE2        -8.0020    5.1070    7.2250 o         1 6DD     -0.540000
     34 OE1        -7.5740    4.8950    5.1070 oh        1 6DD     -0.603100
     35 H1         -0.2940   -0.2920    1.1920 ha        1 6DD      0.154000
     36 H3          6.1470    0.6150    0.3860 hn        1 6DD      0.418800
     37 H4          5.9560    0.8120   -1.2720 hn        1 6DD      0.418800
     38 H5          1.6510    0.5860   -3.3530 ha        1 6DD      0.151000
     39 H6         -0.8130    0.3270   -3.0600 ha        1 6DD      0.162000
     40 H7         -2.4210   -0.7130    0.1680 h1        1 6DD      0.066200
     41 H8         -2.5270   -0.8620   -1.6550 h1        1 6DD      0.066200
     42 H9         -3.9360    2.4980   -2.0240 h5        1 6DD      0.048200
     43 H10        -3.9520    0.1110    1.4700 ha        1 6DD      0.136500
     44 H11        -4.2890    1.4590    3.5290 ha        1 6DD      0.166500
     45 H12        -2.4030    3.6530   -0.5420 ha        1 6DD      0.136500
     46 H13        -2.7930    4.9800    1.5030 ha        1 6DD      0.166500
     47 H14        -4.3670    5.7150    2.8450 hn        1 6DD      0.317500
     48 H15        -3.2620    5.9950    5.4650 h1        1 6DD      0.064700
     49 H17        -4.9850    7.6770    6.1730 hc        1 6DD      0.066200
     50 H18        -6.1290    7.0590    4.9220 hc        1 6DD      0.066200
     51 H19        -5.0610    4.7560    6.4310 hc        1 6DD      0.085700
     52 H20        -5.6030    6.0180    7.6130 hc        1 6DD      0.085700
     53 H2          2.5820   -0.2570    3.0630 ho        1 6DD      0.447000
     54 H21        -6.8560    5.0160    4.4670 ho        1 6DD      0.444000
@<TRIPOS>BOND
     1    1    2 ar  
     2    1   12 ar  
     3    1   35 1   
     4    2    3 ar  
     5    2    9 ar  
     6    3    4 1   
     7    3    5 ar  
     8    4   53 1   
     9    5    6 ar  
    10    6    7 1   
    11    6    8 ar  
    12    7   36 1   
    13    7   37 1   
    14    8    9 ar  
    15    9   10 ar  
    16   10   11 ar  
    17   10   38 1   
    18   11   12 ar  
    19   11   39 1   
    20   12   13 1   
    21   13   14 1   
    22   13   40 1   
    23   13   41 1   
    24   14   15 1   
    25   14   17 1   
    26   15   16 2   
    27   15   42 1   
    28   17   18 ar  
    29   17   20 ar  
    30   18   19 ar  
    31   18   43 1   
    32   19   22 ar  
    33   19   44 1   
    34   20   21 ar  
    35   20   45 1   
    36   21   22 ar  
    37   21   46 1   
    38   22   23 1   
    39   23   24 2   
    40   23   25 1   
    41   25   26 1   
    42   25   47 1   
    43   26   27 1   
    44   26   30 1   
    45   26   48 1   
    46   27   28 1   
    47   27   29 1   
    48   30   31 1   
    49   30   49 1   
    50   30   50 1   
    51   31   32 1   
    52   31   51 1   
    53   31   52 1   
    54   32   33 2   
    55   32   34 1   
    56   34   54 1   
@<TRIPOS>SUBSTRUCTURE
     1 6DD         1 TEMP              0 ****  ****    0 ROOT
