@<TRIPOS>MOLECULE
6DD
   54    56     1     0     0
SMALL
bcc


@<TRIPOS>ATOM
      1 C5         -0.0260   -0.1830    0.0610 ca        1 6DD     -0.037000
      2 C4A         1.3590   -0.4450    0.0230 ca        1 6DD     -0.311600
      3 C4          2.1640   -0.6630    1.2020 ca        1 6DD      0.716600
      4 O4          1.5000   -0.6110    2.3970 oh        1 6DD     -0.601300
      5 N3          3.4780   -0.9000    1.1780 nb        1 6DD     -0.833000
      6 C2          4.0690   -0.9490   -0.1030 ca        1 6DD      0.892900
      7 NA2         5.4260   -1.3090   -0.1450 nh        1 6DD     -0.919500
      8 N1          3.4200   -0.7350   -1.2830 nb        1 6DD     -0.779000
      9 C8A         2.0670   -0.4920   -1.2180 ca        1 6DD      0.475600
     10 C8          1.3160   -0.2670   -2.4160 ca        1 6DD     -0.211300
     11 C7         -0.0330   -0.0170   -2.3520 ca        1 6DD     -0.073000
     12 C6         -0.7190    0.0240   -1.1120 ca        1 6DD     -0.145300
     13 C9         -2.2020    0.2690   -1.1040 c3        1 6DD      0.142300
     14 N10        -2.5960    1.6380   -1.3630 n         1 6DD     -0.392000
     15 CA1        -2.7880    2.0940   -2.6570 c         1 6DD      0.664900
     16 OA1        -2.6670    1.3590   -3.6530 o         1 6DD     -0.621100
     17 C14        -2.6220    2.5630   -0.2840 ca        1 6DD      0.044600
     18 C15        -3.3410    2.2720    0.8940 ca        1 6DD     -0.166000
     19 C16        -1.9840    4.7040    0.6700 ca        1 6DD     -0.075500
     20 C13        -1.9400    3.7950   -0.3820 ca        1 6DD     -0.166000
     21 C12        -3.3780    3.1870    1.9420 ca        1 6DD     -0.075500
     22 C11        -2.7040    4.4090    1.8280 ca        1 6DD     -0.153600
     23 C          -2.7160    5.3750    2.9710 c         1 6DD      0.649700
     24 O          -1.6840    6.0040    3.2840 o         1 6DD     -0.610100
     25 N          -3.9390    5.5930    3.6030 n         1 6DD     -0.508900
     26 CA         -3.9620    5.6540    5.0620 c3        1 6DD     -0.082300
     27 CT         -4.6570    4.3800    5.6830 c         1 6DD      0.909600
     28 O2         -4.9530    3.4340    4.8970 o         1 6DD     -0.825300
     29 O1         -4.8440    4.3890    6.9240 o         1 6DD     -0.825300
     30 CB         -4.6590    6.9120    5.5810 c3        1 6DD     -0.072400
     31 CG         -3.8490    8.1700    5.3260 c3        1 6DD     -0.179400
     32 CD         -4.5890    9.1910    4.5200 c         1 6DD      0.636100
     33 OE2        -4.7450   10.3860    4.7930 o         1 6DD     -0.539000
     34 OE1        -5.1560    8.8350    3.3290 oh        1 6DD     -0.602100
     35 H1         -0.5290   -0.1450    1.0420 ha        1 6DD      0.158000
     36 H3          5.9390   -1.1570    0.6930 hn        1 6DD      0.417800
     37 H4          5.9060   -1.0730   -0.9850 hn        1 6DD      0.417800
     38 H5          1.8360   -0.2970   -3.3850 ha        1 6DD      0.149000
     39 H6         -0.6140    0.1630   -3.2750 ha        1 6DD      0.161000
     40 H7         -2.6230   -0.0410   -0.1050 h1        1 6DD      0.069700
     41 H8         -2.6710   -0.3750   -1.9060 h1        1 6DD      0.069700
     42 H9         -3.0910    3.1640   -2.7260 h5        1 6DD      0.043200
     43 H10        -3.8870    1.3220    0.9990 ha        1 6DD      0.136000
     44 H11        -1.4370    5.6580    0.6020 ha        1 6DD      0.179000
     45 H12        -1.3580    4.0400   -1.2830 ha        1 6DD      0.136000
     46 H13        -3.9370    2.9390    2.8720 ha        1 6DD      0.179000
     47 H14        -5.0030    7.8920    3.1660 ho        1 6DD      0.447000
     48 H15        -2.9020    5.6570    5.4500 h1        1 6DD      0.067700
     49 H17        -5.6840    7.0000    5.1340 hc        1 6DD      0.066700
     50 H18        -4.7950    6.7620    6.6870 hc        1 6DD      0.066700
     51 H19        -2.9010    7.9210    4.7710 hc        1 6DD      0.081700
     52 H20        -3.5540    8.6420    6.3000 hc        1 6DD      0.081700
     53 H2          2.1250   -0.7360    3.1320 ho        1 6DD      0.447000
     54 H21        -4.6700    4.9800    3.2770 hn        1 6DD      0.300500
@<TRIPOS>BOND
     1    1    2 ar  
     2    1   12 ar  
     3    1   35 1   
     4    2    3 ar  
     5    2    9 ar  
     6    3    4 1   
     7    3    5 ar  
     8    4   53 1   
     9    5    6 ar  
    10    6    7 1   
    11    6    8 ar  
    12    7   36 1   
    13    7   37 1   
    14    8    9 ar  
    15    9   10 ar  
    16   10   11 ar  
    17   10   38 1   
    18   11   12 ar  
    19   11   39 1   
    20   12   13 1   
    21   13   14 1   
    22   13   40 1   
    23   13   41 1   
    24   14   15 1   
    25   14   17 1   
    26   15   16 2   
    27   15   42 1   
    28   17   18 ar  
    29   17   20 ar  
    30   18   21 ar  
    31   18   43 1   
    32   19   20 ar  
    33   19   22 ar  
    34   19   44 1   
    35   20   45 1   
    36   21   22 ar  
    37   21   46 1   
    38   22   23 1   
    39   23   24 2   
    40   23   25 1   
    41   25   26 1   
    42   25   54 1   
    43   26   27 1   
    44   26   30 1   
    45   26   48 1   
    46   27   28 1   
    47   27   29 1   
    48   30   31 1   
    49   30   49 1   
    50   30   50 1   
    51   31   32 1   
    52   31   51 1   
    53   31   52 1   
    54   32   33 2   
    55   32   34 1   
    56   34   47 1   
@<TRIPOS>SUBSTRUCTURE
     1 6DD         1 TEMP              0 ****  ****    0 ROOT
