@<TRIPOS>MOLECULE
6DE
   34    35     1     0     0
SMALL
bcc


@<TRIPOS>ATOM
      1 O14         1.0040   -1.3680    0.8080 o         1 6DE     -0.570000
      2 C13         1.5030   -0.3690    0.2720 c         1 6DE      0.689700
      3 O15         1.3910    0.8310    0.9320 os        1 6DE     -0.437900
      4 C16         0.7080    0.8290    2.1930 c3        1 6DE      0.139400
      5 C17         1.6220    0.3730    3.3040 c3        1 6DE     -0.126100
      6 C12         2.2000   -0.2890   -0.9880 cc        1 6DE     -0.328900
      7 C18         2.4400   -1.3620   -1.8770 cd        1 6DE      0.012400
      8 C19         2.0260   -2.7690   -1.7620 c3        1 6DE     -0.061800
      9 C10         2.8080    0.8760   -1.6160 cc        1 6DE      0.380600
     10 C11         2.8100    2.2400   -1.0530 c3        1 6DE     -0.127400
     11 N9          3.3720    0.5160   -2.7980 nd        1 6DE     -0.496800
     12 N1          3.1570   -0.8110   -2.9500 na        1 6DE      0.147300
     13 C2          3.6140   -1.5390   -4.0880 ca        1 6DE      0.012800
     14 C3          3.1280   -1.2440   -5.3820 ca        1 6DE      0.033400
     15 Cl4         1.9760   -0.0270   -5.6320 cl        1 6DE     -0.056400
     16 C5          3.5970   -1.9680   -6.4830 ca        1 6DE     -0.124000
     17 C6          4.5370   -2.9800   -6.3090 ca        1 6DE     -0.111000
     18 C7          5.0210   -3.2740   -5.0350 ca        1 6DE     -0.126000
     19 C8          4.5720   -2.5600   -3.9290 ca        1 6DE     -0.114000
     20 H161        0.4150    1.9070    2.3150 h1        1 6DE      0.061200
     21 H162       -0.2060    0.1830    2.1320 h1        1 6DE      0.061200
     22 H171        1.0980    0.4750    4.2840 hc        1 6DE      0.048367
     23 H172        1.9050   -0.6970    3.1520 hc        1 6DE      0.048367
     24 H173        2.5530    0.9880    3.3250 hc        1 6DE      0.048367
     25 H191        1.6350   -2.9550   -0.7280 hc        1 6DE      0.073033
     26 H192        2.8840   -3.4600   -1.9600 hc        1 6DE      0.073033
     27 H193        1.2130   -2.9950   -2.4980 hc        1 6DE      0.073033
     28 H111        1.7520    2.5790   -0.9120 hc        1 6DE      0.060033
     29 H112        3.3450    2.9680   -1.7100 hc        1 6DE      0.060033
     30 H113        3.3020    2.2200   -0.0470 hc        1 6DE      0.060033
     31 H5          3.2190   -1.7330   -7.4910 ha        1 6DE      0.154000
     32 H6          4.9000   -3.5450   -7.1810 ha        1 6DE      0.144000
     33 H7          5.7680   -4.0710   -4.8990 ha        1 6DE      0.144000
     34 H8          4.9720   -2.7910   -2.9290 ha        1 6DE      0.152000
@<TRIPOS>BOND
     1    1    2 2   
     2    2    3 1   
     3    2    6 1   
     4    3    4 1   
     5    4    5 1   
     6    4   20 1   
     7    4   21 1   
     8    5   22 1   
     9    5   23 1   
    10    5   24 1   
    11    6    7 2   
    12    6    9 1   
    13    7    8 1   
    14    7   12 1   
    15    8   25 1   
    16    8   26 1   
    17    8   27 1   
    18    9   10 1   
    19    9   11 2   
    20   10   28 1   
    21   10   29 1   
    22   10   30 1   
    23   11   12 1   
    24   12   13 1   
    25   13   14 ar  
    26   13   19 ar  
    27   14   15 1   
    28   14   16 ar  
    29   16   17 ar  
    30   16   31 1   
    31   17   18 ar  
    32   17   32 1   
    33   18   19 ar  
    34   18   33 1   
    35   19   34 1   
@<TRIPOS>SUBSTRUCTURE
     1 6DE         1 TEMP              0 ****  ****    0 ROOT
