@<TRIPOS>MOLECULE
6DE
   34    35     1     0     0
SMALL
bcc


@<TRIPOS>ATOM
      1 O14         1.0150   -1.3880    0.8100 o         1 6DE     -0.570000
      2 C13         1.5080   -0.3840    0.2780 c         1 6DE      0.689700
      3 O15         1.3940    0.8120    0.9440 os        1 6DE     -0.437900
      4 C16         0.7150    0.8010    2.2080 c3        1 6DE      0.139400
      5 C17         1.6340    0.3430    3.3140 c3        1 6DE     -0.126100
      6 C12         2.2010   -0.2940   -0.9830 cc        1 6DE     -0.328900
      7 C18         2.4420   -1.3620   -1.8790 cd        1 6DE      0.012400
      8 C19         2.0340   -2.7710   -1.7710 c3        1 6DE     -0.061800
      9 C10         2.8030    0.8760   -1.6080 cc        1 6DE      0.380600
     10 C11         2.8020    2.2360   -1.0370 c3        1 6DE     -0.127400
     11 N9          3.3640    0.5250   -2.7930 nd        1 6DE     -0.496800
     12 N1          3.1530   -0.8020   -2.9520 na        1 6DE      0.147300
     13 C2          3.6090   -1.5220   -4.0960 ca        1 6DE      0.012800
     14 C3          3.1170   -1.2220   -5.3860 ca        1 6DE      0.033400
     15 CL4         1.9600   -0.0080   -5.6250 cl        1 6DE     -0.056400
     16 C5          3.5850   -1.9390   -6.4930 ca        1 6DE     -0.124000
     17 C6          4.5290   -2.9480   -6.3280 ca        1 6DE     -0.111000
     18 C7          5.0190   -3.2480   -5.0570 ca        1 6DE     -0.126000
     19 C8          4.5710   -2.5410   -3.9450 ca        1 6DE     -0.114000
     20 H161        0.4180    1.8770    2.3360 h1        1 6DE      0.061200
     21 H162       -0.1970    0.1510    2.1470 h1        1 6DE      0.061200
     22 H171        1.1130    0.4380    4.2960 hc        1 6DE      0.048367
     23 H172        1.9210   -0.7250    3.1550 hc        1 6DE      0.048367
     24 H173        2.5630    0.9610    3.3350 hc        1 6DE      0.048367
     25 H191        1.6470   -2.9640   -0.7360 hc        1 6DE      0.073033
     26 H192        2.8930   -3.4580   -1.9760 hc        1 6DE      0.073033
     27 H193        1.2180   -2.9950   -2.5050 hc        1 6DE      0.073033
     28 H111        1.7430    2.5710   -0.8910 hc        1 6DE      0.060033
     29 H112        3.3320    2.9700   -1.6910 hc        1 6DE      0.060033
     30 H113        3.2960    2.2130   -0.0330 hc        1 6DE      0.060033
     31 H5          3.2020   -1.7000   -7.4980 ha        1 6DE      0.154000
     32 H6          4.8910   -3.5070   -7.2040 ha        1 6DE      0.144000
     33 H7          5.7690   -4.0420   -4.9280 ha        1 6DE      0.144000
     34 H8          4.9760   -2.7760   -2.9480 ha        1 6DE      0.152000
@<TRIPOS>BOND
     1    1    2 2   
     2    2    3 1   
     3    2    6 1   
     4    3    4 1   
     5    4    5 1   
     6    4   20 1   
     7    4   21 1   
     8    5   22 1   
     9    5   23 1   
    10    5   24 1   
    11    6    7 2   
    12    6    9 1   
    13    7    8 1   
    14    7   12 1   
    15    8   25 1   
    16    8   26 1   
    17    8   27 1   
    18    9   10 1   
    19    9   11 2   
    20   10   28 1   
    21   10   29 1   
    22   10   30 1   
    23   11   12 1   
    24   12   13 1   
    25   13   14 ar  
    26   13   19 ar  
    27   14   15 1   
    28   14   16 ar  
    29   16   17 ar  
    30   16   31 1   
    31   17   18 ar  
    32   17   32 1   
    33   18   19 ar  
    34   18   33 1   
    35   19   34 1   
@<TRIPOS>SUBSTRUCTURE
     1 6DE         1 TEMP              0 ****  ****    0 ROOT
