@<TRIPOS>MOLECULE
6DE
   34    29     1     0     0
SMALL
bcc


@<TRIPOS>ATOM
      1 O14        -2.9930   -0.5750    1.4890 o         1 6DE     -0.367000
      2 C13        -1.7500   -0.6050    1.5090 c1        1 6DE      0.390000
      3 O15        -1.0360   -0.6240    2.7950 o         1 6DE     -0.291000
      4 C16        -1.7510   -1.2490    3.8320 c3        1 6DE     -0.010000
      5 C17        -1.3580   -0.6080    5.1860 c3        1 6DE     -0.218000
      6 C12        -0.9500   -0.6040    0.1710 c2        1 6DE     -0.240000
      7 C18        -0.0410    0.3590   -0.2380 c1        1 6DE      0.040000
      8 C19         0.3170    1.6520    0.5280 c2        1 6DE     -0.170500
      9 C10        -1.0750   -1.5070   -0.8240 c1        1 6DE     -0.039000
     10 C11        -1.9650   -2.7110   -0.8160 c2        1 6DE     -0.170500
     11 N9         -0.2840   -1.1350   -1.8150 n2        1 6DE     -0.065000
     12 N1          0.3650    0.0440   -1.4370 n3        1 6DE     -0.086000
     13 C2          1.3240    0.6890   -2.1470 c1        1 6DE      0.061000
     14 C3          0.9570    1.6240   -3.1300 c1        1 6DE     -0.045000
     15 CL4        -0.7290    2.0630   -3.3350 cl        1 6DE      0.026000
     16 C5          1.9290    2.2130   -3.9270 c1        1 6DE     -0.122000
     17 C6          3.2740    1.8760   -3.7510 c1        1 6DE     -0.119000
     18 C7          3.6420    0.9410   -2.7680 c1        1 6DE     -0.119000
     19 C8          2.6670    0.3530   -1.9720 c1        1 6DE     -0.122000
     20 H161       -1.5270   -2.2530    3.8460 h1        1 6DE      0.092000
     21 H162       -2.7760   -1.1230    3.6730 h1        1 6DE      0.092000
     22 H171       -0.4390   -0.5130    5.2270 hc        1 6DE      0.085000
     23 H172       -1.8230    0.3630    5.2710 hc        1 6DE      0.085000
     24 H173       -1.6660   -1.1930    5.9370 hc        1 6DE      0.085000
     25 H191        1.1460    1.5080    1.0470 ha        1 6DE      0.106500
     26 H192       -0.4430    1.8880    1.1610 ha        1 6DE      0.106500
     27 H193        0.4610    2.4280   -0.1450 ha        1 6DE      0.106500
     28 H111       -2.9720   -2.4190   -0.5320 ha        1 6DE      0.106500
     29 H112       -1.6110   -3.3840   -0.1540 ha        1 6DE      0.106500
     30 H113       -1.9810   -3.1270   -1.7550 ha        1 6DE      0.106500
     31 H5          1.6460    2.9310   -4.6820 ha        1 6DE      0.154000
     32 H6          3.9430    2.2810   -4.2980 ha        1 6DE      0.143500
     33 H7          4.5820    0.7040   -2.6440 ha        1 6DE      0.143500
     34 H8          2.9180   -0.2860   -1.3020 ha        1 6DE      0.150000
@<TRIPOS>BOND
     1    1    2 1   
     2    2    6 1   
     3    3    4 1   
     4    4    5 1   
     5    4   20 1   
     6    4   21 1   
     7    5   22 1   
     8    5   23 1   
     9    5   24 1   
    10    6    7 1   
    11    6    9 1   
    12    7   12 1   
    13    8   25 1   
    14    8   26 1   
    15    8   27 1   
    16    9   11 1   
    17   10   28 1   
    18   10   29 1   
    19   10   30 1   
    20   11   12 1   
    21   12   13 1   
    22   13   19 1   
    23   14   15 1   
    24   14   16 1   
    25   16   31 1   
    26   17   18 1   
    27   17   32 1   
    28   18   33 1   
    29   19   34 1   
@<TRIPOS>SUBSTRUCTURE
     1 6DE         1 TEMP              0 ****  ****    0 ROOT
