@<TRIPOS>MOLECULE
6DE
   34    35     1     0     0
SMALL
bcc


@<TRIPOS>ATOM
      1 O14        -1.1770    0.2470    3.8880 o         1 6DE     -0.557000
      2 C13        -0.3570   -0.0160    3.0010 c         1 6DE      0.690700
      3 O15         0.8210   -0.6150    3.3850 os        1 6DE     -0.451900
      4 C16         1.0020   -0.8820    4.7820 c3        1 6DE      0.141400
      5 C17         1.4670    0.3530    5.5150 c3        1 6DE     -0.126100
      6 C12        -0.4600    0.2150    1.5810 cc        1 6DE     -0.328900
      7 C18         0.4920   -0.0590    0.5730 cd        1 6DE      0.011400
      8 C19         1.8190   -0.6790    0.7090 c3        1 6DE     -0.049800
      9 C10        -1.6000    0.8020    0.8860 cc        1 6DE      0.382600
     10 C11        -2.8600    1.2480    1.5130 c3        1 6DE     -0.141400
     11 N9         -1.3350    0.8710   -0.4450 nd        1 6DE     -0.498800
     12 N1         -0.0950    0.3640   -0.6280 na        1 6DE      0.150300
     13 C2          0.5150    0.2740   -1.9150 ca        1 6DE      0.012800
     14 C3         -0.0540   -0.5220   -2.9340 ca        1 6DE      0.034400
     15 CL4        -1.4690   -1.4150   -2.6670 cl        1 6DE     -0.055400
     16 C5          0.5580   -0.5860   -4.1910 ca        1 6DE     -0.124000
     17 C6          1.7270    0.1270   -4.4400 ca        1 6DE     -0.112000
     18 C7          2.2930    0.9150   -3.4370 ca        1 6DE     -0.126000
     19 C8          1.6940    0.9970   -2.1840 ca        1 6DE     -0.115000
     20 H161        1.7900   -1.6830    4.7810 h1        1 6DE      0.060200
     21 H162        0.0490   -1.2770    5.2230 h1        1 6DE      0.060200
     22 H171        1.6890    0.0950    6.5780 hc        1 6DE      0.048367
     23 H172        2.3880    0.7680    5.0420 hc        1 6DE      0.048367
     24 H173        0.6690    1.1350    5.4900 hc        1 6DE      0.048367
     25 H191        2.3370   -0.2500    1.6060 hc        1 6DE      0.069033
     26 H192        1.6960   -1.7800    0.8780 hc        1 6DE      0.069033
     27 H193        2.4570   -0.5210   -0.1960 hc        1 6DE      0.069033
     28 H111       -3.2040    2.2200    1.0800 hc        1 6DE      0.065033
     29 H112       -3.6590    0.4820    1.3410 hc        1 6DE      0.065033
     30 H113       -2.7120    1.3690    2.6160 hc        1 6DE      0.065033
     31 H5          0.1090   -1.2040   -4.9840 ha        1 6DE      0.154000
     32 H6          2.2010    0.0710   -5.4310 ha        1 6DE      0.144000
     33 H7          3.2150    1.4820   -3.6370 ha        1 6DE      0.144000
     34 H8          2.1420    1.6340   -1.4050 ha        1 6DE      0.152000
@<TRIPOS>BOND
     1    1    2 2   
     2    2    3 1   
     3    2    6 1   
     4    3    4 1   
     5    4    5 1   
     6    4   20 1   
     7    4   21 1   
     8    5   22 1   
     9    5   23 1   
    10    5   24 1   
    11    6    7 2   
    12    6    9 1   
    13    7    8 1   
    14    7   12 1   
    15    8   25 1   
    16    8   26 1   
    17    8   27 1   
    18    9   10 1   
    19    9   11 2   
    20   10   28 1   
    21   10   29 1   
    22   10   30 1   
    23   11   12 1   
    24   12   13 1   
    25   13   14 ar  
    26   13   19 ar  
    27   14   15 1   
    28   14   16 ar  
    29   16   17 ar  
    30   16   31 1   
    31   17   18 ar  
    32   17   32 1   
    33   18   19 ar  
    34   18   33 1   
    35   19   34 1   
@<TRIPOS>SUBSTRUCTURE
     1 6DE         1 TEMP              0 ****  ****    0 ROOT
