@<TRIPOS>MOLECULE
6DH
   28    27     1     0     0
SMALL
bcc


@<TRIPOS>ATOM
      1 F01         0.9190    2.1780   -1.4620 f         1 6DH     -0.241633
      2 F02         1.6540    0.1780   -1.0710 f         1 6DH     -0.241633
      3 F           3.0320    1.8500   -1.1080 f         1 6DH     -0.241633
      4 C01         1.7880    1.4810   -0.6550 c3        1 6DH      0.685100
      5 O           6.1740    2.7830    9.2310 oh        1 6DH     -0.794000
      6 C02         2.8410    0.0720    8.3890 cx        1 6DH     -0.117400
      7 C03         4.2570    0.3750    8.0010 cx        1 6DH     -0.117400
      8 N01         1.4830    0.1410    5.6220 nu        1 6DH     -0.626800
      9 C05         2.8380    0.4860    5.8160 c2        1 6DH      0.714200
     10 C06         2.2950    1.2000    1.7630 c1        1 6DH      0.069100
     11 N           3.8260    0.4750    4.9660 ne        1 6DH     -0.664300
     12 C07         1.5410    1.7100    0.8250 c2        1 6DH     -0.290300
     13 C08         0.6260   -1.3770    3.7660 c1        1 6DH     -0.144500
     14 C09         3.0040    0.7160    2.6820 c1        1 6DH     -0.138900
     15 C10         1.0600   -0.6700    4.6330 c1        1 6DH     -0.043200
     16 C           3.8030    0.2180    3.6120 ce        1 6DH      0.165500
     17 H1          6.4210    3.1230    8.3660 ho        1 6DH      0.398000
     18 H2          6.9800    2.8690    9.7480 ho        1 6DH      0.398000
     19 H3          2.4420   -0.9430    8.2130 hc        1 6DH      0.086450
     20 H4          2.4250    0.5240    9.3080 hc        1 6DH      0.086450
     21 H5          4.8640    1.0510    8.6350 hc        1 6DH      0.086450
     22 H6          4.8700   -0.4200    7.5390 hc        1 6DH      0.086450
     23 H7          2.9240    2.0590    7.3020 hc        1 6DH      0.112700
     24 H8          0.9150    0.1290    6.4470 hn        1 6DH      0.446800
     25 H9          0.6690    2.3440    1.0440 ha        1 6DH      0.175000
     26 H11         0.2510   -1.9850    2.9850 ha        1 6DH      0.184500
     27 H12         4.6740   -0.4010    3.2940 h4        1 6DH      0.166000
     28 C04         3.1220    0.9720    7.2140 cx        1 6DH     -0.197000
@<TRIPOS>BOND
     1    1    4 1   
     2    2    4 1   
     3    3    4 1   
     4    4   12 1   
     5    5   17 1   
     6    5   18 1   
     7    6    7 1   
     8    6   19 1   
     9    6   20 1   
    10    6   28 1   
    11    7   21 1   
    12    7   22 1   
    13    7   28 1   
    14    8    9 1   
    15    8   15 1   
    16    8   24 1   
    17    9   11 2   
    18    9   28 1   
    19   10   12 2   
    20   10   14 2   
    21   11   16 1   
    22   12   25 1   
    23   13   15 3   
    24   13   26 1   
    25   14   16 2   
    26   16   27 1   
    27   23   28 1   
@<TRIPOS>SUBSTRUCTURE
     1 6DH         1 TEMP              0 ****  ****    0 ROOT
