@<TRIPOS>MOLECULE
6DH
   28    26     1     0     0
SMALL
bcc


@<TRIPOS>ATOM
      1 F01        -0.0850    2.4340   -1.0250 f         1 6DH     -0.230967
      2 F02         0.7980    0.4900   -1.4040 f         1 6DH     -0.230967
      3 F           1.9320    2.2940   -1.8110 f         1 6DH     -0.230967
      4 C01         1.0890    1.7300   -0.8800 c3        1 6DH      0.757000
      5 O           3.1640    2.6960   11.1590 oh        1 6DH     -0.798000
      6 C02         3.9190    0.5870    8.6890 cx        1 6DH     -0.122900
      7 C03         5.3110    0.4830    8.1460 cx        1 6DH     -0.122900
      8 N01         3.5670   -0.5430    5.9290 nh        1 6DH     -0.641800
      9 C05         3.7280    0.8380    6.0790 c2        1 6DH      0.741200
     10 C06         2.0500    1.6810    1.5970 cg        1 6DH      0.138000
     11 N           3.4620    1.7880    5.2040 nf        1 6DH     -0.504700
     12 C07         1.6160    1.7030    0.4800 c1        1 6DH     -0.263100
     13 C08         2.6670   -1.7350    3.8710 c1        1 6DH     -0.129500
     14 C09         2.5360    1.6490    2.8510 cg        1 6DH     -0.155000
     15 C10         3.0870   -1.1450    4.8280 c1        1 6DH     -0.041200
     16 C           2.9720    1.6120    3.9790 ch        1 6DH      0.097000
     17 H1          3.3040    2.8220   12.1020 ho        1 6DH      0.399500
     18 H2          2.5360    3.3850   10.9280 ho        1 6DH      0.399500
     19 H3          3.2570   -0.2960    8.6750 hc        1 6DH      0.087700
     20 H4          3.7320    1.2150    9.5850 hc        1 6DH      0.087700
     21 H5          6.1270    1.0340    8.6490 hc        1 6DH      0.087700
     22 H6          5.6720   -0.4750    7.7320 hc        1 6DH      0.087700
     23 H7          4.3740    2.4010    7.4470 hc        1 6DH      0.126700
     24 H8          3.8060   -1.1390    6.6940 hn        1 6DH      0.459800
     25 H9          0.1540   -1.5530   -2.6930 ha        1 6DH      0.000500
     26 H11         2.2940   -2.2390    3.0170 ha        1 6DH      0.187500
     27 H12         0.3530   -1.8720   -2.1300 ha        1 6DH      0.000500
     28 C04         4.2760    1.2930    7.4050 cx        1 6DH     -0.187000
@<TRIPOS>BOND
     1    1    4 1   
     2    2    4 1   
     3    3    4 1   
     4    4   12 1   
     5    5   17 1   
     6    5   18 1   
     7    6    7 1   
     8    6   19 1   
     9    6   20 1   
    10    6   28 1   
    11    7   21 1   
    12    7   22 1   
    13    7   28 1   
    14    8    9 1   
    15    8   15 1   
    16    8   24 1   
    17    9   11 2   
    18    9   28 1   
    19   10   12 3   
    20   10   14 1   
    21   11   16 1   
    22   13   15 3   
    23   13   26 1   
    24   14   16 3   
    25   23   28 1   
    26   25   27 1   
@<TRIPOS>SUBSTRUCTURE
     1 6DH         1 TEMP              0 ****  ****    0 ROOT
