@<TRIPOS>MOLECULE
6DJ
   37    38     1     0     0
SMALL
bcc


@<TRIPOS>ATOM
      1 O2          0.0210    0.4950    0.2550 oh        1 6DJ     -0.606800
      2 C2          1.4110    0.3520    0.0040 c3        1 6DJ      0.073100
      3 C3          2.0320   -0.1600    1.3120 c3        1 6DJ      0.112100
      4 O3          1.5510   -1.4550    1.6350 oh        1 6DJ     -0.612800
      5 C1          2.0380    1.7100   -0.3590 c3        1 6DJ      0.172800
      6 N5          3.4780    1.7030   -0.4380 nh        1 6DJ     -0.711600
      7 C5          4.1720    1.0450    0.6670 c3        1 6DJ      0.209500
      8 C4          3.5550   -0.2940    1.1470 c3        1 6DJ      0.124100
      9 O4          3.8840   -1.3080    0.2150 oh        1 6DJ     -0.596800
     10 S6          5.8410    1.1530   -1.4170 ss        1 6DJ     -0.272300
     11 C6          5.6530    0.8540    0.3230 c3        1 6DJ     -0.016300
     12 C7          4.1400    1.5560   -1.6910 c2        1 6DJ      0.669100
     13 N8          3.5660    1.7780   -2.8300 n2        1 6DJ     -0.660900
     14 C9          4.2840    1.7990   -4.0690 c3        1 6DJ      0.132800
     15 C10         4.9810    0.5030   -4.4880 c3        1 6DJ     -0.105400
     16 C11         5.6400    0.6790   -5.8390 c3        1 6DJ     -0.076400
     17 C12         6.3270   -0.5870   -6.2820 c3        1 6DJ     -0.092100
     18 H1         -0.3800    0.8060   -0.5650 ho        1 6DJ      0.415000
     19 H2          1.5780   -0.4030   -0.8140 h1        1 6DJ      0.070700
     20 H3          1.7920    0.5490    2.1510 h1        1 6DJ      0.059700
     21 H4          0.5870   -1.4140    1.5780 ho        1 6DJ      0.431000
     22 H5          1.5910    2.0750   -1.3240 h1        1 6DJ      0.075200
     23 H6          1.7600    2.4490    0.4490 h1        1 6DJ      0.075200
     24 H7          4.0800    1.7570    1.5430 h1        1 6DJ      0.077700
     25 H8          4.0080   -0.5550    2.1460 h1        1 6DJ      0.056700
     26 H9          3.3590   -2.0860    0.4510 ho        1 6DJ      0.428000
     27 H10         6.2840    1.5730    0.8960 h1        1 6DJ      0.088200
     28 H11         5.9890   -0.1850    0.5540 h1        1 6DJ      0.088200
     29 H12         3.5080    2.0560   -4.8480 h1        1 6DJ      0.052200
     30 H13         5.0500    2.6300   -4.0660 h1        1 6DJ      0.052200
     31 H14         4.2350   -0.3330   -4.5370 hc        1 6DJ      0.055200
     32 H15         5.7530    0.2190   -3.7220 hc        1 6DJ      0.055200
     33 H16         6.3880    1.5140   -5.7860 hc        1 6DJ      0.038200
     34 H17         4.8670    0.9740   -6.5980 hc        1 6DJ      0.038200
     35 H18         6.8090   -0.4380   -7.2780 hc        1 6DJ      0.034033
     36 H19         7.1150   -0.8860   -5.5490 hc        1 6DJ      0.034033
     37 H20         5.5930   -1.4250   -6.3670 hc        1 6DJ      0.034033
@<TRIPOS>BOND
     1    1    2 1   
     2    1   18 1   
     3    2    3 1   
     4    2    5 1   
     5    2   19 1   
     6    3    4 1   
     7    3    8 1   
     8    3   20 1   
     9    4   21 1   
    10    5    6 1   
    11    5   22 1   
    12    5   23 1   
    13    6    7 1   
    14    6   12 1   
    15    7    8 1   
    16    7   11 1   
    17    7   24 1   
    18    8    9 1   
    19    8   25 1   
    20    9   26 1   
    21   10   11 1   
    22   10   12 1   
    23   11   27 1   
    24   11   28 1   
    25   12   13 2   
    26   13   14 1   
    27   14   15 1   
    28   14   29 1   
    29   14   30 1   
    30   15   16 1   
    31   15   31 1   
    32   15   32 1   
    33   16   17 1   
    34   16   33 1   
    35   16   34 1   
    36   17   35 1   
    37   17   36 1   
    38   17   37 1   
@<TRIPOS>SUBSTRUCTURE
     1 6DJ         1 TEMP              0 ****  ****    0 ROOT
