@<TRIPOS>MOLECULE
6DJ
   37    38     1     0     0
SMALL
bcc


@<TRIPOS>ATOM
      1 O2          0.0390    0.4940    0.2900 oh        1 6DJ     -0.606800
      2 C2          1.4260    0.3490    0.0260 c3        1 6DJ      0.073100
      3 C3          2.0570   -0.1710    1.3250 c3        1 6DJ      0.112100
      4 O3          1.5760   -1.4660    1.6470 oh        1 6DJ     -0.612800
      5 C1          2.0530    1.7080   -0.3360 c3        1 6DJ      0.172800
      6 N5          3.4920    1.6970   -0.4290 nh        1 6DJ     -0.711600
      7 C5          4.1940    1.0320    0.6670 c3        1 6DJ      0.209500
      8 C4          3.5780   -0.3080    1.1460 c3        1 6DJ      0.124100
      9 O4          3.8960   -1.3170    0.2060 oh        1 6DJ     -0.596800
     10 S6          5.8450    1.1460   -1.4310 ss        1 6DJ     -0.272300
     11 C6          5.6720    0.8400    0.3090 c3        1 6DJ     -0.016300
     12 C7          4.1430    1.5550   -1.6890 c2        1 6DJ      0.669100
     13 N8          3.5590    1.7840   -2.8210 n2        1 6DJ     -0.660900
     14 C9          4.2650    1.8080   -4.0670 c3        1 6DJ      0.132800
     15 C10         4.9560    0.5140   -4.4980 c3        1 6DJ     -0.105400
     16 C11         5.6020    0.6940   -5.8540 c3        1 6DJ     -0.076400
     17 C12         6.2830   -0.5710   -6.3090 c3        1 6DJ     -0.092100
     18 H1         -0.3690    0.8110   -0.5260 ho        1 6DJ      0.415000
     19 H2          1.5840   -0.4020   -0.7980 h1        1 6DJ      0.070700
     20 H3          1.8260    0.5350    2.1700 h1        1 6DJ      0.059700
     21 H4          0.6110   -1.4230    1.5980 ho        1 6DJ      0.431000
     22 H5          1.5990    2.0790   -1.2960 h1        1 6DJ      0.075200
     23 H6          1.7850    2.4430    0.4780 h1        1 6DJ      0.075200
     24 H7          4.1120    1.7400    1.5470 h1        1 6DJ      0.077700
     25 H8          4.0390   -0.5750    2.1390 h1        1 6DJ      0.056700
     26 H9          3.3710   -2.0950    0.4430 ho        1 6DJ      0.428000
     27 H10         6.3100    1.5540    0.8790 h1        1 6DJ      0.088200
     28 H11         6.0070   -0.2020    0.5320 h1        1 6DJ      0.088200
     29 H12         3.4820    2.0710   -4.8370 h1        1 6DJ      0.052200
     30 H13         5.0320    2.6390   -4.0660 h1        1 6DJ      0.052200
     31 H14         5.7360    0.2260   -3.7410 hc        1 6DJ      0.055200
     32 H15         4.2090   -0.3210   -4.5430 hc        1 6DJ      0.055200
     33 H16         4.8220    0.9930   -6.6040 hc        1 6DJ      0.038200
     34 H17         6.3510    1.5290   -5.8060 hc        1 6DJ      0.038200
     35 H18         6.7550   -0.4180   -7.3100 hc        1 6DJ      0.034033
     36 H19         5.5480   -1.4080   -6.3890 hc        1 6DJ      0.034033
     37 H20         7.0790   -0.8720   -5.5850 hc        1 6DJ      0.034033
@<TRIPOS>BOND
     1    1    2 1   
     2    1   18 1   
     3    2    3 1   
     4    2    5 1   
     5    2   19 1   
     6    3    4 1   
     7    3    8 1   
     8    3   20 1   
     9    4   21 1   
    10    5    6 1   
    11    5   22 1   
    12    5   23 1   
    13    6    7 1   
    14    6   12 1   
    15    7    8 1   
    16    7   11 1   
    17    7   24 1   
    18    8    9 1   
    19    8   25 1   
    20    9   26 1   
    21   10   11 1   
    22   10   12 1   
    23   11   27 1   
    24   11   28 1   
    25   12   13 2   
    26   13   14 1   
    27   14   15 1   
    28   14   29 1   
    29   14   30 1   
    30   15   16 1   
    31   15   31 1   
    32   15   32 1   
    33   16   17 1   
    34   16   33 1   
    35   16   34 1   
    36   17   35 1   
    37   17   36 1   
    38   17   37 1   
@<TRIPOS>SUBSTRUCTURE
     1 6DJ         1 TEMP              0 ****  ****    0 ROOT
