@<TRIPOS>MOLECULE
6DJ
   37    38     1     0     0
SMALL
bcc


@<TRIPOS>ATOM
      1 O2          0.0210    0.4900    0.2520 oh        1 6DJ     -0.606800
      2 C2          1.4110    0.3490    0.0030 c3        1 6DJ      0.073100
      3 C3          2.0320   -0.1600    1.3120 c3        1 6DJ      0.112100
      4 O3          1.5530   -1.4550    1.6360 oh        1 6DJ     -0.612800
      5 C1          2.0370    1.7080   -0.3610 c3        1 6DJ      0.172800
      6 N5          3.4760    1.7040   -0.4390 nh        1 6DJ     -0.711600
      7 C5          4.1700    1.0480    0.6680 c3        1 6DJ      0.209500
      8 C4          3.5550   -0.2910    1.1490 c3        1 6DJ      0.124100
      9 O4          3.8870   -1.3050    0.2180 oh        1 6DJ     -0.596800
     10 S6          5.8420    1.1570   -1.4140 ss        1 6DJ     -0.272300
     11 C6          5.6530    0.8600    0.3260 c3        1 6DJ     -0.016300
     12 C7          4.1400    1.5560   -1.6910 c2        1 6DJ      0.669100
     13 N8          3.5670    1.7760   -2.8310 n2        1 6DJ     -0.660900
     14 C9          4.2850    1.7960   -4.0690 c3        1 6DJ      0.132800
     15 C10         4.9840    0.5010   -4.4850 c3        1 6DJ     -0.105400
     16 C11         5.6440    0.6750   -5.8360 c3        1 6DJ     -0.076400
     17 C12         6.3330   -0.5910   -6.2770 c3        1 6DJ     -0.092100
     18 H1         -0.3800    0.8000   -0.5690 ho        1 6DJ      0.415000
     19 H2          1.5810   -0.4060   -0.8150 h1        1 6DJ      0.070700
     20 H3          1.7900    0.5500    2.1500 h1        1 6DJ      0.059700
     21 H4          0.5890   -1.4170    1.5770 ho        1 6DJ      0.431000
     22 H5          1.7570    2.4470    0.4460 h1        1 6DJ      0.075200
     23 H6          1.5900    2.0720   -1.3270 h1        1 6DJ      0.075200
     24 H7          4.0760    1.7610    1.5430 h1        1 6DJ      0.077700
     25 H8          4.0070   -0.5510    2.1480 h1        1 6DJ      0.056700
     26 H9          3.3630   -2.0840    0.4550 ho        1 6DJ      0.428000
     27 H10         6.2820    1.5810    0.8980 h1        1 6DJ      0.088200
     28 H11         5.9900   -0.1780    0.5590 h1        1 6DJ      0.088200
     29 H12         5.0500    2.6280   -4.0660 h1        1 6DJ      0.052200
     30 H13         3.5100    2.0510   -4.8490 h1        1 6DJ      0.052200
     31 H14         5.7570    0.2190   -3.7190 hc        1 6DJ      0.055200
     32 H15         4.2410   -0.3370   -4.5330 hc        1 6DJ      0.055200
     33 H16         6.3900    1.5120   -5.7850 hc        1 6DJ      0.038200
     34 H17         4.8710    0.9670   -6.5960 hc        1 6DJ      0.038200
     35 H18         5.6010   -1.4310   -6.3600 hc        1 6DJ      0.034033
     36 H19         6.8150   -0.4430   -7.2730 hc        1 6DJ      0.034033
     37 H20         7.1220   -0.8860   -5.5430 hc        1 6DJ      0.034033
@<TRIPOS>BOND
     1    1    2 1   
     2    1   18 1   
     3    2    3 1   
     4    2    5 1   
     5    2   19 1   
     6    3    4 1   
     7    3    8 1   
     8    3   20 1   
     9    4   21 1   
    10    5    6 1   
    11    5   22 1   
    12    5   23 1   
    13    6    7 1   
    14    6   12 1   
    15    7    8 1   
    16    7   11 1   
    17    7   24 1   
    18    8    9 1   
    19    8   25 1   
    20    9   26 1   
    21   10   11 1   
    22   10   12 1   
    23   11   27 1   
    24   11   28 1   
    25   12   13 2   
    26   13   14 1   
    27   14   15 1   
    28   14   29 1   
    29   14   30 1   
    30   15   16 1   
    31   15   31 1   
    32   15   32 1   
    33   16   17 1   
    34   16   33 1   
    35   16   34 1   
    36   17   35 1   
    37   17   36 1   
    38   17   37 1   
@<TRIPOS>SUBSTRUCTURE
     1 6DJ         1 TEMP              0 ****  ****    0 ROOT
