@<TRIPOS>MOLECULE
6DR
   50    52     1     0     0
SMALL
bcc


@<TRIPOS>ATOM
      1 N1         -0.3280    0.1320    0.0870 nb        1 6DR     -0.659000
      2 C2          1.0270    0.1120    0.1460 ca        1 6DR      0.725900
      3 N3          1.8220    0.2160    1.2740 nb        1 6DR     -0.633000
      4 C4          1.1930    0.3550    2.4500 ca        1 6DR      0.533600
      5 C5         -0.2580    0.3940    2.5260 ca        1 6DR     -0.013600
      6 C6         -0.9570    0.2760    1.2980 ca        1 6DR      0.466200
      7 CAA         3.4580    0.4270    3.6040 c3        1 6DR     -0.102100
      8 CAB        -5.1360   -1.1770    8.3740 c3        1 6DR      0.108700
      9 NAC         1.7600   -0.0400   -1.1440 n4        1 6DR     -0.813300
     10 NAD        -2.4330    0.3010    1.2850 n4        1 6DR     -0.817300
     11 CAE        -1.5530    0.6680    4.7550 c1        1 6DR      0.168900
     12 CAF        -0.9390    0.5410    3.7220 cg        1 6DR     -0.346000
     13 CAG        -7.3300    1.6190    0.5930 ca        1 6DR      0.400200
     14 CAH        -6.0800    3.5020    1.0260 ca        1 6DR      0.400200
     15 CAI        -6.9490    1.0220    1.8090 ca        1 6DR     -0.261300
     16 CAJ        -5.6380    2.9910    2.2590 ca        1 6DR     -0.261300
     17 CAK        -6.5270    0.4350    4.7460 ca        1 6DR     -0.047000
     18 CAL        -6.0950   -0.1290    5.9400 ca        1 6DR     -0.178000
     19 CAM        -4.3010    1.2670    4.3210 ca        1 6DR     -0.136000
     20 CAN         1.9580    0.4770    3.7340 c3        1 6DR     -0.148700
     21 CAO        -2.4020    0.8150    5.8980 c3        1 6DR     -0.006000
     22 NAP        -6.8980    2.8300    0.1920 nb        1 6DR     -0.641000
     23 OAS        -4.2170   -0.5650    7.4640 os        1 6DR     -0.334900
     24 CAV        -6.0770    1.7190    2.6570 cp        1 6DR     -0.028000
     25 CAW        -5.6330    1.1340    3.9190 cp        1 6DR     -0.080000
     26 CAX        -3.8370    0.6840    5.5030 ca        1 6DR     -0.148300
     27 CAZ        -4.7470   -0.0170    6.3230 ca        1 6DR      0.172100
     28 HAA         3.7960   -0.5420    3.1650 hc        1 6DR      0.067700
     29 HAAA        3.9140    0.5270    4.6220 hc        1 6DR      0.067700
     30 HAAB        3.8390    1.2630    2.9690 hc        1 6DR      0.067700
     31 HAB        -5.9060   -0.4400    8.7080 h1        1 6DR      0.066367
     32 HABA       -4.4770   -1.4800    9.2280 h1        1 6DR      0.066367
     33 HABB       -5.6110   -2.0700    7.9010 h1        1 6DR      0.066367
     34 HNAC        2.3730    0.7790   -1.2800 hn        1 6DR      0.496800
     35 HNAA        1.1020   -0.1130   -1.9340 hn        1 6DR      0.496800
     36 HNAD       -2.7980   -0.6190    0.9950 hn        1 6DR      0.492133
     37 HNAB       -2.7770    1.0170    0.6280 hn        1 6DR      0.492133
     38 HAG        -8.0300    1.1060   -0.0950 h4        1 6DR      0.044100
     39 HAH        -5.7790    4.5130    0.6910 h4        1 6DR      0.044100
     40 HAI        -7.3500    0.0380    2.0920 ha        1 6DR      0.152500
     41 HAJ        -5.0080    3.6040    2.9180 ha        1 6DR      0.152500
     42 HAK        -7.5870    0.3470    4.4520 ha        1 6DR      0.167000
     43 HAL        -6.8150   -0.6570    6.5850 ha        1 6DR      0.171000
     44 HAM        -3.6120    1.8810    3.7200 ha        1 6DR      0.101000
     45 HAN         1.6050   -0.3550    4.4090 hc        1 6DR      0.102700
     46 HANA        1.6480    1.4510    4.2120 hc        1 6DR      0.102700
     47 HAO        -2.2260    1.8250    6.3800 hc        1 6DR      0.137200
     48 HAOA       -2.1350    0.0360    6.6770 hc        1 6DR      0.137200
     49 HAC3        2.3420   -0.8920   -1.1010 hn        1 6DR      0.496800
     50 HAD3       -2.7810    0.5190    2.2380 hn        1 6DR      0.492133
@<TRIPOS>BOND
     1    1    2 ar  
     2    1    6 ar  
     3    2    3 ar  
     4    2    9 1   
     5    3    4 ar  
     6    4    5 ar  
     7    4   20 1   
     8    5    6 ar  
     9    5   12 1   
    10    6   10 1   
    11    7   20 1   
    12    7   28 1   
    13    7   29 1   
    14    7   30 1   
    15    8   23 1   
    16    8   31 1   
    17    8   32 1   
    18    8   33 1   
    19    9   34 1   
    20    9   35 1   
    21    9   49 1   
    22   10   36 1   
    23   10   37 1   
    24   10   50 1   
    25   11   12 3   
    26   11   21 1   
    27   13   15 ar  
    28   13   22 ar  
    29   13   38 1   
    30   14   16 ar  
    31   14   22 ar  
    32   14   39 1   
    33   15   24 ar  
    34   15   40 1   
    35   16   24 ar  
    36   16   41 1   
    37   17   18 ar  
    38   17   25 ar  
    39   17   42 1   
    40   18   27 ar  
    41   18   43 1   
    42   19   25 ar  
    43   19   26 ar  
    44   19   44 1   
    45   20   45 1   
    46   20   46 1   
    47   21   26 1   
    48   21   47 1   
    49   21   48 1   
    50   23   27 1   
    51   24   25 1   
    52   26   27 ar  
@<TRIPOS>SUBSTRUCTURE
     1 6DR         1 TEMP              0 ****  ****    0 ROOT
