@<TRIPOS>MOLECULE
6DR
   48    50     1     0     0
SMALL
bcc


@<TRIPOS>ATOM
      1 N1         -1.0230   -1.6440    1.0080 n2        1 6DR     -0.302000
      2 C2          0.3410   -1.7730    0.8240 c2        1 6DR      0.201000
      3 N3          1.3150   -1.5130    1.7840 n2        1 6DR     -0.263000
      4 C4          0.8870   -1.0580    2.9760 c2        1 6DR      0.120000
      5 C5         -0.4880   -0.8720    3.2750 c2        1 6DR     -0.205000
      6 C6         -1.4340   -1.2010    2.2360 c2        1 6DR      0.216000
      7 CAA         2.7640    0.4440    3.6410 c3        1 6DR     -0.205000
      8 CAB        -1.7580    0.9250    9.9730 c3        1 6DR     -0.058000
      9 NAC         0.7790   -2.1410   -0.4470 nv        1 6DR     -0.332000
     10 NAD        -2.7930   -1.1250    2.4890 nv        1 6DR     -0.344000
     11 CAE        -1.3210   -0.0070    5.5780 c1        1 6DR     -0.201000
     12 CAF        -0.9290   -0.4040    4.5150 c1        1 6DR     -0.073000
     13 CAG        -3.7860   -5.5040    5.8710 c2        1 6DR     -0.069500
     14 CAH        -2.5140   -6.5740    7.4590 c2        1 6DR     -0.069500
     15 CAI        -3.2140   -4.2560    6.1750 c2        1 6DR     -0.172500
     16 CAJ        -1.8800   -5.3780    7.8360 c2        1 6DR     -0.172500
     17 CAK        -0.1790   -2.8960    7.7500 c2        1 6DR      0.020000
     18 CAL         0.4620   -1.7480    8.1080 c2        1 6DR     -0.248000
     19 CAM        -2.3350   -1.7780    7.6640 c2        1 6DR     -0.056000
     20 CAN         1.9260   -0.7500    4.0240 c3        1 6DR     -0.125000
     21 CAO        -1.7920    0.5120    6.8200 c3        1 6DR     -0.036000
     22 NAP        -3.4520   -6.6500    6.4940 n2        1 6DR     -0.135000
     23 OAS        -2.4720    0.0810    9.0810 os        1 6DR     -0.264000
     24 CAV        -2.2380   -4.1910    7.1800 c2        1 6DR     -0.000000
     25 CAW        -1.6140   -2.9180    7.5380 c2        1 6DR     -0.108000
     26 CAX        -1.6750   -0.4740    8.0180 c3        1 6DR      0.043000
     27 CAZ        -0.2420   -0.5550    8.4000 c1        1 6DR     -0.063000
     28 HAA         2.1230    1.3450    3.4850 hc        1 6DR      0.081333
     29 HAAA        3.3330    0.2480    2.7010 hc        1 6DR      0.081333
     30 HAAB        3.4940    0.6670    4.4580 hc        1 6DR      0.081333
     31 HAB        -1.1950    1.7130    9.4180 h1        1 6DR      0.080667
     32 HABA       -2.5640    1.3780   10.6060 h1        1 6DR      0.080667
     33 HABB       -1.0530    0.3230   10.5960 h1        1 6DR      0.080667
     34 HNAC        1.7200   -2.4440   -0.5350 hn        1 6DR      0.229000
     35 HNAA        0.1130   -2.5420   -1.0640 hn        1 6DR      0.229000
     36 HNAD       -3.4240   -1.1790    1.7250 hn        1 6DR      0.225000
     37 HNAB       -3.0660   -0.5700    3.2650 hn        1 6DR      0.225000
     38 HAG        -4.5550   -5.5930    5.0820 h4        1 6DR      0.161500
     39 HAH        -2.2600   -7.5270    7.9570 h4        1 6DR      0.161500
     40 HAI        -3.5200   -3.3550    5.6280 ha        1 6DR      0.146000
     41 HAJ        -1.1280   -5.3770    8.6360 ha        1 6DR      0.146000
     42 HAK         0.3640   -3.8490    7.6220 ha        1 6DR      0.140000
     43 HAL         1.5560   -1.7360    8.2490 ha        1 6DR      0.153000
     44 HAM        -3.4240   -1.7470    7.5060 ha        1 6DR      0.151000
     45 HAN         2.5880   -1.6480    4.1600 hc        1 6DR      0.103000
     46 HANA        1.4160   -0.5570    5.0050 hc        1 6DR      0.103000
     47 HAO        -1.2200    1.4440    7.0910 hc        1 6DR      0.122000
     48 HAOA       -2.8800    0.7920    6.7320 hc        1 6DR      0.122000
@<TRIPOS>BOND
     1    1    2 1   
     2    1    6 1   
     3    2    3 1   
     4    2    9 1   
     5    3    4 1   
     6    4    5 1   
     7    4   20 1   
     8    5    6 1   
     9    5   12 1   
    10    6   10 1   
    11    7   20 1   
    12    7   28 1   
    13    7   29 1   
    14    7   30 1   
    15    8   23 1   
    16    8   31 1   
    17    8   32 1   
    18    8   33 1   
    19    9   34 1   
    20    9   35 1   
    21   10   36 1   
    22   10   37 1   
    23   11   12 1   
    24   11   21 1   
    25   13   15 1   
    26   13   22 1   
    27   13   38 1   
    28   14   16 1   
    29   14   22 1   
    30   14   39 1   
    31   15   24 1   
    32   15   40 1   
    33   16   24 1   
    34   16   41 1   
    35   17   18 1   
    36   17   25 1   
    37   17   42 1   
    38   18   27 1   
    39   18   43 1   
    40   19   25 1   
    41   19   26 1   
    42   19   44 1   
    43   20   45 1   
    44   20   46 1   
    45   21   26 1   
    46   21   47 1   
    47   21   48 1   
    48   23   26 1   
    49   24   25 1   
    50   26   27 1   
@<TRIPOS>SUBSTRUCTURE
     1 6DR         1 TEMP              0 ****  ****    0 ROOT
