@<TRIPOS>MOLECULE
6DR
   48    50     1     0     0
SMALL
bcc


@<TRIPOS>ATOM
      1 N1         -3.9970   -2.2680   -1.6820 nb        1 6DR     -0.831000
      2 C2         -4.7850   -2.5590   -0.5850 ca        1 6DR      0.916900
      3 N3         -4.7100   -1.9330    0.6550 nb        1 6DR     -0.792000
      4 C4         -3.8230   -0.9270    0.7750 ca        1 6DR      0.539600
      5 C5         -2.9810   -0.5180   -0.2900 ca        1 6DR     -0.338600
      6 C6         -3.0920   -1.2510   -1.5310 ca        1 6DR      0.745200
      7 CAA        -3.2210   -1.1240    3.1910 c3        1 6DR     -0.087100
      8 CAB         2.4030    5.5930    0.2360 c3        1 6DR      0.112700
      9 NAC        -5.7770   -3.5260   -0.7540 nh        1 6DR     -0.932500
     10 NAD        -2.2420   -0.9650   -2.5790 nh        1 6DR     -0.955500
     11 CAE        -1.2940    1.4450   -0.0780 c1        1 6DR     -0.155100
     12 CAF        -2.0750    0.5380   -0.1700 cg        1 6DR     -0.090000
     13 CAG         4.8620   -2.4820   -0.9250 ca        1 6DR      0.393200
     14 CAH         3.1370   -3.1260    0.4500 ca        1 6DR      0.393200
     15 CAI         4.4630   -1.1350   -0.8850 ca        1 6DR     -0.240800
     16 CAJ         2.6560   -1.8100    0.5550 ca        1 6DR     -0.240800
     17 CAK         3.8020    1.6470    0.0130 ca        1 6DR     -0.080000
     18 CAL         3.3710    2.9690    0.0880 ca        1 6DR     -0.203000
     19 CAM         1.5050    0.8910   -0.0420 ca        1 6DR     -0.076000
     20 CAN        -3.7420   -0.2180    2.1020 c3        1 6DR     -0.139700
     21 CAO        -0.4000    2.5570    0.0390 c3        1 6DR      0.058000
     22 NAP         4.2200   -3.4710   -0.2740 nb        1 6DR     -0.666000
     23 OAS         1.4680    4.5220    0.1620 os        1 6DR     -0.328900
     24 CAV         3.3340   -0.7870   -0.1270 cp        1 6DR      0.011000
     25 CAW         2.8780    0.5980   -0.0520 cp        1 6DR     -0.082000
     26 CAX         1.0490    2.2040    0.0270 ca        1 6DR     -0.102300
     27 CAZ         2.0010    3.2490    0.0940 ca        1 6DR      0.128100
     28 HAA        -3.1320   -0.5500    4.1460 hc        1 6DR      0.040367
     29 HAAA       -3.9120   -1.9850    3.3580 hc        1 6DR      0.040367
     30 HAAB       -2.2140   -1.5250    2.9240 hc        1 6DR      0.040367
     31 HAB         3.0290    5.5070    1.1570 h1        1 6DR      0.046367
     32 HABA        3.0470    5.6180   -0.6760 h1        1 6DR      0.046367
     33 HABB        1.7510    6.5020    0.2840 h1        1 6DR      0.046367
     34 HNAC       -5.6910   -4.1350   -1.5340 hn        1 6DR      0.430800
     35 HNAA       -6.1840   -3.9040    0.0690 hn        1 6DR      0.430800
     36 HNAD       -1.7280   -0.1190   -2.5320 hn        1 6DR      0.437300
     37 HNAB       -2.4080   -1.3660   -3.4690 hn        1 6DR      0.437300
     38 HAG         5.7450   -2.7890   -1.5130 h4        1 6DR      0.021600
     39 HAH         2.6270   -3.9540    0.9750 h4        1 6DR      0.021600
     40 HAI         5.0220   -0.3740   -1.4440 ha        1 6DR      0.145500
     41 HAJ         1.7700   -1.5890    1.1650 ha        1 6DR      0.145500
     42 HAK         4.8810    1.4280    0.0140 ha        1 6DR      0.138000
     43 HAL         4.1130    3.7780    0.1430 ha        1 6DR      0.140000
     44 HAM         0.7730    0.0670   -0.0960 ha        1 6DR      0.152000
     45 HAN        -3.0720    0.6780    2.0030 hc        1 6DR      0.063700
     46 HANA       -4.7650    0.1570    2.3800 hc        1 6DR      0.063700
     47 HAO        -0.5960    3.2850   -0.8030 hc        1 6DR      0.077200
     48 HAOA       -0.6230    3.1110    0.9980 hc        1 6DR      0.077200
@<TRIPOS>BOND
     1    1    2 ar  
     2    1    6 ar  
     3    2    3 ar  
     4    2    9 1   
     5    3    4 ar  
     6    4    5 ar  
     7    4   20 1   
     8    5    6 ar  
     9    5   12 1   
    10    6   10 1   
    11    7   20 1   
    12    7   28 1   
    13    7   29 1   
    14    7   30 1   
    15    8   23 1   
    16    8   31 1   
    17    8   32 1   
    18    8   33 1   
    19    9   34 1   
    20    9   35 1   
    21   10   36 1   
    22   10   37 1   
    23   11   12 3   
    24   11   21 1   
    25   13   15 ar  
    26   13   22 ar  
    27   13   38 1   
    28   14   16 ar  
    29   14   22 ar  
    30   14   39 1   
    31   15   24 ar  
    32   15   40 1   
    33   16   24 ar  
    34   16   41 1   
    35   17   18 ar  
    36   17   25 ar  
    37   17   42 1   
    38   18   27 ar  
    39   18   43 1   
    40   19   25 ar  
    41   19   26 ar  
    42   19   44 1   
    43   20   45 1   
    44   20   46 1   
    45   21   26 1   
    46   21   47 1   
    47   21   48 1   
    48   23   27 1   
    49   24   25 1   
    50   26   27 ar  
@<TRIPOS>SUBSTRUCTURE
     1 6DR         1 TEMP              0 ****  ****    0 ROOT
