@<TRIPOS>MOLECULE
6DR
   48    41     1     0     0
SMALL
bcc


@<TRIPOS>ATOM
      1 N1          3.9760   -0.4950   -3.2680 n1        1 6DR     -0.306000
      2 C2          4.2810    0.7440   -3.7800 c1        1 6DR      0.199000
      3 N3          3.7860    1.8720   -3.1830 n1        1 6DR     -0.263000
      4 C4          3.0030    1.7700   -2.0970 c1        1 6DR      0.118000
      5 C5          2.6960    0.5250   -1.5830 c1        1 6DR     -0.214000
      6 C6          3.1930   -0.6020   -2.1820 c2        1 6DR      0.226000
      7 CAA         2.8760    4.2340   -2.2750 c3        1 6DR     -0.201000
      8 CAB         0.7610   -3.9690    2.2890 c3        1 6DR     -0.077000
      9 NAC         5.1960    0.8560   -4.8710 n3        1 6DR     -0.330000
     10 NAD         3.1670   -2.0360   -1.9040 n3        1 6DR     -0.352000
     11 CAE         1.3960    0.3310    0.8040 c1        1 6DR     -0.138000
     12 CAF         1.9660    0.4150   -0.2470 c1        1 6DR     -0.138000
     13 CAG        -6.2810    0.3420    0.1190 c1        1 6DR     -0.073000
     14 CAH        -6.1980    1.2640    2.2990 c1        1 6DR     -0.122500
     15 CAI        -5.0430   -0.2410    0.3110 c1        1 6DR     -0.129000
     16 CAJ        -4.9490    0.6770    2.4940 c1        1 6DR     -0.122500
     17 CAK        -2.9920   -2.1470    1.9400 c1        1 6DR     -0.129000
     18 CAL        -1.7540   -2.7810    2.1620 c1        1 6DR     -0.203000
     19 CAM        -1.8580    0.0010    1.7480 c1        1 6DR     -0.077000
     20 CAN         2.4140    3.0010   -1.4830 c3        1 6DR     -0.122000
     21 CAO         0.6750    0.2260    2.1390 c2        1 6DR     -0.001000
     22 NAP        -6.8510    1.0940    1.1200 n1        1 6DR     -0.139000
     23 OAS         0.6620   -2.5560    2.5090 os        1 6DR     -0.212000
     24 CAV        -4.3820   -0.0700    1.5010 c1        1 6DR     -0.036000
     25 CAW        -3.0430   -0.7580    1.7340 c1        1 6DR     -0.036000
     26 CAX        -0.6180   -0.6330    1.9700 c2        1 6DR     -0.094000
     27 CAZ        -0.5670   -2.0230    2.1770 c2        1 6DR      0.083000
     28 HAA         2.6620    5.0620   -1.7610 hc        1 6DR      0.079333
     29 HAAA        3.8380    4.1840   -2.4230 hc        1 6DR      0.079333
     30 HAAB        2.4070    4.2570   -3.1520 hc        1 6DR      0.079333
     31 HAB         0.3000   -4.4540    3.0260 h1        1 6DR      0.086000
     32 HABA        0.3330   -4.2010    1.4200 h1        1 6DR      0.086000
     33 HABB        1.6820   -4.2240    2.2680 h1        1 6DR      0.086000
     34 HNAC        5.5560    0.1200   -5.2280 hn        1 6DR      0.226500
     35 HNAA        5.4500    1.6780   -5.1690 hn        1 6DR      0.226500
     36 HNAD        2.5900   -2.3720   -1.2670 hn        1 6DR      0.232000
     37 HNAB        3.7070   -2.6100   -2.3850 hn        1 6DR      0.232000
     38 HAG        -6.7500    0.2200   -0.7270 ha        1 6DR      0.158000
     39 HAH        -6.6000    1.7940    3.0040 ha        1 6DR      0.154000
     40 HAI        -4.6410   -0.7710   -0.3960 ha        1 6DR      0.140500
     41 HAJ        -4.4780    0.7990    3.3420 ha        1 6DR      0.154000
     42 HAK        -3.8190   -2.6760    1.9300 ha        1 6DR      0.140500
     43 HAL        -1.7180   -3.7570    2.3060 ha        1 6DR      0.140000
     44 HAM        -1.8960    0.9930    1.6010 ha        1 6DR      0.150000
     45 HAN         2.7100    3.0770   -0.5660 hc        1 6DR      0.102500
     46 HANA        1.4440    2.9440   -1.5070 hc        1 6DR      0.102500
     47 HAO         1.2680   -0.2010    2.7970 ha        1 6DR      0.117000
     48 HAOA        0.4400    1.0980    2.4430 ha        1 6DR      0.117000
@<TRIPOS>BOND
     1    1    6 1   
     2    2    3 1   
     3    2    9 1   
     4    4    5 1   
     5    4   20 1   
     6    5    6 1   
     7    6   10 1   
     8    7   20 1   
     9    7   28 1   
    10    7   29 1   
    11    7   30 1   
    12    8   23 1   
    13    8   31 1   
    14    8   32 1   
    15    8   33 1   
    16    9   34 1   
    17    9   35 1   
    18   10   36 1   
    19   10   37 1   
    20   11   12 1   
    21   13   22 1   
    22   13   38 1   
    23   14   16 1   
    24   14   39 1   
    25   15   24 1   
    26   15   40 1   
    27   16   41 1   
    28   17   25 1   
    29   17   42 1   
    30   18   27 1   
    31   18   43 1   
    32   19   26 1   
    33   19   44 1   
    34   20   45 1   
    35   20   46 1   
    36   21   26 1   
    37   21   47 1   
    38   21   48 1   
    39   23   27 1   
    40   24   25 1   
    41   26   27 1   
@<TRIPOS>SUBSTRUCTURE
     1 6DR         1 TEMP              0 ****  ****    0 ROOT
