@<TRIPOS>MOLECULE
6DS
   73    74     1     0     0
SMALL
bcc


@<TRIPOS>ATOM
      1 C1         -0.2340   -0.0150    0.0910 ca        1 6DS      0.145100
      2 O1         -2.8210   -1.6390   -2.6150 oh        1 6DS     -0.606800
      3 C2          1.1160   -0.4350    0.0490 ca        1 6DS     -0.118300
      4 O2         -6.5070    2.9270   -3.1930 o         1 6DS     -0.847300
      5 C3          1.9050   -0.2780    1.1870 ca        1 6DS     -0.103000
      6 C4          1.3970    0.2930    2.3610 ca        1 6DS     -0.120300
      7 C5          0.0530    0.6860    2.3820 ca        1 6DS     -0.095000
      8 C6         -0.7610    0.5430    1.2620 ca        1 6DS     -0.199000
      9 C7          1.2530    5.1660    6.7320 ce        1 6DS     -0.027200
     10 C8         -1.6750    5.8100    5.2760 c3        1 6DS      0.607400
     11 C9          2.0400    2.7360    8.0560 c3        1 6DS     -0.057800
     12 C10         2.2460    0.4020    3.6050 c3        1 6DS      0.052600
     13 C11         1.9080    1.6200    4.4340 ca        1 6DS     -0.042300
     14 C12         2.0580   -0.9130    4.3920 c3        1 6DS     -0.067900
     15 C13         3.7540    0.4980    3.2880 c3        1 6DS     -0.067900
     16 C14         4.1330    1.6570    2.4050 c3        1 6DS     -0.099600
     17 C16        -5.8410    2.2140   -2.3900 c         1 6DS      0.910600
     18 C17        -4.5020    1.6360   -2.8880 c3        1 6DS     -0.202400
     19 C20         0.6730   -1.1190    4.9440 c3        1 6DS     -0.099600
     20 C26         2.0880    1.6220    5.8220 ca        1 6DS     -0.133000
     21 C27         1.8450    2.7660    6.5880 ca        1 6DS     -0.059300
     22 C28         1.4050    3.9440    5.9560 ca        1 6DS     -0.108800
     23 C29         1.2300    3.9490    4.5680 ca        1 6DS     -0.105000
     24 C30         1.4860    2.8070    3.8160 ca        1 6DS     -0.122000
     25 C34         1.6660   -1.0280   -1.1910 c3        1 6DS     -0.036800
     26 C43         0.1710    5.8700    7.0720 c2        1 6DS     -0.200200
     27 C44        -1.2800    5.6480    6.8100 c3        1 6DS      0.153000
     28 O47        -1.9520    6.6750    7.5190 oh        1 6DS     -0.566800
     29 C48        -1.8260    4.2690    7.3840 c3        1 6DS      0.607400
     30 O62        -0.9420   -0.1970   -1.0740 os        1 6DS     -0.349900
     31 C63        -2.3430    0.1310   -1.0260 c3        1 6DS      0.086400
     32 C64        -2.8930   -0.2320   -2.4100 c3        1 6DS      0.140100
     33 C67        -4.3580    0.1810   -2.5130 c3        1 6DS     -0.066400
     34 O71        -6.1910    1.9680   -1.2000 o         1 6DS     -0.847300
     35 F2         -2.9250    6.3630    5.1440 f         1 6DS     -0.219633
     36 F1         -0.8480    6.6470    4.5790 f         1 6DS     -0.219633
     37 F3         -1.7200    4.6540    4.5520 f         1 6DS     -0.219633
     38 F6         -1.2490    3.9020    8.5700 f         1 6DS     -0.219633
     39 F5         -3.1690    4.3480    7.6690 f         1 6DS     -0.219633
     40 F4         -1.7020    3.1840    6.5670 f         1 6DS     -0.219633
     41 H1         -1.8990   -1.8860   -2.4830 ho        1 6DS      0.392000
     42 H3          2.9490   -0.6230    1.1430 ha        1 6DS      0.126000
     43 H4         -0.3780    1.1140    3.3020 ha        1 6DS      0.141000
     44 H5         -1.8100    0.8700    1.3070 ha        1 6DS      0.157000
     45 H6          2.2310    5.5540    7.0930 ha        1 6DS      0.136000
     46 H7          2.4370    1.7490    8.3960 hc        1 6DS      0.045367
     47 H8          1.0660    2.9240    8.5760 hc        1 6DS      0.045367
     48 H9          2.7610    3.5340    8.3680 hc        1 6DS      0.045367
     49 H10         2.3020   -1.7590    3.6930 hc        1 6DS      0.036950
     50 H11         2.8080   -0.9540    5.2250 hc        1 6DS      0.036950
     51 H12         4.0890   -0.4630    2.8160 hc        1 6DS      0.036950
     52 H13         4.3010    0.5880    4.2660 hc        1 6DS      0.036950
     53 H14         3.5900    1.6120    1.4290 hc        1 6DS      0.039200
     54 H15         5.2310    1.6380    2.2010 hc        1 6DS      0.039200
     55 H16         3.8810    2.6280    2.8970 hc        1 6DS      0.039200
     56 H17        -3.6860    2.2440   -2.4200 hc        1 6DS      0.022200
     57 H18        -4.4300    1.7630   -3.9970 hc        1 6DS      0.022200
     58 H19         0.6320   -2.0730    5.5230 hc        1 6DS      0.039200
     59 H20        -0.0770   -1.1750    4.1170 hc        1 6DS      0.039200
     60 H21         0.3820   -0.2800    5.6220 hc        1 6DS      0.039200
     61 H22         2.4300    0.7110    6.3370 ha        1 6DS      0.135000
     62 H23         0.8760    4.8650    4.0670 ha        1 6DS      0.141000
     63 H24         1.3550    2.8380    2.7220 ha        1 6DS      0.156000
     64 H25         1.0020   -1.8550   -1.5480 hc        1 6DS      0.041367
     65 H26         1.7060   -0.2530   -1.9980 hc        1 6DS      0.041367
     66 H27         2.6940   -1.4330   -1.0290 hc        1 6DS      0.041367
     67 H28         0.3210    6.7950    7.6700 ha        1 6DS      0.159000
     68 H29        -2.9060    6.5840    7.3620 ho        1 6DS      0.440000
     69 H30        -2.8420   -0.4760   -0.2280 h1        1 6DS      0.064200
     70 H31        -2.4720    1.2260   -0.8280 h1        1 6DS      0.064200
     71 H32        -2.2760    0.2830   -3.2000 h1        1 6DS      0.036700
     72 H33        -4.8570   -0.4690   -3.2770 hc        1 6DS      0.063700
     73 H34        -4.8730   -0.0000   -1.5310 hc        1 6DS      0.063700
@<TRIPOS>BOND
     1    1    3 ar  
     2    1    8 ar  
     3    1   30 1   
     4    2   32 1   
     5    2   41 1   
     6    3    5 ar  
     7    3   25 1   
     8    4   17 1   
     9    5    6 ar  
    10    5   42 1   
    11    6    7 ar  
    12    6   12 1   
    13    7    8 ar  
    14    7   43 1   
    15    8   44 1   
    16    9   22 1   
    17    9   26 2   
    18    9   45 1   
    19   10   27 1   
    20   10   35 1   
    21   10   36 1   
    22   10   37 1   
    23   11   21 1   
    24   11   46 1   
    25   11   47 1   
    26   11   48 1   
    27   12   13 1   
    28   12   14 1   
    29   12   15 1   
    30   13   20 ar  
    31   13   24 ar  
    32   14   19 1   
    33   14   49 1   
    34   14   50 1   
    35   15   16 1   
    36   15   51 1   
    37   15   52 1   
    38   16   53 1   
    39   16   54 1   
    40   16   55 1   
    41   17   18 1   
    42   17   34 1   
    43   18   33 1   
    44   18   56 1   
    45   18   57 1   
    46   19   58 1   
    47   19   59 1   
    48   19   60 1   
    49   20   21 ar  
    50   20   61 1   
    51   21   22 ar  
    52   22   23 ar  
    53   23   24 ar  
    54   23   62 1   
    55   24   63 1   
    56   25   64 1   
    57   25   65 1   
    58   25   66 1   
    59   26   27 1   
    60   26   67 1   
    61   27   28 1   
    62   27   29 1   
    63   28   68 1   
    64   29   38 1   
    65   29   39 1   
    66   29   40 1   
    67   30   31 1   
    68   31   32 1   
    69   31   69 1   
    70   31   70 1   
    71   32   33 1   
    72   32   71 1   
    73   33   72 1   
    74   33   73 1   
@<TRIPOS>SUBSTRUCTURE
     1 6DS         1 TEMP              0 ****  ****    0 ROOT
