@<TRIPOS>MOLECULE
6DS
   73    65     1     0     0
SMALL
bcc


@<TRIPOS>ATOM
      1 C1         -1.0890   -0.8180   -2.7480 c1        1 6DS      0.068000
      2 O1         -2.4760   -1.2050   -6.4410 oh        1 6DS     -0.360000
      3 C2          0.2000   -1.3450   -2.7650 c2        1 6DS     -0.086000
      4 O2         -5.8770   -4.2320   -8.0270 o         1 6DS     -0.579500
      5 C3          0.9900   -1.3270   -1.5860 c1        1 6DS     -0.126000
      6 C4          0.4880   -0.7950   -0.4380 c1        1 6DS     -0.084000
      7 C5         -0.8210   -0.2600   -0.4200 c1        1 6DS     -0.104000
      8 C6         -1.6000   -0.2770   -1.5830 c1        1 6DS     -0.144000
      9 C7          0.3740    2.5690    5.4410 c1        1 6DS     -0.115500
     10 C8          1.1210    5.4710    3.8360 c3        1 6DS      0.381500
     11 C9          1.9730    0.2160    5.4290 c3        1 6DS     -0.182000
     12 C10         1.3200   -0.8920    0.9070 c2        1 6DS      0.038000
     13 C11         0.9690    0.3370    1.8360 c2        1 6DS     -0.043000
     14 C12         0.9440   -2.2920    1.6780 c3        1 6DS     -0.146500
     15 C13         2.8310   -0.8740    0.5760 c3        1 6DS     -0.146500
     16 C14         3.2490   -2.2640   -0.0700 c3        1 6DS     -0.214000
     17 C16        -6.2750   -3.1500   -7.4980 c1        1 6DS      0.332000
     18 C17        -5.2720   -2.0350   -7.2130 c2        1 6DS     -0.235000
     19 C20         1.2210   -3.4790    0.7540 c3        1 6DS     -0.214000
     20 C26         1.5860   -0.0670    3.0150 c2        1 6DS     -0.140000
     21 C27         1.4590    0.7110    4.1740 c1        1 6DS     -0.052000
     22 C28         0.7220    1.8810    4.1460 c1        1 6DS     -0.084000
     23 C29         0.1090    2.2810    2.9710 c1        1 6DS     -0.104000
     24 C30         0.2360    1.4990    1.8070 c1        1 6DS     -0.126000
     25 C34         0.8890   -1.8660   -4.0510 c3        1 6DS     -0.192000
     26 C43         0.9100    3.8110    5.7280 c1        1 6DS     -0.115500
     27 C44         1.8950    4.5140    4.6790 c2        1 6DS      0.088000
     28 O47         2.4810    3.5270    3.8550 oh        1 6DS     -0.259000
     29 C48         3.0040    5.2770    5.4310 c3        1 6DS      0.381500
     30 O62        -1.8050   -0.5530   -3.9610 o         1 6DS     -0.231000
     31 C63        -2.9990   -1.3500   -4.1180 c3        1 6DS     -0.023000
     32 C64        -3.5410   -1.1820   -5.5260 c3        1 6DS      0.020000
     33 C67        -4.5160   -2.3400   -5.8490 c3        1 6DS     -0.181000
     34 O71        -7.4500   -3.0650   -7.0540 o         1 6DS     -0.579500
     35 F2          1.3780    5.2500    2.5890 f         1 6DS     -0.152333
     36 F1         -0.1910    5.3050    4.0580 f         1 6DS     -0.152333
     37 F3          1.4680    6.7100    4.1440 f         1 6DS     -0.152333
     38 F6          2.6160    5.5260    6.6330 f         1 6DS     -0.152333
     39 F5          4.1410    4.5190    5.4690 f         1 6DS     -0.152333
     40 F4          3.2620    6.4400    4.7900 f         1 6DS     -0.152333
     41 H1         -2.5210   -0.4420   -7.0010 ho        1 6DS      0.213000
     42 H3          1.8800   -1.6920   -1.5990 ha        1 6DS      0.131000
     43 H4         -1.1810    0.1220    0.4040 ha        1 6DS      0.136000
     44 H5         -2.5180    0.0960   -1.5710 ha        1 6DS      0.146000
     45 H6         -0.2280    2.1350    6.0800 ha        1 6DS      0.140500
     46 H7          2.6400   -0.4870    5.2560 hc        1 6DS      0.082667
     47 H8          2.4130    0.9860    5.9470 hc        1 6DS      0.082667
     48 H9          1.2490   -0.1490    5.9490 hc        1 6DS      0.082667
     49 H10         1.4720   -2.3730    2.4630 hc        1 6DS      0.078750
     50 H11         0.0310   -2.2850    1.9120 hc        1 6DS      0.078750
     51 H12         3.3690   -0.7200    1.4350 hc        1 6DS      0.078750
     52 H13         3.0120   -0.1640   -0.0480 hc        1 6DS      0.078750
     53 H14         2.4720   -2.7820   -0.2360 hc        1 6DS      0.077167
     54 H15         3.7180   -2.1040   -0.9090 hc        1 6DS      0.077167
     55 H16         3.8300   -2.7400    0.5390 hc        1 6DS      0.077167
     56 H17        -4.6190   -1.9870   -7.9440 ha        1 6DS      0.061500
     57 H18        -5.7410   -1.1880   -7.1420 ha        1 6DS      0.061500
     58 H19         2.1500   -3.7760    0.8710 hc        1 6DS      0.077167
     59 H20         1.0820   -3.2140   -0.1540 hc        1 6DS      0.077167
     60 H21         0.6120   -4.2170    0.9780 hc        1 6DS      0.077167
     61 H22         2.1190   -0.8700    3.0280 ha        1 6DS      0.133000
     62 H23        -0.4370    3.1460    2.9480 ha        1 6DS      0.136000
     63 H24        -0.2060    1.7710    0.9920 ha        1 6DS      0.156000
     64 H25         1.0760   -1.1000   -4.6610 hc        1 6DS      0.096333
     65 H26         1.7190   -2.3030   -3.8180 hc        1 6DS      0.096333
     66 H27         0.2870   -2.5170   -4.5090 hc        1 6DS      0.096333
     67 H28         0.6790    4.2740    6.5960 ha        1 6DS      0.140500
     68 H29         3.3220    3.7340    3.7060 ho        1 6DS      0.231000
     69 H30        -2.7830   -2.2960   -3.9630 h1        1 6DS      0.088000
     70 H31        -3.6600   -1.0640   -3.4810 h1        1 6DS      0.088000
     71 H32        -4.0120   -0.3290   -5.5950 h1        1 6DS      0.092000
     72 H33        -3.9870   -3.2130   -5.9420 hc        1 6DS      0.100500
     73 H34        -5.1650   -2.4290   -5.1320 hc        1 6DS      0.100500
@<TRIPOS>BOND
     1    1    3 1   
     2    1    8 1   
     3    2   32 1   
     4    2   41 1   
     5    3    5 1   
     6    3   25 1   
     7    4   17 1   
     8    5   42 1   
     9    6    7 1   
    10    7   43 1   
    11    8   44 1   
    12    9   26 1   
    13    9   45 1   
    14   10   27 1   
    15   10   35 1   
    16   10   36 1   
    17   10   37 1   
    18   11   21 1   
    19   11   46 1   
    20   11   47 1   
    21   11   48 1   
    22   12   13 1   
    23   12   14 1   
    24   12   15 1   
    25   13   20 1   
    26   13   24 1   
    27   14   19 1   
    28   14   49 1   
    29   14   50 1   
    30   15   16 1   
    31   15   51 1   
    32   15   52 1   
    33   16   53 1   
    34   16   54 1   
    35   16   55 1   
    36   17   34 1   
    37   18   33 1   
    38   18   56 1   
    39   18   57 1   
    40   19   58 1   
    41   19   59 1   
    42   19   60 1   
    43   20   21 1   
    44   20   61 1   
    45   22   23 1   
    46   23   62 1   
    47   24   63 1   
    48   25   64 1   
    49   25   65 1   
    50   25   66 1   
    51   26   67 1   
    52   27   28 1   
    53   27   29 1   
    54   28   68 1   
    55   29   38 1   
    56   29   39 1   
    57   29   40 1   
    58   30   31 1   
    59   31   32 1   
    60   31   69 1   
    61   31   70 1   
    62   32   33 1   
    63   32   71 1   
    64   33   72 1   
    65   33   73 1   
@<TRIPOS>SUBSTRUCTURE
     1 6DS         1 TEMP              0 ****  ****    0 ROOT
