@<TRIPOS>MOLECULE
6DS
   73    74     1     0     0
SMALL
bcc


@<TRIPOS>ATOM
      1 C1         -3.9980    1.4090    0.3450 ca        1 6DS      0.151100
      2 O1         -7.6000   -0.6740   -0.9180 oh        1 6DS     -0.640800
      3 C2         -3.8920    2.6980    0.9220 ca        1 6DS     -0.114300
      4 O2         -9.2490   -4.8710   -0.3360 o         1 6DS     -0.846800
      5 C3         -2.7160    3.4220    0.7430 ca        1 6DS     -0.101000
      6 C4         -1.6340    2.9030    0.0170 ca        1 6DS     -0.127300
      7 C5         -1.7690    1.6350   -0.5590 ca        1 6DS     -0.098000
      8 C6         -2.9320    0.8860   -0.3980 ca        1 6DS     -0.208000
      9 C7          4.4560    0.5500   -0.2590 ce        1 6DS     -0.015200
     10 C8          5.8020   -2.4880    1.2930 c3        1 6DS      0.628400
     11 C9          4.2710    2.9230   -1.9220 c3        1 6DS     -0.059800
     12 C10        -0.3890    3.7210   -0.2210 c3        1 6DS      0.051600
     13 C11         0.8560    2.8650   -0.2830 ca        1 6DS     -0.029300
     14 C12        -0.6160    4.5230   -1.5200 c3        1 6DS     -0.068400
     15 C13        -0.1420    4.7670    0.8880 c3        1 6DS     -0.068400
     16 C14        -0.0200    4.1910    2.2740 c3        1 6DS     -0.099600
     17 C16        -8.5550   -3.8320   -0.5040 c         1 6DS      0.908600
     18 C17        -8.1910   -2.9950    0.7350 c3        1 6DS     -0.207400
     19 C20        -0.7240    3.6830   -2.7640 c3        1 6DS     -0.099600
     20 C26         1.9580    3.2400   -1.0610 ca        1 6DS     -0.139000
     21 C27         3.1370    2.4890   -1.0710 ca        1 6DS     -0.051300
     22 C28         3.2290    1.3290   -0.2790 ca        1 6DS     -0.100800
     23 C29         2.1300    0.9550    0.5070 ca        1 6DS     -0.102000
     24 C30         0.9650    1.7130    0.5110 ca        1 6DS     -0.131000
     25 C34        -5.0260    3.2510    1.6960 c3        1 6DS     -0.040800
     26 C43         4.5150   -0.7660   -0.0120 c2        1 6DS     -0.269200
     27 C44         5.7930   -1.5320    0.0220 c3        1 6DS      0.140000
     28 O47         6.9570   -0.7390    0.0820 oh        1 6DS     -0.559800
     29 C48         5.9650   -2.3840   -1.3040 c3        1 6DS      0.628400
     30 O62        -5.1810    0.7550    0.5800 os        1 6DS     -0.321900
     31 C63        -5.3590   -0.5020   -0.0970 c3        1 6DS      0.093400
     32 C64        -6.8020   -0.9460    0.2130 c3        1 6DS      0.162100
     33 C67        -6.8000   -2.4120    0.6380 c3        1 6DS     -0.090400
     34 O71        -8.1460   -3.4330   -1.6390 o         1 6DS     -0.846800
     35 F2          6.7940   -3.4300    1.2800 f         1 6DS     -0.220633
     36 F1          6.0070   -1.7800    2.4510 f         1 6DS     -0.220633
     37 F3          4.6450   -3.1880    1.4930 f         1 6DS     -0.220633
     38 F6          6.0300   -1.6130   -2.4320 f         1 6DS     -0.220633
     39 F5          7.1030   -3.1430   -1.3270 f         1 6DS     -0.220633
     40 F4          4.9380   -3.2620   -1.5190 f         1 6DS     -0.220633
     41 H1         -7.7840   -1.5180   -1.3780 ho        1 6DS      0.470000
     42 H3         -2.6550    4.4280    1.1850 ha        1 6DS      0.126000
     43 H4         -0.9450    1.2170   -1.1600 ha        1 6DS      0.132000
     44 H5         -3.0060   -0.1080   -0.8630 ha        1 6DS      0.146000
     45 H6          5.3820    1.1180   -0.4740 ha        1 6DS      0.133000
     46 H7          5.1340    3.2440   -1.2860 hc        1 6DS      0.046367
     47 H8          4.6110    2.0850   -2.5800 hc        1 6DS      0.046367
     48 H9          3.9810    3.7840   -2.5750 hc        1 6DS      0.046367
     49 H10        -1.5690    5.1050   -1.3900 hc        1 6DS      0.038950
     50 H11         0.2100    5.2730   -1.6390 hc        1 6DS      0.038950
     51 H12         0.8050    5.3150    0.6340 hc        1 6DS      0.038950
     52 H13        -0.9710    5.5220    0.8640 hc        1 6DS      0.038950
     53 H14         0.8630    3.5090    2.3430 hc        1 6DS      0.038867
     54 H15         0.1110    5.0150    3.0180 hc        1 6DS      0.038867
     55 H16        -0.9320    3.6070    2.5470 hc        1 6DS      0.038867
     56 H17        -8.9530   -2.1790    0.8280 hc        1 6DS      0.035200
     57 H18        -8.2700   -3.6460    1.6410 hc        1 6DS      0.035200
     58 H19         0.1910    3.0590   -2.9100 hc        1 6DS      0.038867
     59 H20        -1.6060    2.9990   -2.7030 hc        1 6DS      0.038867
     60 H21        -0.8500    4.3410   -3.6580 hc        1 6DS      0.038867
     61 H22         1.9080    4.1460   -1.6850 ha        1 6DS      0.138000
     62 H23         2.1910    0.0540    1.1380 ha        1 6DS      0.136000
     63 H24         0.1170    1.4080    1.1470 ha        1 6DS      0.157000
     64 H25        -5.1660    2.6620    2.6380 hc        1 6DS      0.044700
     65 H26        -4.8560    4.3220    1.9620 hc        1 6DS      0.044700
     66 H27        -5.9710    3.1670    1.1020 hc        1 6DS      0.044700
     67 H28         3.6150   -1.3800    0.1600 ha        1 6DS      0.169000
     68 H29         6.8500   -0.1270    0.8260 ho        1 6DS      0.436000
     69 H30        -5.2240   -0.3610   -1.2000 h1        1 6DS      0.045200
     70 H31        -4.6060   -1.2310    0.3000 h1        1 6DS      0.045200
     71 H32        -7.2160   -0.2980    1.0390 h1        1 6DS      0.053700
     72 H33        -6.2760   -2.4850    1.6270 hc        1 6DS      0.037700
     73 H34        -6.2100   -3.0050   -0.1120 hc        1 6DS      0.037700
@<TRIPOS>BOND
     1    1    3 ar  
     2    1    8 ar  
     3    1   30 1   
     4    2   32 1   
     5    2   41 1   
     6    3    5 ar  
     7    3   25 1   
     8    4   17 1   
     9    5    6 ar  
    10    5   42 1   
    11    6    7 ar  
    12    6   12 1   
    13    7    8 ar  
    14    7   43 1   
    15    8   44 1   
    16    9   22 1   
    17    9   26 2   
    18    9   45 1   
    19   10   27 1   
    20   10   35 1   
    21   10   36 1   
    22   10   37 1   
    23   11   21 1   
    24   11   46 1   
    25   11   47 1   
    26   11   48 1   
    27   12   13 1   
    28   12   14 1   
    29   12   15 1   
    30   13   20 ar  
    31   13   24 ar  
    32   14   19 1   
    33   14   49 1   
    34   14   50 1   
    35   15   16 1   
    36   15   51 1   
    37   15   52 1   
    38   16   53 1   
    39   16   54 1   
    40   16   55 1   
    41   17   18 1   
    42   17   34 1   
    43   18   33 1   
    44   18   56 1   
    45   18   57 1   
    46   19   58 1   
    47   19   59 1   
    48   19   60 1   
    49   20   21 ar  
    50   20   61 1   
    51   21   22 ar  
    52   22   23 ar  
    53   23   24 ar  
    54   23   62 1   
    55   24   63 1   
    56   25   64 1   
    57   25   65 1   
    58   25   66 1   
    59   26   27 1   
    60   26   67 1   
    61   27   28 1   
    62   27   29 1   
    63   28   68 1   
    64   29   38 1   
    65   29   39 1   
    66   29   40 1   
    67   30   31 1   
    68   31   32 1   
    69   31   69 1   
    70   31   70 1   
    71   32   33 1   
    72   32   71 1   
    73   33   72 1   
    74   33   73 1   
@<TRIPOS>SUBSTRUCTURE
     1 6DS         1 TEMP              0 ****  ****    0 ROOT
