@<TRIPOS>MOLECULE
6DS
   73    74     1     0     0
SMALL
bcc


@<TRIPOS>ATOM
      1 C1         -0.2280   -0.0290    0.1000 ca        1 6DS      0.145100
      2 O1         -2.8080   -1.6770   -2.5970 oh        1 6DS     -0.606800
      3 C2          1.1230   -0.4460    0.0600 ca        1 6DS     -0.118300
      4 O2         -6.5170    2.8660   -3.1960 o         1 6DS     -0.847300
      5 C3          1.9110   -0.2800    1.1980 ca        1 6DS     -0.103000
      6 C4          1.4020    0.2960    2.3690 ca        1 6DS     -0.120300
      7 C5          0.0560    0.6850    2.3880 ca        1 6DS     -0.095000
      8 C6         -0.7570    0.5340    1.2680 ca        1 6DS     -0.199000
      9 C7          1.2430    5.1930    6.7130 ce        1 6DS     -0.027200
     10 C8         -1.6860    5.8200    5.2520 c3        1 6DS      0.607400
     11 C9          2.0370    2.7720    8.0500 c3        1 6DS     -0.057800
     12 C10         2.2500    0.4140    3.6120 c3        1 6DS      0.052600
     13 C11         1.9080    1.6360    4.4340 ca        1 6DS     -0.042300
     14 C12         2.0660   -0.8980    4.4060 c3        1 6DS     -0.067900
     15 C13         3.7580    0.5130    3.2950 c3        1 6DS     -0.067900
     16 C14         4.1340    1.6680    2.4050 c3        1 6DS     -0.099600
     17 C16        -5.8480    2.1610   -2.3900 c         1 6DS      0.910600
     18 C17        -4.5050    1.5870   -2.8860 c3        1 6DS     -0.202400
     19 C20         0.6810   -1.1040    4.9590 c3        1 6DS     -0.099600
     20 C26         2.0880    1.6460    5.8220 ca        1 6DS     -0.133000
     21 C27         1.8420    2.7940    6.5820 ca        1 6DS     -0.059300
     22 C28         1.3990    3.9660    5.9430 ca        1 6DS     -0.108800
     23 C29         1.2240    3.9640    4.5550 ca        1 6DS     -0.105000
     24 C30         1.4840    2.8180    3.8100 ca        1 6DS     -0.122000
     25 C34         1.6750   -1.0430   -1.1760 c3        1 6DS     -0.036800
     26 C43         0.1600    5.8960    7.0490 c2        1 6DS     -0.200200
     27 C44        -1.2910    5.6680    6.7870 c3        1 6DS      0.153000
     28 O47        -1.9660    6.6970    7.4910 oh        1 6DS     -0.566800
     29 C48        -1.8340    4.2900    7.3690 c3        1 6DS      0.607400
     30 O62        -0.9360   -0.2190   -1.0630 os        1 6DS     -0.349900
     31 C63        -2.3380    0.1030   -1.0170 c3        1 6DS      0.086400
     32 C64        -2.8870   -0.2700   -2.3990 c3        1 6DS      0.140100
     33 C67        -4.3540    0.1350   -2.5030 c3        1 6DS     -0.066400
     34 O71        -6.1960    1.9190   -1.1980 o         1 6DS     -0.847300
     35 F2         -2.9380    6.3700    5.1170 f         1 6DS     -0.219633
     36 F1         -0.8610    6.6550    4.5510 f         1 6DS     -0.219633
     37 F3         -1.7280    4.6600    4.5350 f         1 6DS     -0.219633
     38 F6         -1.2550    3.9310    8.5560 f         1 6DS     -0.219633
     39 F5         -3.1770    4.3680    7.6530 f         1 6DS     -0.219633
     40 F4         -1.7070    3.2020    6.5570 f         1 6DS     -0.219633
     41 H1         -1.8840   -1.9190   -2.4640 ho        1 6DS      0.392000
     42 H3          2.9570   -0.6220    1.1560 ha        1 6DS      0.126000
     43 H4         -0.3760    1.1160    3.3050 ha        1 6DS      0.141000
     44 H5         -1.8080    0.8580    1.3110 ha        1 6DS      0.157000
     45 H6          2.2200    5.5850    7.0720 ha        1 6DS      0.136000
     46 H7          2.4370    1.7880    8.3950 hc        1 6DS      0.045367
     47 H8          1.0620    2.9600    8.5690 hc        1 6DS      0.045367
     48 H9          2.7550    3.5740    8.3580 hc        1 6DS      0.045367
     49 H10         2.3130   -1.7460    3.7120 hc        1 6DS      0.036950
     50 H11         2.8160   -0.9310    5.2400 hc        1 6DS      0.036950
     51 H12         4.0960   -0.4500    2.8280 hc        1 6DS      0.036950
     52 H13         4.3040    0.6100    4.2720 hc        1 6DS      0.036950
     53 H14         3.5900    1.6160    1.4300 hc        1 6DS      0.039200
     54 H15         5.2320    1.6510    2.2020 hc        1 6DS      0.039200
     55 H16         3.8790    2.6410    2.8930 hc        1 6DS      0.039200
     56 H17        -3.6920    2.2020   -2.4220 hc        1 6DS      0.022200
     57 H18        -4.4350    1.7090   -3.9950 hc        1 6DS      0.022200
     58 H19         0.6440   -2.0550    5.5440 hc        1 6DS      0.039200
     59 H20        -0.0690   -1.1670    4.1330 hc        1 6DS      0.039200
     60 H21         0.3880   -0.2620    5.6320 hc        1 6DS      0.039200
     61 H22         2.4330    0.7380    6.3420 ha        1 6DS      0.135000
     62 H23         0.8680    4.8760    4.0490 ha        1 6DS      0.141000
     63 H24         1.3520    2.8420    2.7160 ha        1 6DS      0.156000
     64 H25         1.0120   -1.8720   -1.5300 hc        1 6DS      0.041367
     65 H26         1.7160   -0.2710   -1.9860 hc        1 6DS      0.041367
     66 H27         2.7030   -1.4470   -1.0120 hc        1 6DS      0.041367
     67 H28         0.3060    6.8240    7.6410 ha        1 6DS      0.159000
     68 H29        -2.9200    6.6020    7.3340 ho        1 6DS      0.440000
     69 H30        -2.8340   -0.5020   -0.2160 h1        1 6DS      0.064200
     70 H31        -2.4720    1.1980   -0.8250 h1        1 6DS      0.064200
     71 H32        -2.2730    0.2440   -3.1910 h1        1 6DS      0.036700
     72 H33        -4.8500   -0.5210   -3.2640 hc        1 6DS      0.063700
     73 H34        -4.8680   -0.0440   -1.5200 hc        1 6DS      0.063700
@<TRIPOS>BOND
     1    1    3 ar  
     2    1    8 ar  
     3    1   30 1   
     4    2   32 1   
     5    2   41 1   
     6    3    5 ar  
     7    3   25 1   
     8    4   17 1   
     9    5    6 ar  
    10    5   42 1   
    11    6    7 ar  
    12    6   12 1   
    13    7    8 ar  
    14    7   43 1   
    15    8   44 1   
    16    9   22 1   
    17    9   26 2   
    18    9   45 1   
    19   10   27 1   
    20   10   35 1   
    21   10   36 1   
    22   10   37 1   
    23   11   21 1   
    24   11   46 1   
    25   11   47 1   
    26   11   48 1   
    27   12   13 1   
    28   12   14 1   
    29   12   15 1   
    30   13   20 ar  
    31   13   24 ar  
    32   14   19 1   
    33   14   49 1   
    34   14   50 1   
    35   15   16 1   
    36   15   51 1   
    37   15   52 1   
    38   16   53 1   
    39   16   54 1   
    40   16   55 1   
    41   17   18 1   
    42   17   34 1   
    43   18   33 1   
    44   18   56 1   
    45   18   57 1   
    46   19   58 1   
    47   19   59 1   
    48   19   60 1   
    49   20   21 ar  
    50   20   61 1   
    51   21   22 ar  
    52   22   23 ar  
    53   23   24 ar  
    54   23   62 1   
    55   24   63 1   
    56   25   64 1   
    57   25   65 1   
    58   25   66 1   
    59   26   27 1   
    60   26   67 1   
    61   27   28 1   
    62   27   29 1   
    63   28   68 1   
    64   29   38 1   
    65   29   39 1   
    66   29   40 1   
    67   30   31 1   
    68   31   32 1   
    69   31   69 1   
    70   31   70 1   
    71   32   33 1   
    72   32   71 1   
    73   33   72 1   
    74   33   73 1   
@<TRIPOS>SUBSTRUCTURE
     1 6DS         1 TEMP              0 ****  ****    0 ROOT
