@<TRIPOS>MOLECULE
6E5
   69    71     1     0     0
SMALL
bcc


@<TRIPOS>ATOM
      1 S01        -0.2260   -3.7050    1.5020 ss        1 6E5      0.197000
      2 C02        -0.3300   -5.4780    1.0260 c3        1 6E5     -0.268000
      3 C03        -0.9340   -6.1370    2.2280 c2        1 6E5     -0.091000
      4 C04        -1.4970   -5.2160    3.0230 c1        1 6E5     -0.268000
      5 C05        -1.3830   -3.8900    2.7480 c2        1 6E5     -0.091000
      6 C06        -2.1570   -2.7690    3.2620 c2        1 6E5     -0.030000
      7 N07        -4.8740    0.2970    2.2800 n2        1 6E5     -0.110000
      8 N08        -2.4820   -2.6640    4.4970 n2        1 6E5     -0.198000
      9 N1'        -3.9800   -4.6850    6.4080 n3        1 6E5     -0.200000
     10 C11        -5.4960    0.2940    3.4610 c2        1 6E5     -0.117000
     11 C12        -6.6970    0.7900    4.1080 c3        1 6E5     -0.060000
     12 C13        -6.9020    0.3230    5.5030 c2        1 6E5     -0.154000
     13 C14        -6.1600   -0.5410    6.1340 c1        1 6E5     -0.150000
     14 C15        -5.4530   -1.4240    6.7770 c2        1 6E5     -0.147000
     15 C16        -4.2330   -0.3840    3.3010 c1        1 6E5      0.032000
     16 C17        -4.2680   -1.0710    7.6110 c3        1 6E5      0.014000
     17 O18        -3.6230   -2.2120    8.1590 os        1 6E5     -0.281000
     18 C19        -4.3870   -2.8890    9.1460 c3        1 6E5     -0.090000
     19 C2'        -5.2970   -4.7160    6.4480 c1        1 6E5     -0.139000
     20 S21        -7.7480  -13.2900   10.5120 ss        1 6E5      0.640000
     21 C22        -9.3310  -12.9860   10.9150 c2        1 6E5     -0.447000
     22 C23        -9.6000  -11.6330   10.9700 c2        1 6E5     -0.159000
     23 C24        -8.4410  -10.8590   10.6660 c2        1 6E5     -0.129000
     24 C25        -7.3490  -11.6680   10.3910 c2        1 6E5     -0.443000
     25 C26        -6.0000  -11.1560   10.0660 c2        1 6E5      0.150000
     26 N28        -5.4360  -10.1560   10.6720 n2        1 6E5     -0.288000
     27 C3'        -5.8000   -6.0150    5.8630 c3        1 6E5     -0.217000
     28 C30        -4.1750  -10.2380    7.6380 c2        1 6E5     -0.089000
     29 C31        -4.0740  -11.4450    8.5270 c3        1 6E5     -0.001000
     30 C32        -3.2940  -12.5720    7.9050 c2        1 6E5     -0.087000
     31 C33        -2.6750  -12.4330    6.7130 c2        1 6E5     -0.209000
     32 C34        -2.8720  -11.2980    5.8650 c1        1 6E5     -0.054000
     33 C35        -3.5420  -10.1680    6.4410 c2        1 6E5     -0.163000
     34 C37        -3.5620   -8.9420    5.5870 c3        1 6E5      0.027000
     35 O38        -4.5090   -8.0130    6.1240 os        1 6E5     -0.289000
     36 C4'        -4.5360   -6.7860    5.4070 c3        1 6E5      0.002000
     37 C5'        -3.3490   -5.8630    5.8090 c3        1 6E5     -0.150000
     38 H02        -0.9130   -5.5420    0.0800 h1        1 6E5      0.139000
     39 H03         0.6970   -5.8780    0.8670 h1        1 6E5      0.139000
     40 H04        -0.8210   -7.2070    2.4050 ha        1 6E5      0.169000
     41 HN07       -2.4340   -2.0260    2.4750 h4        1 6E5      0.129000
     42 HN08       -3.0260   -1.8510    4.7190 hn        1 6E5      0.172000
     43 HN1'       -3.4220   -3.9210    6.7180 hn        1 6E5      0.272000
     44 H12        -7.5930    0.4910    3.4870 hc        1 6E5      0.131000
     45 H13        -6.6590    1.9200    4.0990 hc        1 6E5      0.131000
     46 H14        -7.7830    0.7710    5.9970 ha        1 6E5      0.143000
     47 H16        -5.7000   -2.5120    6.7120 ha        1 6E5      0.215000
     48 H17        -3.4660   -0.5980    6.9780 h1        1 6E5      0.096500
     49 H17A       -4.5630   -0.3670    8.4360 h1        1 6E5      0.096500
     50 H19        -4.6910   -2.1860    9.9610 h1        1 6E5      0.082667
     51 H19A       -3.6910   -3.6700    9.5440 h1        1 6E5      0.082667
     52 H2'        -5.2870   -3.3670    8.6830 h1        1 6E5      0.082667
     53 H23        -8.4340   -9.7670   10.6480 ha        1 6E5      0.160000
     54 H24       -10.5680  -11.1910   11.2140 ha        1 6E5      0.159000
     55 HN28       -5.9720   -9.7720   11.4200 hn        1 6E5      0.161000
     56 H3'        -6.4790   -5.8140    5.0010 hc        1 6E5      0.119500
     57 H3'A       -6.3620   -6.5910    6.6390 hc        1 6E5      0.119500
     58 H30        -4.7770   -9.3960    8.0240 ha        1 6E5      0.167000
     59 H32        -3.4230  -11.1040    9.4060 h1        1 6E5      0.174000
     60 H33        -3.2360  -13.4990    8.4970 ha        1 6E5      0.141000
     61 H34        -2.0320  -13.2370    6.3170 ha        1 6E5      0.148000
     62 H37        -2.5400   -8.4730    5.5720 h1        1 6E5      0.090000
     63 H37A       -3.8590   -9.2140    4.5370 h1        1 6E5      0.090000
     64 H4'        -4.5330   -6.9780    4.3040 h1        1 6E5      0.093000
     65 H5'        -2.7360   -5.5660    4.9100 h1        1 6E5      0.123500
     66 H5'A       -2.6850   -6.3720    6.5560 h1        1 6E5      0.123500
     67 N27        -5.3410  -11.9250    9.0620 n3        1 6E5     -0.265000
     68 H22       -10.0540  -13.7770   11.1120 h4        1 6E5      0.176000
     69 HN27       -5.9740  -12.1910    8.3330 hn        1 6E5      0.199000
@<TRIPOS>BOND
     1    1    2 1   
     2    1    5 1   
     3    2    3 1   
     4    2   38 1   
     5    2   39 1   
     6    3    4 1   
     7    3   40 1   
     8    4    5 1   
     9    5    6 1   
    10    6    8 1   
    11    6   41 1   
    12    7   10 1   
    13    7   15 1   
    14    8   42 1   
    15    9   19 1   
    16    9   37 1   
    17    9   43 1   
    18   10   11 1   
    19   10   15 1   
    20   11   12 1   
    21   11   44 1   
    22   11   45 1   
    23   12   13 1   
    24   12   46 1   
    25   13   14 1   
    26   14   16 1   
    27   14   47 1   
    28   16   17 1   
    29   16   48 1   
    30   16   49 1   
    31   17   18 1   
    32   18   50 1   
    33   18   51 1   
    34   18   52 1   
    35   19   27 1   
    36   20   21 1   
    37   20   24 1   
    38   21   22 1   
    39   21   68 1   
    40   22   23 1   
    41   22   54 1   
    42   23   24 1   
    43   23   53 1   
    44   24   25 1   
    45   25   26 1   
    46   25   67 1   
    47   26   55 1   
    48   27   36 1   
    49   27   56 1   
    50   27   57 1   
    51   28   29 1   
    52   28   33 1   
    53   28   58 1   
    54   29   30 1   
    55   29   59 1   
    56   29   67 1   
    57   30   31 1   
    58   30   60 1   
    59   31   32 1   
    60   31   61 1   
    61   32   33 1   
    62   33   34 1   
    63   34   35 1   
    64   34   62 1   
    65   34   63 1   
    66   35   36 1   
    67   36   37 1   
    68   36   64 1   
    69   37   65 1   
    70   37   66 1   
    71   67   69 1   
@<TRIPOS>SUBSTRUCTURE
     1 6E5         1 TEMP              0 ****  ****    0 ROOT
