@<TRIPOS>MOLECULE
6EA
   52    56     1     0     0
SMALL
bcc


@<TRIPOS>ATOM
      1 N1         -0.4890   -0.1150    0.4190 nb        1 6EA     -0.641000
      2 C2          0.8470   -0.1180    0.2540 ca        1 6EA      0.396700
      3 C3          1.7650   -0.0770    1.3210 ca        1 6EA     -0.218300
      4 C4          1.2630   -0.0370    2.6270 cp        1 6EA     -0.132500
      5 C5         -0.1270   -0.0270    2.8160 ca        1 6EA     -0.218300
      6 C6         -0.9560   -0.0670    1.6820 ca        1 6EA      0.396700
      7 C11         2.1680   -0.0090    3.7910 cp        1 6EA      0.493800
      8 C12         1.8150   -0.8080    4.9350 ca        1 6EA     -0.211300
      9 C13         2.6370   -0.8090    6.0330 ca        1 6EA     -0.086000
     10 C14         3.8150   -0.0170    6.0200 ca        1 6EA     -0.135300
     11 C15         4.0930    0.7490    4.8460 ca        1 6EA      0.304300
     12 N16         3.2710    0.7430    3.7470 nb        1 6EA     -0.626000
     13 C19         4.7500    0.0690    7.0940 ca        1 6EA     -0.004200
     14 C20         5.8710    0.8800    6.9800 ca        1 6EA      0.339200
     15 N21         6.1360    1.6210    5.8610 nb        1 6EA     -0.629000
     16 C22         5.2980    1.5600    4.8440 ca        1 6EA      0.382900
     17 O25         4.4900   -0.7390    8.1960 os        1 6EA     -0.369900
     18 C26         5.0660   -0.2810    9.4220 c3        1 6EA      0.103400
     19 C27         4.3490   -1.0530   10.5400 c3        1 6EA      0.116500
     20 N30         4.4650   -2.5370   10.3350 n4        1 6EA     -0.834600
     21 C31         4.9140   -0.6320   11.9070 c3        1 6EA     -0.012200
     22 C33         4.3960   -1.4750   12.9870 cc        1 6EA     -0.253400
     23 C36         3.3590   -1.1610   13.8760 cd        1 6EA     -0.039100
     24 N37         3.1610   -2.2050   14.7660 na        1 6EA     -0.165400
     25 C38         4.0980   -3.2090   14.4920 ca        1 6EA     -0.047200
     26 C39         4.9020   -2.7780   13.3720 ca        1 6EA     -0.119800
     27 C43         4.3220   -4.4490   15.1130 ca        1 6EA     -0.111000
     28 C44         5.3510   -5.2370   14.6230 ca        1 6EA     -0.105000
     29 C45         6.1580   -4.8130   13.5490 ca        1 6EA     -0.116000
     30 C46         5.9460   -3.5950   12.9250 ca        1 6EA     -0.152000
     31 H2          1.2020   -0.1520   -0.7930 h4        1 6EA      0.033600
     32 H3          2.8450   -0.0720    1.1220 ha        1 6EA      0.152000
     33 H5         -0.5660    0.0250    3.8210 ha        1 6EA      0.152000
     34 H6         -2.0560   -0.0570    1.7870 h4        1 6EA      0.033600
     35 H12         0.8960   -1.4110    4.9000 ha        1 6EA      0.161000
     36 H13         2.4050   -1.4080    6.9250 ha        1 6EA      0.134000
     37 H20         6.6170    0.9840    7.7860 h4        1 6EA      0.027100
     38 H22         5.5450    2.1710    3.9520 h4        1 6EA      0.061100
     39 H261        6.1690   -0.4920    9.4180 h1        1 6EA      0.083200
     40 H262        4.8890    0.8180    9.5660 h1        1 6EA      0.083200
     41 H27         3.2420   -0.8200   10.4980 hx        1 6EA      0.116700
     42 H301        4.0030   -3.0250   11.1150 hn        1 6EA      0.465133
     43 H302        4.0360   -2.7890    9.4400 hn        1 6EA      0.465133
     44 H311        6.0370   -0.6830   11.8830 hc        1 6EA      0.087700
     45 H312        4.6260    0.4430   12.0660 hc        1 6EA      0.087700
     46 H36         2.7490   -0.2530   13.9280 h4        1 6EA      0.184000
     47 H37         2.5340   -2.2050   15.5300 hn        1 6EA      0.322700
     48 H43         3.7090   -4.7770   15.9650 ha        1 6EA      0.156000
     49 H44         5.5560   -6.2140   15.0920 ha        1 6EA      0.157000
     50 H45         6.9840   -5.4630   13.2180 ha        1 6EA      0.149000
     51 H46         6.6270   -3.2490   12.1350 ha        1 6EA      0.116000
     52 H303        5.4530   -2.8090   10.3250 hn        1 6EA      0.465133
@<TRIPOS>BOND
     1    1    2 ar  
     2    1    6 ar  
     3    2    3 ar  
     4    2   31 1   
     5    3    4 ar  
     6    3   32 1   
     7    4    5 ar  
     8    4    7 1   
     9    5    6 ar  
    10    5   33 1   
    11    6   34 1   
    12    7    8 ar  
    13    7   12 ar  
    14    8    9 ar  
    15    8   35 1   
    16    9   10 ar  
    17    9   36 1   
    18   10   11 ar  
    19   10   13 ar  
    20   11   12 ar  
    21   11   16 ar  
    22   13   14 ar  
    23   13   17 1   
    24   14   15 ar  
    25   14   37 1   
    26   15   16 ar  
    27   16   38 1   
    28   17   18 1   
    29   18   19 1   
    30   18   39 1   
    31   18   40 1   
    32   19   20 1   
    33   19   21 1   
    34   19   41 1   
    35   20   42 1   
    36   20   43 1   
    37   20   52 1   
    38   21   22 1   
    39   21   44 1   
    40   21   45 1   
    41   22   23 2   
    42   22   26 1   
    43   23   24 1   
    44   23   46 1   
    45   24   25 1   
    46   24   47 1   
    47   25   26 ar  
    48   25   27 ar  
    49   26   30 ar  
    50   27   28 ar  
    51   27   48 1   
    52   28   29 ar  
    53   28   49 1   
    54   29   30 ar  
    55   29   50 1   
    56   30   51 1   
@<TRIPOS>SUBSTRUCTURE
     1 6EA         1 TEMP              0 ****  ****    0 ROOT
