@<TRIPOS>MOLECULE
6EA
   51    41     1     0     0
SMALL
bcc


@<TRIPOS>ATOM
      1 N1         -5.1910    4.0790   -5.7410 n1        1 6EA     -0.115000
      2 C2         -4.5160    4.6950   -4.7310 c1        1 6EA     -0.120750
      3 C3         -3.5710    3.9930   -3.9990 c1        1 6EA     -0.120750
      4 C4         -3.3170    2.6840   -4.2910 c1        1 6EA      0.016000
      5 C5         -3.9940    2.0690   -5.3040 c1        1 6EA     -0.169500
      6 C6         -4.9390    2.7730   -6.0340 c1        1 6EA     -0.122000
      7 C11        -2.3210    2.0010   -3.6070 c1        1 6EA      0.016000
      8 C12        -2.4050    1.1810   -2.4950 c1        1 6EA     -0.169500
      9 C13        -1.2820    0.5830   -2.0030 c1        1 6EA     -0.061000
     10 C14        -0.0540    0.7970   -2.6190 c1        1 6EA     -0.080000
     11 C15         0.0260    1.6020   -3.7110 c1        1 6EA     -0.023000
     12 N16        -1.1180    2.2110   -4.2100 n1        1 6EA     -0.114000
     13 C19         1.0900    0.1900   -2.1220 c1        1 6EA      0.066000
     14 C20         2.3160    0.4070   -2.7410 c1        1 6EA     -0.122000
     15 N21         2.3950    1.2200   -3.8420 n1        1 6EA     -0.115000
     16 C22         1.2690    1.8190   -4.3340 c1        1 6EA     -0.060000
     17 O25         1.1140   -0.7670   -1.0890 os        1 6EA     -0.211000
     18 C26         1.9710   -0.4320   -0.0210 c3        1 6EA     -0.025000
     19 C27         1.8330   -1.4610    1.0780 c3        1 6EA     -0.034000
     20 N30         2.6330   -2.5950    0.7680 n3        1 6EA     -0.330000
     21 C31         2.2910   -0.8630    2.3890 c3        1 6EA     -0.129000
     22 C33         1.3850   -1.3420    3.5070 c2        1 6EA     -0.158000
     23 C36         0.0570   -0.9670    3.4670 c1        1 6EA     -0.067000
     24 N37        -0.5520   -1.4500    4.5920 n2        1 6EA     -0.213000
     25 C38         0.3970   -2.1280    5.3370 c1        1 6EA      0.000000
     26 C39         1.5900   -2.0600    4.6650 c1        1 6EA     -0.085000
     27 C43         0.3290   -2.7670    6.5860 c1        1 6EA     -0.141000
     28 C44         1.4700   -3.3280    7.1410 c1        1 6EA     -0.120750
     29 C45         2.6790   -3.2590    6.4610 c1        1 6EA     -0.120750
     30 C46         2.7460   -2.6290    5.2270 c1        1 6EA     -0.094000
     31 H2         -4.6980    5.6300   -4.5220 ha        1 6EA      0.146750
     32 H3         -3.0880    4.4340   -3.2750 ha        1 6EA      0.146750
     33 H5         -3.8130    1.1330   -5.5140 ha        1 6EA      0.148500
     34 H6         -5.4230    2.3330   -6.7580 ha        1 6EA      0.165000
     35 H12        -3.2730    1.0030   -2.0840 ha        1 6EA      0.148500
     36 H13        -1.3410    0.0040   -1.2180 ha        1 6EA      0.157000
     37 H20         3.1210   -0.0200   -2.3920 ha        1 6EA      0.165000
     38 H22         1.3270    2.3980   -5.1190 ha        1 6EA      0.179000
     39 H261        1.7290    0.4510    0.3270 h1        1 6EA      0.093000
     40 H262        2.8970   -0.4150   -0.3370 h1        1 6EA      0.093000
     41 H27         0.8960   -1.7340    1.1530 h1        1 6EA      0.116000
     42 H301        3.4590   -2.4990    1.1510 hn        1 6EA      0.149500
     43 H302        2.2310   -3.3520    1.0950 hn        1 6EA      0.149500
     44 H311        3.2100   -1.1430    2.5720 hc        1 6EA      0.096000
     45 H312        2.2520    0.1120    2.3340 hc        1 6EA      0.096000
     46 H36        -0.3640   -0.4240    2.7760 DU        1 6EA      0.209000
     47 H37        -1.4300   -1.3440    4.8130 DU        1 6EA      0.209000
     48 H43        -0.5200   -2.8150    7.0650 ha        1 6EA      0.134000
     49 H44         1.4240   -3.7710    8.0090 ha        1 6EA      0.146750
     50 H45         3.4820   -3.6540    6.8510 ha        1 6EA      0.146750
     51 H46         3.5960   -2.5810    4.7490 ha        1 6EA      0.129000
@<TRIPOS>BOND
     1    1    6 1   
     2    2    3 1   
     3    2   31 1   
     4    3   32 1   
     5    4    5 1   
     6    5   33 1   
     7    6   34 1   
     8    7    8 1   
     9    8   35 1   
    10    9   10 1   
    11    9   36 1   
    12   10   13 1   
    13   11   12 1   
    14   11   16 1   
    15   13   17 1   
    16   14   15 1   
    17   14   37 1   
    18   16   38 1   
    19   17   18 1   
    20   18   19 1   
    21   18   39 1   
    22   18   40 1   
    23   19   20 1   
    24   19   21 1   
    25   19   41 1   
    26   20   42 1   
    27   20   43 1   
    28   21   22 1   
    29   21   44 1   
    30   21   45 1   
    31   22   23 1   
    32   22   26 1   
    33   23   24 1   
    34   24   25 1   
    35   25   27 1   
    36   26   30 1   
    37   27   48 1   
    38   28   29 1   
    39   28   49 1   
    40   29   50 1   
    41   30   51 1   
@<TRIPOS>SUBSTRUCTURE
     1 6EA         1 TEMP              0 ****  ****    0 ROOT
