@<TRIPOS>MOLECULE
6EA
   51    55     1     0     0
SMALL
bcc


@<TRIPOS>ATOM
      1 N1          8.5540    0.9920    1.9410 nb        1 6EA     -0.656000
      2 C2          8.4050    0.4520    0.7160 ca        1 6EA      0.389200
      3 C3          7.1610    0.0840    0.1700 ca        1 6EA     -0.219800
      4 C4          6.0090    0.2950    0.9390 cp        1 6EA     -0.115500
      5 C5          6.1470    0.8510    2.2180 ca        1 6EA     -0.219800
      6 C6          7.4370    1.1800    2.6700 ca        1 6EA      0.389200
      7 C11         4.6710   -0.0510    0.4210 cp        1 6EA      0.475800
      8 C12         3.5970    0.8690    0.6760 ca        1 6EA     -0.235300
      9 C13         2.3400    0.5790    0.2070 ca        1 6EA     -0.062000
     10 C14         2.1330   -0.6250   -0.5160 ca        1 6EA     -0.144300
     11 C15         3.2530   -1.4860   -0.7270 ca        1 6EA      0.305300
     12 N16         4.5100   -1.1890   -0.2600 nb        1 6EA     -0.640000
     13 C19         0.8690   -1.0310   -1.0480 ca        1 6EA      0.042800
     14 C20         0.7720   -2.2360   -1.7370 ca        1 6EA      0.298200
     15 N21         1.8400   -3.0630   -1.9400 nb        1 6EA     -0.627000
     16 C22         3.0190   -2.7130   -1.4640 ca        1 6EA      0.341900
     17 O25        -0.1710   -0.1570   -0.8240 os        1 6EA     -0.331900
     18 C26        -1.4540   -0.5830   -1.3030 c3        1 6EA      0.079400
     19 C27        -2.4490    0.5320   -0.8980 c3        1 6EA      0.165500
     20 N30        -2.1330    1.8440   -1.4230 n3        1 6EA     -0.901800
     21 C31        -3.8520    0.0460   -1.3080 c3        1 6EA      0.004800
     22 C33        -4.9300    0.7370   -0.5920 cc        1 6EA     -0.154400
     23 C36        -5.1160    2.1130   -0.4470 cd        1 6EA     -0.074100
     24 N37        -6.2830    2.3670    0.2760 na        1 6EA     -0.196400
     25 C38        -6.8680    1.1450    0.6170 ca        1 6EA     -0.049200
     26 C39        -6.0400    0.0880    0.0790 ca        1 6EA     -0.086800
     27 C43        -8.0390    0.8550    1.3350 ca        1 6EA     -0.143000
     28 C44        -8.3730   -0.4780    1.5120 ca        1 6EA     -0.116000
     29 C45        -7.5740   -1.5130    0.9920 ca        1 6EA     -0.156000
     30 C46        -6.4160   -1.2410    0.2800 ca        1 6EA     -0.089000
     31 H2          9.3360    0.3030    0.1400 h4        1 6EA      0.025600
     32 H3          7.1030   -0.3610   -0.8320 ha        1 6EA      0.152500
     33 H5          5.2730    1.0180    2.8620 ha        1 6EA      0.152500
     34 H6          7.5860    1.6180    3.6730 h4        1 6EA      0.025600
     35 H12         3.8040    1.7920    1.2360 ha        1 6EA      0.152000
     36 H13         1.4860    1.2530    0.3770 ha        1 6EA      0.158000
     37 H20        -0.1780   -2.5990   -2.1640 h4        1 6EA      0.030100
     38 H22         3.8610   -3.4080   -1.6460 h4        1 6EA      0.043100
     39 H261       -1.7320   -1.5520   -0.8140 h1        1 6EA      0.049200
     40 H262       -1.4150   -0.7110   -2.4160 h1        1 6EA      0.049200
     41 H27        -2.4150    0.6190    0.2290 h1        1 6EA      0.082700
     42 H301       -1.2070    2.1060   -1.1430 hn        1 6EA      0.352800
     43 H302       -2.1850    1.8490   -2.4230 hn        1 6EA      0.352800
     44 H311       -3.9900    0.1720   -2.4170 hc        1 6EA      0.048700
     45 H312       -3.9210   -1.0550   -1.0890 hc        1 6EA      0.048700
     46 H36        -4.4910    2.9350   -0.8040 h4        1 6EA      0.183000
     47 H37        -6.6180    3.2540    0.5390 hn        1 6EA      0.298700
     48 H43        -8.6670    1.6580    1.7430 ha        1 6EA      0.131000
     49 H44        -9.2850   -0.7380    2.0710 ha        1 6EA      0.129000
     50 H45        -7.8810   -2.5560    1.1580 ha        1 6EA      0.129000
     51 H46        -5.7980   -2.0570   -0.1230 ha        1 6EA      0.129000
@<TRIPOS>BOND
     1    1    2 ar  
     2    1    6 ar  
     3    2    3 ar  
     4    2   31 1   
     5    3    4 ar  
     6    3   32 1   
     7    4    5 ar  
     8    4    7 1   
     9    5    6 ar  
    10    5   33 1   
    11    6   34 1   
    12    7    8 ar  
    13    7   12 ar  
    14    8    9 ar  
    15    8   35 1   
    16    9   10 ar  
    17    9   36 1   
    18   10   11 ar  
    19   10   13 ar  
    20   11   12 ar  
    21   11   16 ar  
    22   13   14 ar  
    23   13   17 1   
    24   14   15 ar  
    25   14   37 1   
    26   15   16 ar  
    27   16   38 1   
    28   17   18 1   
    29   18   19 1   
    30   18   39 1   
    31   18   40 1   
    32   19   20 1   
    33   19   21 1   
    34   19   41 1   
    35   20   42 1   
    36   20   43 1   
    37   21   22 1   
    38   21   44 1   
    39   21   45 1   
    40   22   23 2   
    41   22   26 1   
    42   23   24 1   
    43   23   46 1   
    44   24   25 1   
    45   24   47 1   
    46   25   26 ar  
    47   25   27 ar  
    48   26   30 ar  
    49   27   28 ar  
    50   27   48 1   
    51   28   29 ar  
    52   28   49 1   
    53   29   30 ar  
    54   29   50 1   
    55   30   51 1   
@<TRIPOS>SUBSTRUCTURE
     1 6EA         1 TEMP              0 ****  ****    0 ROOT
