@<TRIPOS>MOLECULE
6EA
   52    56     1     0     0
SMALL
bcc


@<TRIPOS>ATOM
      1 N1         -0.5050   -0.1310    0.4240 nb        1 6EA     -0.641000
      2 C2          0.8310   -0.1270    0.2580 ca        1 6EA      0.396700
      3 C3          1.7500   -0.0820    1.3240 ca        1 6EA     -0.218300
      4 C4          1.2490   -0.0450    2.6310 cp        1 6EA     -0.132500
      5 C5         -0.1410   -0.0420    2.8220 ca        1 6EA     -0.218300
      6 C6         -0.9710   -0.0850    1.6880 ca        1 6EA      0.396700
      7 C11         2.1550   -0.0120    3.7940 cp        1 6EA      0.493800
      8 C12         1.8080   -0.8140    4.9380 ca        1 6EA     -0.211300
      9 C13         2.6310   -0.8110    6.0360 ca        1 6EA     -0.086000
     10 C14         3.8050   -0.0130    6.0210 ca        1 6EA     -0.135300
     11 C15         4.0780    0.7540    4.8470 ca        1 6EA      0.304300
     12 N16         3.2540    0.7450    3.7490 nb        1 6EA     -0.626000
     13 C19         4.7410    0.0770    7.0940 ca        1 6EA     -0.004200
     14 C20         5.8570    0.8940    6.9800 ca        1 6EA      0.339200
     15 N21         6.1170    1.6360    5.8610 nb        1 6EA     -0.629000
     16 C22         5.2790    1.5720    4.8440 ca        1 6EA      0.382900
     17 O25         4.4860   -0.7330    8.1960 os        1 6EA     -0.369900
     18 C26         5.0630   -0.2740    9.4210 c3        1 6EA      0.103400
     19 C27         4.3510   -1.0500   10.5400 c3        1 6EA      0.116500
     20 N30         4.4720   -2.5330   10.3320 nz        1 6EA     -0.834600
     21 C31         4.9190   -0.6290   11.9060 c3        1 6EA     -0.012200
     22 C33         4.4070   -1.4750   12.9860 cc        1 6EA     -0.253400
     23 C36         3.3700   -1.1650   13.8780 cd        1 6EA     -0.039100
     24 N37         3.1790   -2.2100   14.7680 na        1 6EA     -0.165400
     25 C38         4.1180   -3.2120   14.4900 ca        1 6EA     -0.047200
     26 C39         4.9180   -2.7760   13.3680 ca        1 6EA     -0.119800
     27 C43         4.3470   -4.4520   15.1090 ca        1 6EA     -0.111000
     28 C44         5.3770   -5.2360   14.6150 ca        1 6EA     -0.105000
     29 C45         6.1800   -4.8090   13.5400 ca        1 6EA     -0.116000
     30 C46         5.9620   -3.5900   12.9180 ca        1 6EA     -0.152000
     31 H2          1.1850   -0.1590   -0.7890 h4        1 6EA      0.033600
     32 H3          2.8300   -0.0710    1.1240 ha        1 6EA      0.152000
     33 H5         -0.5790    0.0080    3.8270 ha        1 6EA      0.152000
     34 H6         -2.0710   -0.0810    1.7940 h4        1 6EA      0.033600
     35 H12         0.8910   -1.4210    4.9040 ha        1 6EA      0.161000
     36 H13         2.4020   -1.4120    6.9270 ha        1 6EA      0.134000
     37 H20         6.6040    1.0000    7.7840 h4        1 6EA      0.027100
     38 H22         5.5220    2.1840    3.9530 h4        1 6EA      0.061100
     39 H261        6.1670   -0.4810    9.4140 h1        1 6EA      0.083200
     40 H262        4.8830    0.8240    9.5660 h1        1 6EA      0.083200
     41 H27         3.2430   -0.8200   10.5010 hx        1 6EA      0.116700
     42 H301        4.0140   -3.0230   11.1140 hn        1 6EA      0.465133
     43 H302        4.0410   -2.7860    9.4380 hn        1 6EA      0.465133
     44 H311        4.6280    0.4450   12.0680 hc        1 6EA      0.087700
     45 H312        6.0430   -0.6770   11.8800 hc        1 6EA      0.087700
     46 H36         2.7580   -0.2590   13.9340 h4        1 6EA      0.184000
     47 H37         2.5530   -2.2140   15.5340 hn        1 6EA      0.322700
     48 H43         3.7380   -4.7820   15.9630 ha        1 6EA      0.156000
     49 H44         5.5870   -6.2130   15.0820 ha        1 6EA      0.157000
     50 H45         7.0070   -5.4550   13.2060 ha        1 6EA      0.149000
     51 H46         6.6410   -3.2410   12.1260 ha        1 6EA      0.116000
     52 H303        5.4600   -2.8030   10.3190 hn        1 6EA      0.465133
@<TRIPOS>BOND
     1    1    2 ar  
     2    1    6 ar  
     3    2    3 ar  
     4    2   31 1   
     5    3    4 ar  
     6    3   32 1   
     7    4    5 ar  
     8    4    7 1   
     9    5    6 ar  
    10    5   33 1   
    11    6   34 1   
    12    7    8 ar  
    13    7   12 ar  
    14    8    9 ar  
    15    8   35 1   
    16    9   10 ar  
    17    9   36 1   
    18   10   11 ar  
    19   10   13 ar  
    20   11   12 ar  
    21   11   16 ar  
    22   13   14 ar  
    23   13   17 1   
    24   14   15 ar  
    25   14   37 1   
    26   15   16 ar  
    27   16   38 1   
    28   17   18 1   
    29   18   19 1   
    30   18   39 1   
    31   18   40 1   
    32   19   20 1   
    33   19   21 1   
    34   19   41 1   
    35   20   42 1   
    36   20   43 1   
    37   20   52 1   
    38   21   22 1   
    39   21   44 1   
    40   21   45 1   
    41   22   23 2   
    42   22   26 1   
    43   23   24 1   
    44   23   46 1   
    45   24   25 1   
    46   24   47 1   
    47   25   26 ar  
    48   25   27 ar  
    49   26   30 ar  
    50   27   28 ar  
    51   27   48 1   
    52   28   29 ar  
    53   28   49 1   
    54   29   30 ar  
    55   29   50 1   
    56   30   51 1   
@<TRIPOS>SUBSTRUCTURE
     1 6EA         1 TEMP              0 ****  ****    0 ROOT
