@<TRIPOS>MOLECULE
6EA
   52    56     1     0     0
SMALL
bcc


@<TRIPOS>ATOM
      1 N1         -0.4930   -0.1340    0.4170 nb        1 6EA     -0.641000
      2 C2          0.8430   -0.1440    0.2520 ca        1 6EA      0.396700
      3 C3          1.7610   -0.1010    1.3190 ca        1 6EA     -0.218300
      4 C4          1.2590   -0.0520    2.6250 cp        1 6EA     -0.132500
      5 C5         -0.1300   -0.0350    2.8140 ca        1 6EA     -0.218300
      6 C6         -0.9590   -0.0770    1.6800 ca        1 6EA      0.396700
      7 C11         2.1640   -0.0220    3.7890 cp        1 6EA      0.493800
      8 C12         1.8080   -0.8150    4.9370 ca        1 6EA     -0.211300
      9 C13         2.6300   -0.8140    6.0360 ca        1 6EA     -0.086000
     10 C14         3.8120   -0.0280    6.0180 ca        1 6EA     -0.135300
     11 C15         4.0930    0.7320    4.8400 ca        1 6EA      0.304300
     12 N16         3.2710    0.7240    3.7420 nb        1 6EA     -0.626000
     13 C19         4.7480    0.0590    7.0920 ca        1 6EA     -0.004200
     14 C20         5.8720    0.8640    6.9740 ca        1 6EA      0.339200
     15 N21         6.1400    1.5980    5.8520 nb        1 6EA     -0.629000
     16 C22         5.3020    1.5370    4.8350 ca        1 6EA      0.381900
     17 O25         4.4830   -0.7430    8.1980 os        1 6EA     -0.369900
     18 C26         5.0690   -0.2870    9.4190 c3        1 6EA      0.103400
     19 C27         4.3510   -1.0530   10.5430 c3        1 6EA      0.116500
     20 N30         4.4550   -2.5380   10.3380 n4        1 6EA     -0.834600
     21 C31         4.9270   -0.6350   11.9060 c3        1 6EA     -0.012200
     22 C33         4.4090   -1.4730   12.9900 cc        1 6EA     -0.253400
     23 C36         3.3780   -1.1490   13.8830 cd        1 6EA     -0.039100
     24 N37         3.1780   -2.1910   14.7760 na        1 6EA     -0.165400
     25 C38         4.1050   -3.2030   14.4980 ca        1 6EA     -0.047200
     26 C39         4.9060   -2.7790   13.3730 ca        1 6EA     -0.119800
     27 C43         4.3230   -4.4440   15.1200 ca        1 6EA     -0.111000
     28 C44         5.3420   -5.2400   14.6250 ca        1 6EA     -0.105000
     29 C45         6.1470   -4.8240   13.5460 ca        1 6EA     -0.116000
     30 C46         5.9410   -3.6040   12.9220 ca        1 6EA     -0.152000
     31 H2          1.1990   -0.1850   -0.7940 h4        1 6EA      0.033600
     32 H3          2.8420   -0.1020    1.1210 ha        1 6EA      0.152000
     33 H5         -0.5690    0.0240    3.8180 ha        1 6EA      0.152000
     34 H6         -2.0600   -0.0610    1.7850 h4        1 6EA      0.033600
     35 H12         0.8860   -1.4130    4.9050 ha        1 6EA      0.161000
     36 H13         2.3940   -1.4080    6.9300 ha        1 6EA      0.134000
     37 H20         6.6190    0.9680    7.7790 h4        1 6EA      0.027100
     38 H22         5.5510    2.1430    3.9410 h4        1 6EA      0.061100
     39 H261        4.9000    0.8130    9.5630 h1        1 6EA      0.083200
     40 H262        6.1700   -0.5060    9.4110 h1        1 6EA      0.083200
     41 H27         3.2460   -0.8110   10.5060 hx        1 6EA      0.116700
     42 H301        4.0190   -2.7880    9.4460 hn        1 6EA      0.465133
     43 H302        3.9940   -3.0210   11.1220 hn        1 6EA      0.465133
     44 H311        4.6480    0.4420   12.0660 hc        1 6EA      0.087700
     45 H312        6.0500   -0.6950   11.8760 hc        1 6EA      0.087700
     46 H36         2.7760   -0.2370   13.9380 h4        1 6EA      0.184000
     47 H37         2.5540   -2.1860   15.5440 hn        1 6EA      0.322700
     48 H43         3.7120   -4.7650   15.9760 ha        1 6EA      0.156000
     49 H44         5.5430   -6.2180   15.0940 ha        1 6EA      0.157000
     50 H45         6.9660   -5.4810   13.2110 ha        1 6EA      0.149000
     51 H46         6.6210   -3.2650   12.1280 ha        1 6EA      0.116000
     52 H303        5.4410   -2.8180   10.3230 hn        1 6EA      0.465133
@<TRIPOS>BOND
     1    1    2 ar  
     2    1    6 ar  
     3    2    3 ar  
     4    2   31 1   
     5    3    4 ar  
     6    3   32 1   
     7    4    5 ar  
     8    4    7 1   
     9    5    6 ar  
    10    5   33 1   
    11    6   34 1   
    12    7    8 ar  
    13    7   12 ar  
    14    8    9 ar  
    15    8   35 1   
    16    9   10 ar  
    17    9   36 1   
    18   10   11 ar  
    19   10   13 ar  
    20   11   12 ar  
    21   11   16 ar  
    22   13   14 ar  
    23   13   17 1   
    24   14   15 ar  
    25   14   37 1   
    26   15   16 ar  
    27   16   38 1   
    28   17   18 1   
    29   18   19 1   
    30   18   39 1   
    31   18   40 1   
    32   19   20 1   
    33   19   21 1   
    34   19   41 1   
    35   20   42 1   
    36   20   43 1   
    37   20   52 1   
    38   21   22 1   
    39   21   44 1   
    40   21   45 1   
    41   22   23 2   
    42   22   26 1   
    43   23   24 1   
    44   23   46 1   
    45   24   25 1   
    46   24   47 1   
    47   25   26 ar  
    48   25   27 ar  
    49   26   30 ar  
    50   27   28 ar  
    51   27   48 1   
    52   28   29 ar  
    53   28   49 1   
    54   29   30 ar  
    55   29   50 1   
    56   30   51 1   
@<TRIPOS>SUBSTRUCTURE
     1 6EA         1 TEMP              0 ****  ****    0 ROOT
