@<TRIPOS>MOLECULE
6F0
   16    16     1     0     0
SMALL
bcc


@<TRIPOS>ATOM
      1 OAB         0.1810   -0.7460    0.2190 o         1 6F0     -0.822300
      2 CAH         1.2180   -0.0330    0.0730 c         1 6F0      0.912200
      3 OAC         1.7320    0.6530    0.9960 o         1 6F0     -0.822300
      4 CAK         1.9190   -0.0310   -1.2810 ca        1 6F0     -0.198600
      5 CAJ         2.3810    1.1730   -1.8410 ca        1 6F0      0.170900
      6 FAD         2.1040    2.3630   -1.2550 f         1 6F0     -0.139900
      7 CAG         3.1500    1.1840   -3.0230 ca        1 6F0     -0.234000
      8 CAE         3.4610   -0.0200   -3.6400 ca        1 6F0     -0.110000
      9 CAF         2.9930   -1.2230   -3.1280 ca        1 6F0     -0.210000
     10 CAI         2.1860   -1.2440   -1.9650 ca        1 6F0      0.156600
     11 NAA         1.6170   -2.4640   -1.5590 nh        1 6F0     -0.821200
     12 H2          3.5010    2.1390   -3.4330 ha        1 6F0      0.120000
     13 H3          4.0800   -0.0210   -4.5500 ha        1 6F0      0.104000
     14 H4          3.2400   -2.1630   -3.6410 ha        1 6F0      0.113000
     15 H5          2.3090   -3.1620   -1.3860 hn        1 6F0      0.390300
     16 H6          0.9850   -2.3550   -0.7820 hn        1 6F0      0.390300
@<TRIPOS>BOND
     1    1    2 1   
     2    2    3 1   
     3    2    4 1   
     4    4    5 ar  
     5    4   10 ar  
     6    5    6 1   
     7    5    7 ar  
     8    7    8 ar  
     9    7   12 1   
    10    8    9 ar  
    11    8   13 1   
    12    9   10 ar  
    13    9   14 1   
    14   10   11 1   
    15   11   15 1   
    16   11   16 1   
@<TRIPOS>SUBSTRUCTURE
     1 6F0         1 TEMP              0 ****  ****    0 ROOT
