@<TRIPOS>MOLECULE
6F0
   17    17     1     0     0
SMALL
bcc


@<TRIPOS>ATOM
      1 OAB        -0.1280    0.2020   -0.0830 o         1 6F0     -0.470000
      2 CAH         1.0130   -0.2380   -0.2120 c         1 6F0      0.646700
      3 OAC         1.4660   -0.9110    0.8910 oh        1 6F0     -0.587100
      4 CAK         1.8870   -0.1490   -1.3960 ca        1 6F0     -0.293600
      5 CAJ         2.2600    1.1110   -1.9100 ca        1 6F0      0.221900
      6 FAD         1.8530    2.2400   -1.2880 f         1 6F0     -0.120900
      7 CAG         3.0650    1.2090   -3.0570 ca        1 6F0     -0.223000
      8 CAE         3.4830    0.0440   -3.6940 ca        1 6F0     -0.039000
      9 CAF         3.1240   -1.2070   -3.2160 ca        1 6F0     -0.222000
     10 CAI         2.3240   -1.3300   -2.0520 ca        1 6F0      0.216600
     11 NAA         2.0340   -2.5830   -1.5260 nh        1 6F0     -0.842200
     12 H2          3.3480    2.1990   -3.4390 ha        1 6F0      0.158000
     13 H3          4.1080    0.1190   -4.5990 ha        1 6F0      0.143000
     14 H4          3.4670   -2.1100   -3.7420 ha        1 6F0      0.143000
     15 H5          1.2520   -2.6380   -0.9120 hn        1 6F0      0.416300
     16 H6          2.4000   -1.1420    0.7800 ho        1 6F0      0.436000
     17 HAA3        2.1340   -3.3490   -2.1510 hn        1 6F0      0.416300
@<TRIPOS>BOND
     1    1    2 2   
     2    2    3 1   
     3    2    4 1   
     4    3   16 1   
     5    4    5 ar  
     6    4   10 ar  
     7    5    6 1   
     8    5    7 ar  
     9    7    8 ar  
    10    7   12 1   
    11    8    9 ar  
    12    8   13 1   
    13    9   10 ar  
    14    9   14 1   
    15   10   11 1   
    16   11   15 1   
    17   11   17 1   
@<TRIPOS>SUBSTRUCTURE
     1 6F0         1 TEMP              0 ****  ****    0 ROOT
