@<TRIPOS>MOLECULE
6F0
   16    16     1     0     0
SMALL
bcc


@<TRIPOS>ATOM
      1 OAB         0.1110    0.6020    0.0850 o         1 6F0     -0.822300
      2 CAH         1.1890   -0.0490    0.0590 c         1 6F0      0.912200
      3 OAC         1.6200   -0.7380    1.0300 o         1 6F0     -0.822300
      4 CAK         1.9890   -0.0350   -1.2400 ca        1 6F0     -0.198600
      5 CAJ         2.1920    1.1690   -1.9370 ca        1 6F0      0.170900
      6 FAD         1.7920    2.3520   -1.4110 f         1 6F0     -0.139900
      7 CAG         2.8090    1.1870   -3.2050 ca        1 6F0     -0.234000
      8 CAE         3.2190   -0.0110   -3.7760 ca        1 6F0     -0.110000
      9 CAF         3.0600   -1.2120   -3.0970 ca        1 6F0     -0.211000
     10 CAI         2.4790   -1.2390   -1.8070 ca        1 6F0      0.156600
     11 NAA         2.4640   -2.4520   -1.0970 nv        1 6F0     -0.821200
     12 H2          2.9480    2.1410   -3.7270 ha        1 6F0      0.120000
     13 H3          3.6800   -0.0070   -4.7740 ha        1 6F0      0.104000
     14 H4          3.4050   -2.1460   -3.5630 ha        1 6F0      0.113000
     15 H5          2.1190   -2.3450   -0.1570 hn        1 6F0      0.390300
     16 H6          1.9840   -3.1720   -1.5940 hn        1 6F0      0.390300
@<TRIPOS>BOND
     1    1    2 1   
     2    2    3 1   
     3    2    4 1   
     4    4    5 ar  
     5    4   10 ar  
     6    5    6 1   
     7    5    7 ar  
     8    7    8 ar  
     9    7   12 1   
    10    8    9 ar  
    11    8   13 1   
    12    9   10 ar  
    13    9   14 1   
    14   10   11 1   
    15   11   15 1   
    16   11   16 1   
@<TRIPOS>SUBSTRUCTURE
     1 6F0         1 TEMP              0 ****  ****    0 ROOT
