@<TRIPOS>MOLECULE
6F2
   66    71     1     0     0
SMALL
bcc


@<TRIPOS>ATOM
      1 C01        -1.2190    3.3040    0.0210 c3        1 6F2      0.157100
      2 N02        -0.2840    2.4450   -0.6690 n3        1 6F2     -0.732600
      3 C03        -0.2390    1.1030   -0.1050 c3        1 6F2      0.142800
      4 C04         0.7800    0.1860   -0.8130 c3        1 6F2      0.078000
      5 N05         2.0910    0.7810   -0.9770 n         1 6F2     -0.452800
      6 C06         3.1520    0.3290   -0.1890 c         1 6F2      0.662700
      7 O07         3.0060   -0.6490    0.5710 o         1 6F2     -0.589100
      8 C08         4.4870    0.9790   -0.3340 ca        1 6F2     -0.137600
      9 C09         5.1620    1.3920    0.8200 ca        1 6F2     -0.078000
     10 C10         6.4310    1.9580    0.7130 ca        1 6F2     -0.138000
     11 C11         7.0340    2.1030   -0.5350 ca        1 6F2     -0.083000
     12 C12         6.3680    1.6740   -1.6880 ca        1 6F2     -0.129300
     13 C13         6.9960    1.8460   -3.0410 c3        1 6F2      0.104600
     14 N14         8.2630    1.1580   -3.2110 na        1 6F2      0.081400
     15 C15         8.3870   -0.1640   -3.6460 cc        1 6F2     -0.091300
     16 C16         9.7600   -0.4780   -3.6020 cd        1 6F2     -0.236300
     17 C17        10.4200   -1.7030   -3.9460 ca        1 6F2      0.124000
     18 C18        10.0090   -2.5550   -4.9800 ca        1 6F2     -0.133900
     19 CL          8.6760   -2.1960   -5.9710 cl        1 6F2     -0.088400
     20 C20        10.7040   -3.7650   -5.2630 ca        1 6F2      0.422200
     21 N21        11.7820   -4.2070   -4.6110 nb        1 6F2     -0.656000
     22 C22        12.2030   -3.3880   -3.6050 ca        1 6F2      0.399800
     23 N23        13.2850   -3.5400   -2.7290 na        1 6F2     -0.381000
     24 C24        13.2740   -2.4070   -1.8750 cc        1 6F2      0.527400
     25 C25        14.2630   -2.2430   -0.8440 cc        1 6F2     -0.308200
     26 C26        15.3750   -3.0680   -0.5820 cd        1 6F2     -0.124300
     27 N27        16.0350   -2.5070    0.5080 na        1 6F2      0.101400
     28 C28        17.2350   -3.0460    1.1040 c3        1 6F2      0.038600
     29 N29        15.4230   -1.3930    0.9510 nd        1 6F2     -0.515800
     30 C30        14.3330   -1.1880    0.1570 cc        1 6F2      0.376600
     31 C31        13.3830   -0.0700    0.3030 c3        1 6F2     -0.128400
     32 N32        12.2600   -1.5500   -2.1560 nd        1 6F2     -0.559100
     33 C33        11.5660   -2.1250   -3.2300 ca        1 6F2     -0.021900
     34 C34        10.3880    0.7350   -3.0980 cd        1 6F2      0.353200
     35 N35         9.4570    1.6880   -2.8710 nc        1 6F2     -0.526800
     36 C36         5.0930    1.1100   -1.5870 ca        1 6F2     -0.089000
     37 C37         2.0510    2.1250   -1.5060 c3        1 6F2      0.078000
     38 C38         1.0360    3.0460   -0.7930 c3        1 6F2      0.142800
     39 H011       -0.9380    3.5000    1.0930 h1        1 6F2      0.034033
     40 H012       -1.2740    4.2860   -0.5190 h1        1 6F2      0.034033
     41 H013       -2.2320    2.8230    0.0010 h1        1 6F2      0.034033
     42 H031       -0.0050    1.1220    1.0000 h1        1 6F2      0.039950
     43 H032       -1.2590    0.6450   -0.2330 h1        1 6F2      0.039950
     44 H381        0.9290    3.9810   -1.4120 h1        1 6F2      0.039950
     45 H382        1.4570    3.3440    0.2110 h1        1 6F2      0.039950
     46 H041        0.8630   -0.7690   -0.2210 h1        1 6F2      0.066700
     47 H042        0.3970   -0.0600   -1.8440 h1        1 6F2      0.066700
     48 H371        3.0630    2.6110   -1.4380 h1        1 6F2      0.066700
     49 H372        1.7670    2.0480   -2.5950 h1        1 6F2      0.066700
     50 H09         4.6910    1.2530    1.8060 ha        1 6F2      0.150000
     51 H36         4.5640    0.7630   -2.4880 ha        1 6F2      0.142000
     52 H10         6.9630    2.2850    1.6200 ha        1 6F2      0.142000
     53 H11         8.0390    2.5480   -0.6150 ha        1 6F2      0.157000
     54 H131        6.3020    1.4540   -3.8390 h1        1 6F2      0.074700
     55 H132        7.1600    2.9500   -3.2210 h1        1 6F2      0.074700
     56 H15         7.5260   -0.7630   -3.9430 h4        1 6F2      0.186000
     57 H34        11.4510    0.9010   -2.9140 h4        1 6F2      0.060100
     58 H20        10.3530   -4.4180   -6.0850 h4        1 6F2      0.036100
     59 H23        13.9150   -4.2960   -2.7030 hn        1 6F2      0.312700
     60 H26        15.7270   -3.9730   -1.0750 h4        1 6F2      0.174000
     61 H281       17.5370   -3.9650    0.5370 h1        1 6F2      0.062033
     62 H282       18.0610   -2.2870    1.0590 h1        1 6F2      0.062033
     63 H283       17.0430   -3.3120    2.1780 h1        1 6F2      0.062033
     64 H311       12.3520   -0.4750    0.4600 hc        1 6F2      0.062367
     65 H312       13.6460    0.5920    1.1650 hc        1 6F2      0.062367
     66 H313       13.3810    0.5430   -0.6340 hc        1 6F2      0.062367
@<TRIPOS>BOND
     1    1    2 1   
     2    1   39 1   
     3    1   40 1   
     4    1   41 1   
     5    2    3 1   
     6    2   38 1   
     7    3    4 1   
     8    3   42 1   
     9    3   43 1   
    10    4    5 1   
    11    4   46 1   
    12    4   47 1   
    13    5    6 1   
    14    5   37 1   
    15    6    7 2   
    16    6    8 1   
    17    8    9 ar  
    18    8   36 ar  
    19    9   10 ar  
    20    9   50 1   
    21   10   11 ar  
    22   10   52 1   
    23   11   12 ar  
    24   11   53 1   
    25   12   13 1   
    26   12   36 ar  
    27   13   14 1   
    28   13   54 1   
    29   13   55 1   
    30   14   15 1   
    31   14   35 1   
    32   15   16 2   
    33   15   56 1   
    34   16   17 1   
    35   16   34 1   
    36   17   18 ar  
    37   17   33 ar  
    38   18   19 1   
    39   18   20 ar  
    40   20   21 ar  
    41   20   58 1   
    42   21   22 ar  
    43   22   23 1   
    44   22   33 ar  
    45   23   24 1   
    46   23   59 1   
    47   24   25 1   
    48   24   32 2   
    49   25   26 2   
    50   25   30 1   
    51   26   27 1   
    52   26   60 1   
    53   27   28 1   
    54   27   29 1   
    55   28   61 1   
    56   28   62 1   
    57   28   63 1   
    58   29   30 2   
    59   30   31 1   
    60   31   64 1   
    61   31   65 1   
    62   31   66 1   
    63   32   33 1   
    64   34   35 2   
    65   34   57 1   
    66   36   51 1   
    67   37   38 1   
    68   37   48 1   
    69   37   49 1   
    70   38   44 1   
    71   38   45 1   
@<TRIPOS>SUBSTRUCTURE
     1 6F2         1 TEMP              0 ****  ****    0 ROOT
