@<TRIPOS>MOLECULE
6F2
   66    71     1     0     0
SMALL
bcc


@<TRIPOS>ATOM
      1 C01        -1.2440    3.2150    0.0490 c3        1 6F2      0.157100
      2 N02        -0.3000    2.3750   -0.6520 n3        1 6F2     -0.732600
      3 C03        -0.2460    1.0240   -0.1090 c3        1 6F2      0.142800
      4 C04         0.7820    0.1270   -0.8290 c3        1 6F2      0.078000
      5 N05         2.0890    0.7350   -0.9800 n         1 6F2     -0.452800
      6 C06         3.1510    0.2790   -0.1960 c         1 6F2      0.662700
      7 O07         3.0110   -0.7130    0.5470 o         1 6F2     -0.589100
      8 C08         4.4820    0.9420   -0.3260 ca        1 6F2     -0.137600
      9 C09         5.1500    1.3410    0.8360 ca        1 6F2     -0.078000
     10 C10         6.4150    1.9190    0.7420 ca        1 6F2     -0.138000
     11 C11         7.0200    2.0900   -0.5020 ca        1 6F2     -0.083000
     12 C12         6.3600    1.6750   -1.6640 ca        1 6F2     -0.129300
     13 C13         6.9900    1.8750   -3.0120 c3        1 6F2      0.104600
     14 N14         8.2630    1.2000   -3.1910 na        1 6F2      0.081400
     15 C15         8.3980   -0.1130   -3.6500 cc        1 6F2     -0.091300
     16 C16         9.7730   -0.4170   -3.6070 cd        1 6F2     -0.236300
     17 C17        10.4430   -1.6310   -3.9730 ca        1 6F2      0.124000
     18 C18        10.0420   -2.4660   -5.0240 ca        1 6F2     -0.133900
     19 Cl          8.7090   -2.0980   -6.0130 cl        1 6F2     -0.088400
     20 C20        10.7470   -3.6650   -5.3280 ca        1 6F2      0.422200
     21 N21        11.8260   -4.1120   -4.6810 nb        1 6F2     -0.656000
     22 C22        12.2380   -3.3080   -3.6580 ca        1 6F2      0.399800
     23 N23        13.3190   -3.4690   -2.7820 na        1 6F2     -0.381000
     24 C24        13.2970   -2.3530   -1.9060 cc        1 6F2      0.527400
     25 C25        14.2800   -2.2010   -0.8690 cc        1 6F2     -0.308200
     26 C26        15.3980   -3.0230   -0.6190 cd        1 6F2     -0.124300
     27 N27        16.0510   -2.4780    0.4830 na        1 6F2      0.101400
     28 C28        17.2520   -3.0200    1.0730 c3        1 6F2      0.038600
     29 N29        15.4300   -1.3770    0.9450 nd        1 6F2     -0.515800
     30 C30        14.3410   -1.1650    0.1520 cc        1 6F2      0.376600
     31 C31        13.3830   -0.0560    0.3150 c3        1 6F2     -0.128400
     32 N32        12.2770   -1.4990   -2.1750 nd        1 6F2     -0.559100
     33 C33        11.5900   -2.0580   -3.2610 ca        1 6F2     -0.021900
     34 C34        10.3910    0.7900   -3.0790 cd        1 6F2      0.353200
     35 N35         9.4520    1.7320   -2.8370 nc        1 6F2     -0.526800
     36 C36         5.0900    1.0990   -1.5750 ca        1 6F2     -0.089000
     37 C37         2.0390    2.0870   -1.4870 c3        1 6F2      0.078000
     38 C38         1.0140    2.9890   -0.7630 c3        1 6F2      0.142800
     39 H011       -0.9680    3.3960    1.1250 h1        1 6F2      0.034033
     40 H012       -1.3060    4.2040   -0.4740 h1        1 6F2      0.034033
     41 H013       -2.2530    2.7260    0.0190 h1        1 6F2      0.034033
     42 H031       -1.2620    0.5600   -0.2480 h1        1 6F2      0.039950
     43 H032       -0.0150    1.0270    0.9960 h1        1 6F2      0.039950
     44 H381        0.9020    3.9320   -1.3660 h1        1 6F2      0.039950
     45 H382        1.4310    3.2730    0.2480 h1        1 6F2      0.039950
     46 H041        0.4050   -0.1050   -1.8660 h1        1 6F2      0.066700
     47 H042        0.8720   -0.8370   -0.2530 h1        1 6F2      0.066700
     48 H371        3.0470    2.5800   -1.4090 h1        1 6F2      0.066700
     49 H372        1.7590    2.0250   -2.5780 h1        1 6F2      0.066700
     50 H09         4.6780    1.1820    1.8180 ha        1 6F2      0.150000
     51 H36         4.5660    0.7630   -2.4840 ha        1 6F2      0.142000
     52 H10         6.9420    2.2350    1.6550 ha        1 6F2      0.142000
     53 H11         8.0210    2.5440   -0.5710 ha        1 6F2      0.157000
     54 H131        6.3010    1.4920   -3.8180 h1        1 6F2      0.074700
     55 H132        7.1470    2.9830   -3.1720 h1        1 6F2      0.074700
     56 H15         7.5430   -0.7120   -3.9610 h4        1 6F2      0.186000
     57 H34        11.4520    0.9610   -2.8880 h4        1 6F2      0.060100
     58 H20        10.4030   -4.3050   -6.1630 h4        1 6F2      0.036100
     59 H23        13.9540   -4.2210   -2.7690 hn        1 6F2      0.312700
     60 H26        15.7580   -3.9170   -1.1280 h4        1 6F2      0.174000
     61 H281       18.0730   -2.2540    1.0460 h1        1 6F2      0.062033
     62 H282       17.0580   -3.3080    2.1410 h1        1 6F2      0.062033
     63 H283       17.5630   -3.9250    0.4900 h1        1 6F2      0.062033
     64 H311       12.3530   -0.4710    0.4610 hc        1 6F2      0.062367
     65 H312       13.6380    0.5920    1.1900 hc        1 6F2      0.062367
     66 H313       13.3790    0.5740   -0.6110 hc        1 6F2      0.062367
@<TRIPOS>BOND
     1    1    2 1   
     2    1   39 1   
     3    1   40 1   
     4    1   41 1   
     5    2    3 1   
     6    2   38 1   
     7    3    4 1   
     8    3   42 1   
     9    3   43 1   
    10    4    5 1   
    11    4   46 1   
    12    4   47 1   
    13    5    6 1   
    14    5   37 1   
    15    6    7 2   
    16    6    8 1   
    17    8    9 ar  
    18    8   36 ar  
    19    9   10 ar  
    20    9   50 1   
    21   10   11 ar  
    22   10   52 1   
    23   11   12 ar  
    24   11   53 1   
    25   12   13 1   
    26   12   36 ar  
    27   13   14 1   
    28   13   54 1   
    29   13   55 1   
    30   14   15 1   
    31   14   35 1   
    32   15   16 2   
    33   15   56 1   
    34   16   17 1   
    35   16   34 1   
    36   17   18 ar  
    37   17   33 ar  
    38   18   19 1   
    39   18   20 ar  
    40   20   21 ar  
    41   20   58 1   
    42   21   22 ar  
    43   22   23 1   
    44   22   33 ar  
    45   23   24 1   
    46   23   59 1   
    47   24   25 1   
    48   24   32 2   
    49   25   26 2   
    50   25   30 1   
    51   26   27 1   
    52   26   60 1   
    53   27   28 1   
    54   27   29 1   
    55   28   61 1   
    56   28   62 1   
    57   28   63 1   
    58   29   30 2   
    59   30   31 1   
    60   31   64 1   
    61   31   65 1   
    62   31   66 1   
    63   32   33 1   
    64   34   35 2   
    65   34   57 1   
    66   36   51 1   
    67   37   38 1   
    68   37   48 1   
    69   37   49 1   
    70   38   44 1   
    71   38   45 1   
@<TRIPOS>SUBSTRUCTURE
     1 6F2         1 TEMP              0 ****  ****    0 ROOT
