@<TRIPOS>MOLECULE
6FL
   21    20     1     0     0
SMALL
bcc


@<TRIPOS>ATOM
      1 C          -3.2000   -0.1970   -0.2270 c         1 6FL      0.894600
      2 N          -1.9130   -0.4640    1.9520 n3        1 6FL     -0.898800
      3 O          -4.1930   -0.6660    0.3960 o         1 6FL     -0.831300
      4 CA         -1.8930    0.0780    0.6000 c3        1 6FL      0.005500
      5 CB         -0.7060   -0.4210   -0.2240 c3        1 6FL     -0.070400
      6 CG          0.6340   -0.0100    0.3620 c3        1 6FL     -0.127700
      7 FAC         1.9560   -1.3530   -1.2520 f         1 6FL     -0.238300
      8 FAD         2.9620   -0.7900    0.5840 f         1 6FL     -0.238300
      9 FAE         1.4330   -2.3150    0.6200 f         1 6FL     -0.238300
     10 FAF         0.2660    2.4130    0.1670 f         1 6FL     -0.238300
     11 FAG         2.3230    1.7770    0.3210 f         1 6FL     -0.238300
     12 FAH         1.2420    1.4720   -1.5310 f         1 6FL     -0.238300
     13 CD1         1.7220   -1.0900    0.0730 c3        1 6FL      0.630900
     14 CD2         1.1000    1.3790   -0.1700 c3        1 6FL      0.630900
     15 OXT        -3.1780    0.0870   -1.4540 o         1 6FL     -0.831300
     16 H          -2.7550   -0.1300    2.3920 hn        1 6FL      0.338800
     17 H2         -2.0070   -1.4630    1.8910 hn        1 6FL      0.338800
     18 HA         -1.8090    1.2000    0.6950 h1        1 6FL      0.051700
     19 HB         -0.7430   -1.5400   -0.2990 hc        1 6FL      0.082200
     20 HBA        -0.8220   -0.0100   -1.2650 hc        1 6FL      0.082200
     21 HG          0.5620    0.0810    1.4830 hc        1 6FL      0.133700
@<TRIPOS>BOND
     1    1    3 1   
     2    1    4 1   
     3    1   15 1   
     4    2    4 1   
     5    2   16 1   
     6    2   17 1   
     7    4    5 1   
     8    4   18 1   
     9    5    6 1   
    10    5   19 1   
    11    5   20 1   
    12    6   13 1   
    13    6   14 1   
    14    6   21 1   
    15    7   13 1   
    16    8   13 1   
    17    9   13 1   
    18   10   14 1   
    19   11   14 1   
    20   12   14 1   
@<TRIPOS>SUBSTRUCTURE
     1 6FL         1 TEMP              0 ****  ****    0 ROOT
