@<TRIPOS>MOLECULE
6FP
   19    20     1     0     0
SMALL
bcc


@<TRIPOS>ATOM
      1 O9         -4.5360   -0.2060    0.0120 o         1 6FP     -0.522100
      2 C9         -3.5900    0.5830    0.0020 c         1 6FP      0.488400
      3 C6         -2.1820    0.1020    0.0030 ca        1 6FP      0.144500
      4 N5         -1.1750    0.9930   -0.0020 nb        1 6FP     -0.522000
      5 C4A         0.0830    0.4870   -0.0010 ca        1 6FP      0.151500
      6 C4          1.2300    1.4280   -0.0060 c         1 6FP      0.624000
      7 O4          1.1710    2.6640   -0.0100 o         1 6FP     -0.570500
      8 N3          2.5100    0.8360    0.0030 n         1 6FP     -0.515400
      9 C2          2.6740   -0.5620   -0.0240 cc        1 6FP      0.714800
     10 N2          3.9770   -1.0630   -0.1400 nh        1 6FP     -0.904800
     11 N1          1.6490   -1.4420    0.0080 nd        1 6FP     -0.746700
     12 C8A         0.3560   -0.9360    0.0030 ca        1 6FP      0.598000
     13 N8         -0.7020   -1.8340    0.0090 nb        1 6FP     -0.635000
     14 C7         -1.9230   -1.3120    0.0090 ca        1 6FP      0.383900
     15 H2         -3.7320    1.6850   -0.0070 h4        1 6FP      0.034200
     16 H4          3.2970    1.4460   -0.0490 hn        1 6FP      0.339500
     17 H5          4.0780   -2.0500   -0.0530 hn        1 6FP      0.438800
     18 H6          4.7180   -0.5120    0.2260 hn        1 6FP      0.438800
     19 H7         -2.7730   -2.0230    0.0140 h4        1 6FP      0.060100
@<TRIPOS>BOND
     1    1    2 2   
     2    2    3 1   
     3    2   15 1   
     4    3    4 ar  
     5    3   14 ar  
     6    4    5 ar  
     7    5    6 1   
     8    5   12 ar  
     9    6    7 2   
    10    6    8 1   
    11    8    9 1   
    12    8   16 1   
    13    9   10 1   
    14    9   11 2   
    15   10   17 1   
    16   10   18 1   
    17   11   12 1   
    18   12   13 ar  
    19   13   14 ar  
    20   14   19 1   
@<TRIPOS>SUBSTRUCTURE
     1 6FP         1 TEMP              0 ****  ****    0 ROOT
