@<TRIPOS>MOLECULE
6FP
   20    21     1     0     0
SMALL
bcc


@<TRIPOS>ATOM
      1 O9         -0.0800    0.0050   -0.0220 o         1 6FP     -0.467100
      2 C9          1.1460    0.0030   -0.0590 c         1 6FP      0.478400
      3 C6          1.9330    0.0030    1.2230 ca        1 6FP      0.227500
      4 N5          3.2740    0.0010    1.1810 nb        1 6FP     -0.530000
      5 C4A         3.9210    0.0010    2.3790 ca        1 6FP      0.232500
      6 C4          5.4080   -0.0000    2.3770 c         1 6FP      0.622000
      7 O4          6.1610   -0.0010    1.4070 o         1 6FP     -0.480500
      8 N3          6.0220   -0.0000    3.6690 n         1 6FP     -0.510400
      9 C2          5.2210    0.0010    4.8060 cc        1 6FP      0.548800
     10 N2          5.9120    0.0010    6.1430 n4        1 6FP     -0.805600
     11 N1          3.9020    0.0020    4.8600 nd        1 6FP     -0.611700
     12 C8A         3.2100    0.0020    3.6290 ca        1 6FP      0.518000
     13 N8          1.8310    0.0040    3.6590 nb        1 6FP     -0.578000
     14 C7          1.2200    0.0040    2.4750 ca        1 6FP      0.377900
     15 H2          1.7400    0.0010   -0.9970 h4        1 6FP      0.065200
     16 H4          7.0200   -0.0010    3.7080 hn        1 6FP      0.357500
     17 H5          6.4950    0.8420    6.2290 hn        1 6FP      0.487800
     18 H6          6.4930   -0.8420    6.2290 hn        1 6FP      0.487800
     19 H7          0.1080    0.0050    2.4810 h4        1 6FP      0.092100
     20 H23         5.2040    0.0020    6.8970 hn        1 6FP      0.487800
@<TRIPOS>BOND
     1    1    2 2   
     2    2    3 1   
     3    2   15 1   
     4    3    4 ar  
     5    3   14 ar  
     6    4    5 ar  
     7    5    6 1   
     8    5   12 ar  
     9    6    7 2   
    10    6    8 1   
    11    8    9 1   
    12    8   16 1   
    13    9   10 1   
    14    9   11 2   
    15   10   17 1   
    16   10   18 1   
    17   10   20 1   
    18   11   12 1   
    19   12   13 ar  
    20   13   14 ar  
    21   14   19 1   
@<TRIPOS>SUBSTRUCTURE
     1 6FP         1 TEMP              0 ****  ****    0 ROOT
