@<TRIPOS>MOLECULE
6FP
   19    13     1     0     0
SMALL
bcc


@<TRIPOS>ATOM
      1 O9         -2.5390   -0.0300   -3.4980 o         1 6FP     -0.238000
      2 C9         -3.0920   -0.0050   -2.4150 c1        1 6FP      0.235000
      3 C6         -2.2680    0.0090   -1.1460 c1        1 6FP     -0.202000
      4 N5         -0.9660   -0.0000   -1.4750 n1        1 6FP      0.032000
      5 C4A        -0.0170   -0.0010   -0.4990 c1        1 6FP     -0.200000
      6 C4          1.4460   -0.0200   -0.8670 c1        1 6FP      0.370000
      7 O4          1.7800    0.0110   -2.0350 o         1 6FP     -0.287000
      8 N3          2.4220   -0.0200    0.1410 n2        1 6FP     -0.356000
      9 C2          2.0290   -0.0040    1.5150 c1        1 6FP      0.269000
     10 N2          3.0160    0.0080    2.5340 n2        1 6FP     -0.344000
     11 N1          0.6270    0.0140    1.8670 n1        1 6FP     -0.242000
     12 C8A        -0.3910    0.0070    0.8210 c1        1 6FP      0.112000
     13 N8         -1.7120    0.0170    1.1540 n2        1 6FP     -0.108000
     14 C7         -2.6470    0.0180    0.1910 c1        1 6FP     -0.035000
     15 H2         -4.0680   -0.0010   -2.3640 ha        1 6FP      0.096000
     16 H4          3.3060   -0.0460   -0.0800 hn        1 6FP      0.253000
     17 H5          3.9030   -0.0030    2.3120 hn        1 6FP      0.234000
     18 H6          2.7650    0.0280    3.4130 hn        1 6FP      0.234000
     19 H7         -3.5940    0.0190    0.4300 ha        1 6FP      0.176000
@<TRIPOS>BOND
     1    1    2 1   
     2    2   15 1   
     3    3    4 1   
     4    5   12 1   
     5    6    7 1   
     6    8    9 1   
     7    8   16 1   
     8    9   11 1   
     9   10   17 1   
    10   10   18 1   
    11   12   13 1   
    12   13   14 1   
    13   14   19 1   
@<TRIPOS>SUBSTRUCTURE
     1 6FP         1 TEMP              0 ****  ****    0 ROOT
