@<TRIPOS>MOLECULE
6GB
   48    49     1     0     0
SMALL
bcc


@<TRIPOS>ATOM
      1 C1          0.4790   -2.2030    0.5900 c3        1 6GB      0.311900
      2 C2          0.9490   -3.3710   -0.3030 c3        1 6GB      0.076100
      3 C3          2.4810   -3.4360   -0.2430 c3        1 6GB      0.098100
      4 C4          3.1140   -2.0560   -0.5420 c3        1 6GB      0.116100
      5 C5          2.4790   -0.9750    0.3550 c3        1 6GB      0.101100
      6 C6          2.9080    0.4820    0.0240 c3        1 6GB      0.240400
      7 P           1.5720    2.5530    0.9620 p5        1 6GB      1.335900
      8 O1P         0.2450    1.8260    1.1250 o         1 6GB     -0.920500
      9 O2P         1.7900    2.9770   -0.4610 o         1 6GB     -0.920500
     10 O6          2.7310    1.2710    1.1250 os        1 6GB     -0.559200
     11 O5          1.0710   -1.0140    0.1230 os        1 6GB     -0.376600
     12 O1         -0.9070   -2.0210    0.3970 os        1 6GB     -0.462600
     13 O4          4.5020   -2.1230   -0.2620 oh        1 6GB     -0.583800
     14 O3          2.9900   -4.3460   -1.2120 oh        1 6GB     -0.625800
     15 O2          0.4500   -4.6230    0.1500 oh        1 6GB     -0.637800
     16 C1'        -4.8230   -0.2590   -0.2700 c3        1 6GB      0.318900
     17 O1'        -5.9160   -0.8820    0.3730 oh        1 6GB     -0.638800
     18 C2'        -4.9170    1.2690   -0.1520 c3        1 6GB      0.045100
     19 O2'        -6.0210    1.7590   -0.9040 oh        1 6GB     -0.616800
     20 O5'        -3.7100   -0.7410    0.4410 os        1 6GB     -0.468600
     21 C5'        -2.4470   -0.2500   -0.0530 c3        1 6GB      0.118100
     22 C4'        -2.3540    1.2940   -0.1370 c3        1 6GB      0.162100
     23 O4'        -1.3360    1.5930   -1.0570 oh        1 6GB     -0.656800
     24 C3'        -3.6460    1.9170   -0.7190 c3        1 6GB      0.133100
     25 O3'        -3.6480    3.2890   -0.3630 oh        1 6GB     -0.567800
     26 C6'        -1.4090   -0.7840    0.9350 c3        1 6GB      0.099400
     27 H1          0.7090   -2.4020    1.6740 h2        1 6GB      0.033700
     28 H2          0.6050   -3.2010   -1.3610 h1        1 6GB      0.066700
     29 H3          2.8010   -3.7830    0.7790 h1        1 6GB      0.047700
     30 H4          2.9490   -1.8000   -1.6240 h1        1 6GB      0.053700
     31 H5          2.7090   -1.1950    1.4320 h1        1 6GB      0.053700
     32 H6          4.0030    0.4150   -0.2440 h1        1 6GB      0.023200
     33 H7          2.3140    0.8580   -0.8570 h1        1 6GB      0.023200
     34 H10         4.8640   -2.7630   -0.8870 ho        1 6GB      0.387000
     35 H11         2.4710   -5.1540   -1.1220 ho        1 6GB      0.403000
     36 H12        -0.4800   -4.4740    0.3650 ho        1 6GB      0.419000
     37 H14        -5.6670   -1.0250    1.2960 ho        1 6GB      0.420000
     38 H16        -6.7810    1.2280   -0.6360 ho        1 6GB      0.396000
     39 H17        -2.2800   -0.6870   -1.0760 h1        1 6GB      0.056700
     40 H18        -2.1230    1.7320    0.8750 h1        1 6GB      0.118700
     41 H19        -0.5150    1.8360   -0.5370 ho        1 6GB      0.519000
     42 H20        -3.6400    1.8080   -1.8390 h1        1 6GB      0.045700
     43 H21        -4.3300    3.7020   -0.9060 ho        1 6GB      0.382000
     44 H22        -1.8910   -1.0400    1.9150 h1        1 6GB      0.116700
     45 H23        -0.5930    0.0010    1.0760 h1        1 6GB      0.116700
     46 H13        -4.8370   -0.5980   -1.3420 h2        1 6GB      0.061700
     47 O3P         1.9740    3.4650    2.0760 o         1 6GB     -0.920500
     48 H15        -5.0460    1.5620    0.9260 h1        1 6GB      0.055700
@<TRIPOS>BOND
     1    1    2 1   
     2    1   11 1   
     3    1   12 1   
     4    1   27 1   
     5    2    3 1   
     6    2   15 1   
     7    2   28 1   
     8    3    4 1   
     9    3   14 1   
    10    3   29 1   
    11    4    5 1   
    12    4   13 1   
    13    4   30 1   
    14    5    6 1   
    15    5   11 1   
    16    5   31 1   
    17    6   10 1   
    18    6   32 1   
    19    6   33 1   
    20    7    8 1   
    21    7    9 1   
    22    7   10 1   
    23    7   47 1   
    24   12   26 1   
    25   13   34 1   
    26   14   35 1   
    27   15   36 1   
    28   16   17 1   
    29   16   18 1   
    30   16   20 1   
    31   16   46 1   
    32   17   37 1   
    33   18   19 1   
    34   18   24 1   
    35   18   48 1   
    36   19   38 1   
    37   20   21 1   
    38   21   22 1   
    39   21   26 1   
    40   21   39 1   
    41   22   23 1   
    42   22   24 1   
    43   22   40 1   
    44   23   41 1   
    45   24   25 1   
    46   24   42 1   
    47   25   43 1   
    48   26   44 1   
    49   26   45 1   
@<TRIPOS>SUBSTRUCTURE
     1 6GB         1 TEMP              0 ****  ****    0 ROOT
