@<TRIPOS>MOLECULE
6GB
   48    48     1     0     0
SMALL
bcc


@<TRIPOS>ATOM
      1 C1          1.0290   -0.1410    0.7400 c3        1 6GB      0.352900
      2 C2          2.5350   -0.1650    0.7660 c3        1 6GB      0.115100
      3 C3          3.0720   -0.1400    2.1430 c3        1 6GB      0.016100
      4 C4          2.4990    0.9770    2.9530 c3        1 6GB      0.284100
      5 C5          0.9890    0.9990    2.9160 c3        1 6GB      0.052100
      6 C6          0.5080    2.2510    3.5930 c3        1 6GB      0.211400
      7 O3P        -1.6900    3.8470    4.9320 o         1 6GB     -0.860000
      8 P          -0.6060    3.1170    5.7210 p4        1 6GB      1.739200
      9 O1P         0.5020    4.0980    6.0850 os        1 6GB     -0.829000
     10 O2P        -1.2000    2.5430    6.9750 o         1 6GB     -0.908800
     11 O6         -0.0020    1.9400    4.8330 os        1 6GB     -0.603200
     12 O5          0.4630    0.9690    1.5570 os        1 6GB     -0.445600
     13 O1          0.6090    0.0030   -0.5590 os        1 6GB     -0.431600
     14 O4          2.9220    0.8270    4.3110 oh        1 6GB     -0.995800
     15 O3          4.5100    0.0170    2.0820 oh        1 6GB     -0.663800
     16 O2          2.9920   -1.3630    0.1090 oh        1 6GB     -0.625800
     17 C1'        -1.8920   -2.8330   -3.3020 c3        1 6GB      0.330900
     18 O1'        -2.6080   -3.9920   -3.0770 oh        1 6GB     -0.595800
     19 C2'        -2.7300   -1.8950   -4.1580 c3        1 6GB      0.061100
     20 O2'        -2.8860   -2.4750   -5.4650 oh        1 6GB     -0.641800
     21 O5'        -1.5240   -2.2380   -2.0000 os        1 6GB     -0.422600
     22 C5'        -0.9130   -0.9310   -2.1310 c3        1 6GB      0.133100
     23 C4'        -1.7500    0.0250   -2.9880 c3        1 6GB      0.096100
     24 O4'        -0.9990    1.2140   -3.2140 oh        1 6GB     -0.615800
     25 C3'        -2.1130   -0.5640   -4.2980 c3        1 6GB      0.104100
     26 O3'        -3.0640    0.3290   -4.9740 oh        1 6GB     -0.636800
     27 C6'        -0.7440   -0.3340   -0.7600 c3        1 6GB      0.153400
     28 H1          0.6960   -0.9850    1.0860 h2        1 6GB      0.060700
     29 H2          2.8790    0.6270    0.2710 h1        1 6GB      0.044700
     30 H3          2.8630   -0.9950    2.5830 h1        1 6GB      0.025700
     31 H4          2.8360    1.8240    2.6080 h1        1 6GB     -0.078300
     32 H5          0.6460    0.2150    3.4090 h1        1 6GB      0.040700
     33 H6          1.2510    2.8700    3.6950 h1        1 6GB      0.031700
     34 H7         -0.1780    2.6600    3.0590 h1        1 6GB      0.031700
     35 H10         3.5860    1.3800    4.4750 ho        1 6GB      0.442000
     36 H11         4.8980   -0.6280    2.5550 ho        1 6GB      0.429000
     37 H12         3.7870   -1.2110   -0.2670 ho        1 6GB      0.397000
     38 H13        -1.0690   -3.0570   -3.7920 h2        1 6GB      0.040700
     39 H14        -2.1760   -4.6800   -3.4270 ho        1 6GB      0.469000
     40 H15        -3.6100   -1.7950   -3.7480 h1        1 6GB      0.122700
     41 H16        -3.7390   -2.7070   -5.5880 ho        1 6GB      0.476000
     42 H17        -0.0310   -1.0350   -2.5420 h1        1 6GB      0.039700
     43 H18        -2.5700    0.2540   -2.5030 h1        1 6GB      0.058700
     44 H19        -1.5370    1.8970   -3.2320 ho        1 6GB      0.402000
     45 H20        -1.3200   -0.6420   -4.8370 h1        1 6GB      0.049700
     46 H21        -2.8060    0.4510   -5.8350 ho        1 6GB      0.427000
     47 H22        -1.2910    0.4660   -0.6840 h1        1 6GB      0.056200
     48 H23        -1.0260   -0.9930   -0.0760 h1        1 6GB      0.056200
@<TRIPOS>BOND
     1    1    2 1   
     2    1   12 1   
     3    1   13 1   
     4    1   28 1   
     5    2    3 1   
     6    2   16 1   
     7    2   29 1   
     8    3    4 1   
     9    3   15 1   
    10    3   30 1   
    11    4    5 1   
    12    4   14 1   
    13    4   31 1   
    14    5    6 1   
    15    5   12 1   
    16    5   32 1   
    17    6   11 1   
    18    6   33 1   
    19    6   34 1   
    20    7    8 1   
    21    8   10 2   
    22    8   11 1   
    23   13   27 1   
    24   14   35 1   
    25   15   36 1   
    26   16   37 1   
    27   17   18 1   
    28   17   19 1   
    29   17   21 1   
    30   17   38 1   
    31   18   39 1   
    32   19   20 1   
    33   19   25 1   
    34   19   40 1   
    35   20   41 1   
    36   21   22 1   
    37   22   23 1   
    38   22   27 1   
    39   22   42 1   
    40   23   24 1   
    41   23   25 1   
    42   23   43 1   
    43   24   44 1   
    44   25   26 1   
    45   25   45 1   
    46   26   46 1   
    47   27   47 1   
    48   27   48 1   
@<TRIPOS>SUBSTRUCTURE
     1 6GB         1 TEMP              0 ****  ****    0 ROOT
