@<TRIPOS>MOLECULE
6GJ
   38    39     1     0     0
SMALL
bcc


@<TRIPOS>ATOM
      1 C1          0.0700    0.4840   -0.0650 c3        1 6GJ      0.413300
      2 O1         -0.0250    1.3490   -1.2040 oh        1 6GJ     -0.610800
      3 C2          1.5610    0.0760    0.0770 c3        1 6GJ      0.069100
      4 O2          1.6950   -1.1320   -0.6560 oh        1 6GJ     -0.602800
      5 N5         -0.5380    1.1090    1.0980 nh        1 6GJ     -0.744600
      6 C7         -1.6510    1.9900    0.8340 c2        1 6GJ      0.645100
      7 N8         -2.7270    1.7830    0.1590 n2        1 6GJ     -0.606900
      8 C9         -2.9930    0.5830   -0.5820 c3        1 6GJ      0.126800
      9 C10        -4.4280    0.5460   -1.1110 c3        1 6GJ     -0.072400
     10 C11        -4.6530   -0.7260   -1.9020 c3        1 6GJ     -0.082400
     11 C12        -6.0590   -0.7970   -2.4380 c3        1 6GJ     -0.092100
     12 S6         -1.4950    3.5220    1.7030 ss        1 6GJ     -0.186300
     13 C6          0.0850    3.1260    2.3860 c3        1 6GJ     -0.058300
     14 C5          0.2640    1.6110    2.2130 c3        1 6GJ      0.205500
     15 C4          1.7510    1.2120    2.2650 c3        1 6GJ      0.151100
     16 O4          2.5390    2.2300    1.6730 oh        1 6GJ     -0.594800
     17 C3          1.9510   -0.1280    1.5420 c3        1 6GJ      0.077100
     18 O3          3.3300   -0.4500    1.6420 oh        1 6GJ     -0.608800
     19 H1         -0.5400   -0.4540   -0.2650 h2        1 6GJ      0.071700
     20 H2          0.2000    0.8030   -1.9680 ho        1 6GJ      0.419000
     21 H3          2.2100    0.8820   -0.3700 h1        1 6GJ      0.082700
     22 H4          2.6390   -1.2530   -0.8150 ho        1 6GJ      0.410000
     23 H5         -2.2850    0.5190   -1.4620 h1        1 6GJ      0.039200
     24 H6         -2.8240   -0.3380    0.0510 h1        1 6GJ      0.039200
     25 H7         -4.6200    1.4370   -1.7640 hc        1 6GJ      0.053200
     26 H8         -5.1540    0.5940   -0.2580 hc        1 6GJ      0.053200
     27 H9         -3.9230   -0.7740   -2.7530 hc        1 6GJ      0.035700
     28 H10        -4.4550   -1.6160   -1.2480 hc        1 6GJ      0.035700
     29 H11        -6.2070   -1.7400   -3.0180 hc        1 6GJ      0.033367
     30 H12        -6.8010   -0.7760   -1.6030 hc        1 6GJ      0.033367
     31 H13        -6.2680    0.0690   -3.1120 hc        1 6GJ      0.033367
     32 H14         0.8890    3.6980    1.8620 h1        1 6GJ      0.095700
     33 H15         0.1100    3.3970    3.4670 h1        1 6GJ      0.095700
     34 H16        -0.2070    1.1090    3.1190 h1        1 6GJ      0.072700
     35 H17         2.0510    1.1020    3.3470 h1        1 6GJ      0.059700
     36 H18         3.4490    1.9040    1.6680 ho        1 6GJ      0.424000
     37 H19         1.3240   -0.9300    2.0170 h1        1 6GJ      0.071700
     38 H20         3.4170   -1.3780    1.3930 ho        1 6GJ      0.414000
@<TRIPOS>BOND
     1    1    2 1   
     2    1    3 1   
     3    1    5 1   
     4    1   19 1   
     5    2   20 1   
     6    3    4 1   
     7    3   17 1   
     8    3   21 1   
     9    4   22 1   
    10    5    6 1   
    11    5   14 1   
    12    6    7 2   
    13    6   12 1   
    14    7    8 1   
    15    8    9 1   
    16    8   23 1   
    17    8   24 1   
    18    9   10 1   
    19    9   25 1   
    20    9   26 1   
    21   10   11 1   
    22   10   27 1   
    23   10   28 1   
    24   11   29 1   
    25   11   30 1   
    26   11   31 1   
    27   12   13 1   
    28   13   14 1   
    29   13   32 1   
    30   13   33 1   
    31   14   15 1   
    32   14   34 1   
    33   15   16 1   
    34   15   17 1   
    35   15   35 1   
    36   16   36 1   
    37   17   18 1   
    38   17   37 1   
    39   18   38 1   
@<TRIPOS>SUBSTRUCTURE
     1 6GJ         1 TEMP              0 ****  ****    0 ROOT
