@<TRIPOS>MOLECULE
6GJ
   38    39     1     0     0
SMALL
bcc


@<TRIPOS>ATOM
      1 C1          0.0700    0.4890   -0.0660 c3        1 6GJ      0.413300
      2 O1         -0.0260    1.3670   -1.1950 oh        1 6GJ     -0.610800
      3 C2          1.5620    0.0820    0.0710 c3        1 6GJ      0.069100
      4 O2          1.6980   -1.1170   -0.6760 oh        1 6GJ     -0.602800
      5 N5         -0.5390    1.0990    1.1040 nh        1 6GJ     -0.744600
      6 C7         -1.6540    1.9810    0.8510 c2        1 6GJ      0.645100
      7 N8         -2.7290    1.7790    0.1730 n2        1 6GJ     -0.606900
      8 C9         -2.9930    0.5880   -0.5830 c3        1 6GJ      0.126800
      9 C10        -4.4280    0.5540   -1.1130 c3        1 6GJ     -0.072400
     10 C11        -4.6490   -0.7080   -1.9190 c3        1 6GJ     -0.082400
     11 C12        -6.0560   -0.7760   -2.4550 c3        1 6GJ     -0.092100
     12 S6         -1.5010    3.5020    1.7370 ss        1 6GJ     -0.186300
     13 C6          0.0800    3.1010    2.4160 c3        1 6GJ     -0.058300
     14 C5          0.2620    1.5890    2.2250 c3        1 6GJ      0.205500
     15 C4          1.7500    1.1920    2.2730 c3        1 6GJ      0.151100
     16 O4          2.5350    2.2180    1.6940 oh        1 6GJ     -0.594800
     17 C3          1.9520   -0.1390    1.5340 c3        1 6GJ      0.077100
     18 O3          3.3320   -0.4590    1.6300 oh        1 6GJ     -0.608800
     19 H1         -0.5370   -0.4480   -0.2770 h2        1 6GJ      0.071700
     20 H2          0.2010    0.8310   -1.9650 ho        1 6GJ      0.419000
     21 H3          2.2090    0.8950   -0.3660 h1        1 6GJ      0.082700
     22 H4          2.6430   -1.2350   -0.8360 ho        1 6GJ      0.410000
     23 H5         -2.8220   -0.3400    0.0380 h1        1 6GJ      0.039200
     24 H6         -2.2840    0.5360   -1.4630 h1        1 6GJ      0.039200
     25 H7         -4.6220    1.4530   -1.7540 hc        1 6GJ      0.053200
     26 H8         -5.1540    0.5900   -0.2590 hc        1 6GJ      0.053200
     27 H9         -3.9210   -0.7430   -2.7720 hc        1 6GJ      0.035700
     28 H10        -4.4490   -1.6060   -1.2760 hc        1 6GJ      0.035700
     29 H11        -6.2020   -1.7110   -3.0470 hc        1 6GJ      0.033367
     30 H12        -6.7970   -0.7680   -1.6190 hc        1 6GJ      0.033367
     31 H13        -6.2680    0.0980   -3.1180 hc        1 6GJ      0.033367
     32 H14         0.1030    3.3590    3.5000 h1        1 6GJ      0.095700
     33 H15         0.8820    3.6810    1.8990 h1        1 6GJ      0.095700
     34 H16        -0.2080    1.0750    3.1250 h1        1 6GJ      0.072700
     35 H17         2.0490    1.0700    3.3530 h1        1 6GJ      0.059700
     36 H18         3.4470    1.8940    1.6840 ho        1 6GJ      0.424000
     37 H19         1.3270   -0.9470    1.9990 h1        1 6GJ      0.071700
     38 H20         3.4210   -1.3840    1.3710 ho        1 6GJ      0.414000
@<TRIPOS>BOND
     1    1    2 1   
     2    1    3 1   
     3    1    5 1   
     4    1   19 1   
     5    2   20 1   
     6    3    4 1   
     7    3   17 1   
     8    3   21 1   
     9    4   22 1   
    10    5    6 1   
    11    5   14 1   
    12    6    7 2   
    13    6   12 1   
    14    7    8 1   
    15    8    9 1   
    16    8   23 1   
    17    8   24 1   
    18    9   10 1   
    19    9   25 1   
    20    9   26 1   
    21   10   11 1   
    22   10   27 1   
    23   10   28 1   
    24   11   29 1   
    25   11   30 1   
    26   11   31 1   
    27   12   13 1   
    28   13   14 1   
    29   13   32 1   
    30   13   33 1   
    31   14   15 1   
    32   14   34 1   
    33   15   16 1   
    34   15   17 1   
    35   15   35 1   
    36   16   36 1   
    37   17   18 1   
    38   17   37 1   
    39   18   38 1   
@<TRIPOS>SUBSTRUCTURE
     1 6GJ         1 TEMP              0 ****  ****    0 ROOT
