@<TRIPOS>MOLECULE
6GJ
   38    39     1     0     0
SMALL
bcc


@<TRIPOS>ATOM
      1 C1          0.0700    0.4830   -0.0630 c3        1 6GJ      0.413300
      2 O1         -0.0220    1.3510   -1.2000 oh        1 6GJ     -0.610800
      3 C2          1.5600    0.0720    0.0790 c3        1 6GJ      0.069100
      4 O2          1.6940   -1.1340   -0.6570 oh        1 6GJ     -0.602800
      5 N5         -0.5380    1.1050    1.1000 nh        1 6GJ     -0.744600
      6 C7         -1.6500    1.9890    0.8380 c2        1 6GJ      0.645100
      7 N8         -2.7250    1.7850    0.1600 n2        1 6GJ     -0.606900
      8 C9         -2.9920    0.5880   -0.5850 c3        1 6GJ      0.126800
      9 C10        -4.4260    0.5550   -1.1170 c3        1 6GJ     -0.072400
     10 C11        -4.6510   -0.7140   -1.9120 c3        1 6GJ     -0.082400
     11 C12        -6.0570   -0.7810   -2.4500 c3        1 6GJ     -0.092100
     12 S6         -1.4930    3.5180    1.7110 ss        1 6GJ     -0.186300
     13 C6          0.0860    3.1170    2.3960 c3        1 6GJ     -0.058300
     14 C5          0.2630    1.6030    2.2180 c3        1 6GJ      0.205500
     15 C4          1.7490    1.2010    2.2720 c3        1 6GJ      0.151100
     16 O4          2.5390    2.2200    1.6840 oh        1 6GJ     -0.594800
     17 C3          1.9480   -0.1370    1.5440 c3        1 6GJ      0.077100
     18 O3          3.3270   -0.4610    1.6450 oh        1 6GJ     -0.608800
     19 H1         -0.5400   -0.4540   -0.2670 h2        1 6GJ      0.071700
     20 H2          0.2040    0.8080   -1.9650 ho        1 6GJ      0.419000
     21 H3          2.2110    0.8790   -0.3640 h1        1 6GJ      0.082700
     22 H4          2.6380   -1.2560   -0.8150 ho        1 6GJ      0.410000
     23 H5         -2.8250   -0.3350    0.0450 h1        1 6GJ      0.039200
     24 H6         -2.2820    0.5260   -1.4640 h1        1 6GJ      0.039200
     25 H7         -4.6160    1.4480   -1.7670 hc        1 6GJ      0.053200
     26 H8         -5.1530    0.6010   -0.2640 hc        1 6GJ      0.053200
     27 H9         -3.9210   -0.7590   -2.7630 hc        1 6GJ      0.035700
     28 H10        -4.4550   -1.6070   -1.2610 hc        1 6GJ      0.035700
     29 H11        -6.2640    0.0880   -3.1210 hc        1 6GJ      0.033367
     30 H12        -6.8000   -0.7620   -1.6160 hc        1 6GJ      0.033367
     31 H13        -6.2050   -1.7210   -3.0340 hc        1 6GJ      0.033367
     32 H14         0.8910    3.6900    1.8740 h1        1 6GJ      0.095700
     33 H15         0.1090    3.3850    3.4770 h1        1 6GJ      0.095700
     34 H16        -0.2100    1.0980    3.1220 h1        1 6GJ      0.072700
     35 H17         2.0470    1.0870    3.3530 h1        1 6GJ      0.059700
     36 H18         3.4490    1.8930    1.6780 ho        1 6GJ      0.424000
     37 H19         1.3190   -0.9390    2.0150 h1        1 6GJ      0.071700
     38 H20         3.4130   -1.3880    1.3940 ho        1 6GJ      0.414000
@<TRIPOS>BOND
     1    1    2 1   
     2    1    3 1   
     3    1    5 1   
     4    1   19 1   
     5    2   20 1   
     6    3    4 1   
     7    3   17 1   
     8    3   21 1   
     9    4   22 1   
    10    5    6 1   
    11    5   14 1   
    12    6    7 2   
    13    6   12 1   
    14    7    8 1   
    15    8    9 1   
    16    8   23 1   
    17    8   24 1   
    18    9   10 1   
    19    9   25 1   
    20    9   26 1   
    21   10   11 1   
    22   10   27 1   
    23   10   28 1   
    24   11   29 1   
    25   11   30 1   
    26   11   31 1   
    27   12   13 1   
    28   13   14 1   
    29   13   32 1   
    30   13   33 1   
    31   14   15 1   
    32   14   34 1   
    33   15   16 1   
    34   15   17 1   
    35   15   35 1   
    36   16   36 1   
    37   17   18 1   
    38   17   37 1   
    39   18   38 1   
@<TRIPOS>SUBSTRUCTURE
     1 6GJ         1 TEMP              0 ****  ****    0 ROOT
