@<TRIPOS>MOLECULE
6GO
   19    20     1     0     0
SMALL
bcc


@<TRIPOS>ATOM
      1 C6A        -0.0070   -0.1000   -0.0790 c3        1 6GO      0.126700
      2 O6          1.4210   -0.0800    0.0000 os        1 6GO     -0.454100
      3 C6          1.9860   -0.0220    1.2540 ca        1 6GO      0.713600
      4 N1          1.2550   -0.0120    2.3810 nb        1 6GO     -0.806000
      5 C5          3.4000    0.0150    1.2940 ca        1 6GO     -0.383800
      6 N7          4.4260    0.0100    0.3510 na        1 6GO     -0.246300
      7 C8          5.6170    0.0450    1.0830 cc        1 6GO      0.440700
      8 N9          5.4440    0.0700    2.4200 nd        1 6GO     -0.641700
      9 C4          4.0380    0.0540    2.6120 ca        1 6GO      0.607300
     10 N3          3.3220    0.0650    3.7670 nb        1 6GO     -0.716000
     11 C2          1.9530    0.0580    3.5970 ca        1 6GO      0.880900
     12 N2          1.1640    0.1940    4.7510 nh        1 6GO     -0.918500
     13 H6A        -0.1950   -0.1330   -1.1820 h1        1 6GO      0.054033
     14 H6AA       -0.4130   -1.0110    0.4230 h1        1 6GO      0.054033
     15 H6AB       -0.4370    0.8240    0.3740 h1        1 6GO      0.054033
     16 H8          6.5980    0.0510    0.5900 h5        1 6GO      0.072800
     17 HN2         1.6170   -0.0180    5.6120 hn        1 6GO      0.422800
     18 HN2A        0.2220   -0.1160    4.6750 hn        1 6GO      0.422800
     19 HN7         4.3080   -0.0030   -0.6270 hn        1 6GO      0.318700
@<TRIPOS>BOND
     1    1    2 1   
     2    1   13 1   
     3    1   14 1   
     4    1   15 1   
     5    2    3 1   
     6    3    4 ar  
     7    3    5 ar  
     8    4   11 ar  
     9    5    6 1   
    10    5    9 ar  
    11    6    7 1   
    12    6   19 1   
    13    7    8 2   
    14    7   16 1   
    15    8    9 1   
    16    9   10 ar  
    17   10   11 ar  
    18   11   12 1   
    19   12   17 1   
    20   12   18 1   
@<TRIPOS>SUBSTRUCTURE
     1 6GO         1 TEMP              0 ****  ****    0 ROOT
