@<TRIPOS>MOLECULE
6GO
   20    21     1     0     0
SMALL
bcc


@<TRIPOS>ATOM
      1 C6A        -0.0150   -0.0090   -0.0910 c3        1 6GO      0.118700
      2 O6          1.4180   -0.0030    0.0050 os        1 6GO     -0.422100
      3 C6          1.9850    0.0020    1.2440 ca        1 6GO      0.731600
      4 N1          1.2670    0.0010    2.3890 nb        1 6GO     -0.764000
      5 C5          3.4090    0.0070    1.2840 ca        1 6GO     -0.298800
      6 N7          4.4220    0.0100    0.3420 na        1 6GO     -0.215300
      7 C8          5.6280    0.0160    1.0650 cc        1 6GO      0.472700
      8 N9          5.4650    0.0180    2.4050 nd        1 6GO     -0.586700
      9 C4          4.0670    0.0130    2.6000 ca        1 6GO      0.568300
     10 N3          3.3450    0.0120    3.7610 nb        1 6GO     -0.609000
     11 C2          2.0030    0.0060    3.5640 ca        1 6GO      0.700900
     12 N2          1.1770    0.0050    4.8100 n4        1 6GO     -0.811300
     13 H6A        -0.4380    0.9110    0.3770 h1        1 6GO      0.072700
     14 H6AA       -0.1790   -0.0130   -1.2000 h1        1 6GO      0.072700
     15 H6AB       -0.4300   -0.9310    0.3810 h1        1 6GO      0.072700
     16 H8          6.6090    0.0190    0.5600 h5        1 6GO      0.110800
     17 HN2         0.5810    0.8420    4.8170 hn        1 6GO      0.479467
     18 HN2A        0.5880   -0.8360    4.8200 hn        1 6GO      0.479467
     19 HN7         4.3030    0.0070   -0.6410 hn        1 6GO      0.346700
     20 H23         1.7900    0.0100    5.6380 hn        1 6GO      0.479467
@<TRIPOS>BOND
     1    1    2 1   
     2    1   13 1   
     3    1   14 1   
     4    1   15 1   
     5    2    3 1   
     6    3    4 ar  
     7    3    5 ar  
     8    4   11 ar  
     9    5    6 1   
    10    5    9 ar  
    11    6    7 1   
    12    6   19 1   
    13    7    8 2   
    14    7   16 1   
    15    8    9 1   
    16    9   10 ar  
    17   10   11 ar  
    18   11   12 1   
    19   12   17 1   
    20   12   18 1   
    21   12   20 1   
@<TRIPOS>SUBSTRUCTURE
     1 6GO         1 TEMP              0 ****  ****    0 ROOT
