@<TRIPOS>MOLECULE
6GO
   19    15     1     0     0
SMALL
bcc


@<TRIPOS>ATOM
      1 C6A        -2.2840    0.6900   -1.7940 c3        1 6GO     -0.063000
      2 O6         -0.9340    0.1690   -1.7170 os        1 6GO     -0.212000
      3 C6         -0.3450    0.2860   -0.4330 c2        1 6GO      0.215000
      4 N1         -0.8560    0.7550    0.7050 n2        1 6GO     -0.280000
      5 C5          0.8520   -0.4370   -0.4160 c1        1 6GO     -0.208000
      6 N7          1.5910   -1.0000   -1.4160 n1        1 6GO     -0.196500
      7 C8          2.6850   -1.5710   -0.8580 c1        1 6GO      0.022500
      8 N9          2.6290   -1.3640    0.4790 n2        1 6GO     -0.135000
      9 C4          1.4880   -0.6590    0.7490 c1        1 6GO      0.022500
     10 N3          0.9590   -0.1750    1.9160 n1        1 6GO     -0.196500
     11 C2         -0.2090    0.5300    1.8950 c1        1 6GO      0.162000
     12 N2         -0.7720    0.9910    3.0880 n3        1 6GO     -0.316000
     13 H6A        -2.2610    1.6800   -1.7380 h1        1 6GO      0.093333
     14 H6AA       -2.7870    0.3540   -1.0940 h1        1 6GO      0.093333
     15 H6AB       -2.6880    0.4210   -2.6450 h1        1 6GO      0.093333
     16 H8          3.4260   -2.0200   -1.3500 DU        1 6GO      0.235500
     17 HN2        -1.5670    1.4210    3.0760 hn        1 6GO      0.218000
     18 HN2A       -0.3060    0.9190    3.8690 hn        1 6GO      0.218000
     19 HN7         1.3800   -0.9930   -2.3160 DU        1 6GO      0.235500
@<TRIPOS>BOND
     1    1    2 1   
     2    1   13 1   
     3    1   14 1   
     4    1   15 1   
     5    2    3 1   
     6    3    4 1   
     7    3    5 1   
     8    4   11 1   
     9    6    7 1   
    10    7    8 1   
    11    8    9 1   
    12    9   10 1   
    13   11   12 1   
    14   12   17 1   
    15   12   18 1   
@<TRIPOS>SUBSTRUCTURE
     1 6GO         1 TEMP              0 ****  ****    0 ROOT
