@<TRIPOS>MOLECULE
6GO
   19    20     1     0     0
SMALL
bcc


@<TRIPOS>ATOM
      1 C6A        -0.0120    0.0410   -0.0780 c3        1 6GO      0.126700
      2 O6          1.4160    0.0350   -0.0000 os        1 6GO     -0.454100
      3 C6          1.9830   -0.0010    1.2540 ca        1 6GO      0.713600
      4 N1          1.2540   -0.0010    2.3810 nb        1 6GO     -0.806000
      5 C5          3.3970   -0.0250    1.2920 ca        1 6GO     -0.383800
      6 N7          4.4220   -0.0230    0.3470 na        1 6GO     -0.246300
      7 C8          5.6140   -0.0370    1.0780 cc        1 6GO      0.440700
      8 N9          5.4440   -0.0450    2.4160 nd        1 6GO     -0.641700
      9 C4          4.0380   -0.0390    2.6090 ca        1 6GO      0.607300
     10 N3          3.3230   -0.0400    3.7660 nb        1 6GO     -0.716000
     11 C2          1.9540   -0.0470    3.5970 ca        1 6GO      0.880900
     12 N2          1.1670   -0.1740    4.7540 nv        1 6GO     -0.918500
     13 H6A        -0.4330   -0.8820    0.3890 h1        1 6GO      0.054033
     14 H6AA       -0.2020    0.0560   -1.1810 h1        1 6GO      0.054033
     15 H6AB       -0.4250    0.9540    0.4120 h1        1 6GO      0.054033
     16 H8          6.5950   -0.0410    0.5830 h5        1 6GO      0.072800
     17 HN2         1.6200    0.0540    5.6110 hn        1 6GO      0.422800
     18 HN2A        0.2230    0.1260    4.6750 hn        1 6GO      0.422800
     19 HN7         4.3030   -0.0250   -0.6310 hn        1 6GO      0.318700
@<TRIPOS>BOND
     1    1    2 1   
     2    1   13 1   
     3    1   14 1   
     4    1   15 1   
     5    2    3 1   
     6    3    4 ar  
     7    3    5 ar  
     8    4   11 ar  
     9    5    6 1   
    10    5    9 ar  
    11    6    7 1   
    12    6   19 1   
    13    7    8 2   
    14    7   16 1   
    15    8    9 1   
    16    9   10 ar  
    17   10   11 ar  
    18   11   12 1   
    19   12   17 1   
    20   12   18 1   
@<TRIPOS>SUBSTRUCTURE
     1 6GO         1 TEMP              0 ****  ****    0 ROOT
