@<TRIPOS>MOLECULE
6GO
   19    20     1     0     0
SMALL
bcc


@<TRIPOS>ATOM
      1 C6A         2.6280   -2.1790   -0.0040 c3        1 6GO      0.126700
      2 O6          1.2100   -1.9970   -0.0180 os        1 6GO     -0.454100
      3 C6          0.7360   -0.7040    0.0020 ca        1 6GO      0.713600
      4 N1          1.5460    0.3670    0.0060 nb        1 6GO     -0.806000
      5 C5         -0.6720   -0.5620    0.0060 ca        1 6GO     -0.383800
      6 N7         -1.7630   -1.4280   -0.0030 na        1 6GO     -0.246300
      7 C8         -2.8980   -0.6110   -0.0100 cc        1 6GO      0.440700
      8 N9         -2.6300    0.7100   -0.0090 nd        1 6GO     -0.641700
      9 C4         -1.2130    0.7990    0.0040 ca        1 6GO      0.607300
     10 N3         -0.4150    1.9000    0.0080 nb        1 6GO     -0.716000
     11 C2          0.9380    1.6310    0.0340 ca        1 6GO      0.880900
     12 N2          1.8060    2.7280    0.1650 nh        1 6GO     -0.918500
     13 H6A         3.0880   -1.7280   -0.9140 h1        1 6GO      0.054033
     14 H6AA        3.0700   -1.7380    0.9210 h1        1 6GO      0.054033
     15 H6AB        2.7360   -3.2940   -0.0090 h1        1 6GO      0.054033
     16 H8         -3.9130   -1.0320   -0.0160 h5        1 6GO      0.072800
     17 HN2         2.7450    2.5770   -0.1220 hn        1 6GO      0.422800
     18 HN2A        1.4210    3.6140   -0.0740 hn        1 6GO      0.422800
     19 HN7        -1.7170   -2.4120    0.0060 hn        1 6GO      0.318700
@<TRIPOS>BOND
     1    1    2 1   
     2    1   13 1   
     3    1   14 1   
     4    1   15 1   
     5    2    3 1   
     6    3    4 ar  
     7    3    5 ar  
     8    4   11 ar  
     9    5    6 1   
    10    5    9 ar  
    11    6    7 1   
    12    6   19 1   
    13    7    8 2   
    14    7   16 1   
    15    8    9 1   
    16    9   10 ar  
    17   10   11 ar  
    18   11   12 1   
    19   12   17 1   
    20   12   18 1   
@<TRIPOS>SUBSTRUCTURE
     1 6GO         1 TEMP              0 ****  ****    0 ROOT
