@<TRIPOS>MOLECULE
6GP
   34    34     1     0     0
SMALL
bcc


@<TRIPOS>ATOM
      1 C1          0.4570   -0.4970   -0.1700 c3        1 6GP      0.334300
      2 C2          1.9610   -0.1940    0.0550 c3        1 6GP      0.109100
      3 O2          2.6690   -1.3150   -0.4290 oh        1 6GP     -0.622800
      4 C3          2.1470    0.0270    1.5640 c3        1 6GP      0.118100
      5 O3          3.5070    0.3700    1.7310 oh        1 6GP     -0.594800
      6 C4          1.2240    1.1680    2.0380 c3        1 6GP      0.077100
      7 O4          1.3440    1.1670    3.4480 oh        1 6GP     -0.581800
      8 C5         -0.2330    0.8910    1.6270 c3        1 6GP      0.116100
      9 O5         -0.3100    0.6370    0.2080 os        1 6GP     -0.423600
     10 C6         -1.1330    2.1090    1.8510 c3        1 6GP      0.136400
     11 O6         -2.4650    1.6380    1.7770 oh        1 6GP     -0.595800
     12 N1          0.1600   -0.7240   -1.6340 n4        1 6GP     -0.675800
     13 C7         -1.1970   -1.3340   -1.8540 c         1 6GP      0.491100
     14 O7         -1.4730   -2.3700   -1.2810 o         1 6GP     -0.340100
     15 C8         -2.0710   -0.5470   -2.8130 c         1 6GP      0.585100
     16 O8         -1.6820    0.4160   -3.4690 o         1 6GP     -0.477000
     17 C9         -4.2420   -0.3610   -3.7480 c3        1 6GP      0.120700
     18 O9         -3.3200   -1.0370   -2.8630 os        1 6GP     -0.364900
     19 H1          0.1360   -1.4260    0.3940 hx        1 6GP      0.128700
     20 H2          2.2790    0.7300   -0.5070 h1        1 6GP      0.088700
     21 HO2         3.5580   -1.2910   -0.0370 ho        1 6GP      0.472000
     22 H3          1.9150   -0.9160    2.1360 h1        1 6GP      0.081700
     23 HO3         3.6440    0.5280    2.6780 ho        1 6GP      0.450000
     24 H4          1.5720    2.1450    1.6020 h1        1 6GP      0.076700
     25 HO4         1.0310    2.0220    3.7720 ho        1 6GP      0.428000
     26 H5         -0.6400    0.0010    2.1840 h1        1 6GP      0.098700
     27 H61        -0.9500    2.8860    1.0620 h1        1 6GP      0.051700
     28 H62        -0.9160    2.5340    2.8680 h1        1 6GP      0.051700
     29 HO6        -3.0390    2.3750    2.0230 ho        1 6GP      0.427000
     30 HN1         0.8940   -1.3590   -1.9900 hn        1 6GP      0.490800
     31 H91        -5.1820   -0.9530   -3.6060 h1        1 6GP      0.084033
     32 H92        -3.8620   -0.4190   -4.7950 h1        1 6GP      0.084033
     33 H93        -4.3600    0.6990   -3.4220 h1        1 6GP      0.084033
     34 H12         0.2120    0.1760   -2.1360 hn        1 6GP      0.490800
@<TRIPOS>BOND
     1    1    2 1   
     2    1    9 1   
     3    1   12 1   
     4    1   19 1   
     5    2    3 1   
     6    2    4 1   
     7    2   20 1   
     8    3   21 1   
     9    4    5 1   
    10    4    6 1   
    11    4   22 1   
    12    5   23 1   
    13    6    7 1   
    14    6    8 1   
    15    6   24 1   
    16    7   25 1   
    17    8    9 1   
    18    8   10 1   
    19    8   26 1   
    20   10   11 1   
    21   10   27 1   
    22   10   28 1   
    23   11   29 1   
    24   12   13 1   
    25   12   30 1   
    26   12   34 1   
    27   13   14 2   
    28   13   15 1   
    29   15   16 2   
    30   15   18 1   
    31   17   18 1   
    32   17   31 1   
    33   17   32 1   
    34   17   33 1   
@<TRIPOS>SUBSTRUCTURE
     1 6GP         1 TEMP              0 ****  ****    0 ROOT
