@<TRIPOS>MOLECULE
6GP
   34    34     1     0     0
SMALL
bcc


@<TRIPOS>ATOM
      1 C1          0.4740   -0.4770   -0.1680 c3        1 6GP      0.334300
      2 C2          1.9690   -0.1370    0.0680 c3        1 6GP      0.109100
      3 O2          2.7090   -1.2360   -0.4170 oh        1 6GP     -0.622800
      4 C3          2.1400    0.0800    1.5800 c3        1 6GP      0.118100
      5 O3          3.4900    0.4560    1.7580 oh        1 6GP     -0.594800
      6 C4          1.1850    1.1940    2.0550 c3        1 6GP      0.077100
      7 O4          1.2970    1.1870    3.4650 oh        1 6GP     -0.581800
      8 C5         -0.2610    0.8830    1.6330 c3        1 6GP      0.116100
      9 O5         -0.3230    0.6350    0.2120 os        1 6GP     -0.423600
     10 C6         -1.1940    2.0770    1.8590 c3        1 6GP      0.136400
     11 O6         -2.5120    1.5720    1.7750 oh        1 6GP     -0.595800
     12 N1          0.1930   -0.7020   -1.6350 n4        1 6GP     -0.675800
     13 C7         -1.1470   -1.3450   -1.8670 c         1 6GP      0.491100
     14 O7         -1.4020   -2.3900   -1.2990 o         1 6GP     -0.340100
     15 C8         -2.0330   -0.5780   -2.8320 c         1 6GP      0.585100
     16 O8         -1.6630    0.3980   -3.4790 o         1 6GP     -0.477000
     17 C9         -4.1980   -0.4480   -3.7880 c3        1 6GP      0.120700
     18 O9         -3.2670   -1.1020   -2.8970 os        1 6GP     -0.364900
     19 H1          0.1740   -1.4170    0.3890 hx        1 6GP      0.128700
     20 H2          2.2670    0.7980   -0.4860 h1        1 6GP      0.088700
     21 HO2         3.5940   -1.1920   -0.0200 ho        1 6GP      0.472000
     22 H3          1.9280   -0.8720    2.1450 h1        1 6GP      0.081700
     23 HO3         3.6170    0.6120    2.7060 ho        1 6GP      0.450000
     24 H4          1.5120    2.1820    1.6270 h1        1 6GP      0.076700
     25 HO4         0.9610    2.0320    3.7920 ho        1 6GP      0.428000
     26 H5         -0.6490   -0.0210    2.1820 h1        1 6GP      0.098700
     27 H61        -1.0260    2.8620    1.0750 h1        1 6GP      0.051700
     28 H62        -0.9920    2.5010    2.8790 h1        1 6GP      0.051700
     29 HO6        -3.1070    2.2930    2.0210 ho        1 6GP      0.427000
     30 HN1         0.2240    0.2020   -2.1310 hn        1 6GP      0.490800
     31 H91        -3.8060   -0.4910   -4.8320 h1        1 6GP      0.084033
     32 H92        -5.1230   -1.0670   -3.6580 h1        1 6GP      0.084033
     33 H93        -4.3480    0.6070   -3.4580 h1        1 6GP      0.084033
     34 H12         0.9450   -1.3150   -1.9900 hn        1 6GP      0.490800
@<TRIPOS>BOND
     1    1    2 1   
     2    1    9 1   
     3    1   12 1   
     4    1   19 1   
     5    2    3 1   
     6    2    4 1   
     7    2   20 1   
     8    3   21 1   
     9    4    5 1   
    10    4    6 1   
    11    4   22 1   
    12    5   23 1   
    13    6    7 1   
    14    6    8 1   
    15    6   24 1   
    16    7   25 1   
    17    8    9 1   
    18    8   10 1   
    19    8   26 1   
    20   10   11 1   
    21   10   27 1   
    22   10   28 1   
    23   11   29 1   
    24   12   13 1   
    25   12   30 1   
    26   12   34 1   
    27   13   14 2   
    28   13   15 1   
    29   15   16 2   
    30   15   18 1   
    31   17   18 1   
    32   17   31 1   
    33   17   32 1   
    34   17   33 1   
@<TRIPOS>SUBSTRUCTURE
     1 6GP         1 TEMP              0 ****  ****    0 ROOT
