@<TRIPOS>MOLECULE
6GP
   33    33     1     0     0
SMALL
bcc


@<TRIPOS>ATOM
      1 C1         -0.2430    0.2640    0.2450 c3        1 6GP      0.250500
      2 C2         -1.0310    1.5640   -0.0820 c3        1 6GP      0.087100
      3 O2         -0.5270    2.6670    0.6490 oh        1 6GP     -0.597800
      4 C3         -2.4870    1.3950    0.3820 c3        1 6GP      0.108100
      5 O3         -3.2780    2.4890   -0.0470 oh        1 6GP     -0.604800
      6 C4         -3.1000    0.1370   -0.2550 c3        1 6GP      0.122100
      7 O4         -4.3770   -0.1250    0.2990 oh        1 6GP     -0.592800
      8 C5         -2.2140   -1.0780    0.0550 c3        1 6GP      0.108100
      9 O5         -0.8860   -0.8440   -0.4170 os        1 6GP     -0.453600
     10 C6         -2.7070   -2.3200   -0.6950 c3        1 6GP      0.140400
     11 O6         -2.0130   -3.4750   -0.2820 oh        1 6GP     -0.591800
     12 N1          1.1160    0.3140   -0.2460 n         1 6GP     -0.532900
     13 C7          2.1400   -0.2670    0.4970 c         1 6GP      0.620100
     14 O7          2.0380   -0.6020    1.6830 o         1 6GP     -0.521100
     15 C8          3.4550   -0.3980   -0.2530 c         1 6GP      0.558100
     16 O8          3.6060   -0.8140   -1.4020 o         1 6GP     -0.518000
     17 C9          5.8100   -0.1410   -0.1360 c3        1 6GP      0.120700
     18 O9          4.5240    0.0020    0.4790 os        1 6GP     -0.397900
     19 H1         -0.2400    0.0930    1.3640 h2        1 6GP      0.101700
     20 H2         -1.0020    1.7790   -1.1850 h1        1 6GP      0.063700
     21 HO2         0.3800    2.8200    0.3560 ho        1 6GP      0.422000
     22 H3         -2.5210    1.3200    1.5050 h1        1 6GP      0.068700
     23 HO3        -2.8740    3.2840    0.3250 ho        1 6GP      0.428000
     24 H4         -3.1890    0.2850   -1.3670 h1        1 6GP      0.062700
     25 HO4        -4.8960    0.6830    0.1810 ho        1 6GP      0.426000
     26 H5         -2.1950   -1.2750    1.1620 h1        1 6GP      0.076700
     27 H61        -3.7830   -2.5020   -0.4260 h1        1 6GP      0.065700
     28 H62        -2.5990   -2.1680   -1.8010 h1        1 6GP      0.065700
     29 HO6        -1.0780   -3.3300   -0.4760 ho        1 6GP      0.410000
     30 HN1         1.2090    0.2600   -1.2400 hn        1 6GP      0.325500
     31 H91         5.8570    0.4800   -1.0620 h1        1 6GP      0.059700
     32 H92         6.5120    0.2340    0.6490 h1        1 6GP      0.059700
     33 H93         5.9960   -1.2140   -0.3790 h1        1 6GP      0.059700
@<TRIPOS>BOND
     1    1    2 1   
     2    1    9 1   
     3    1   12 1   
     4    1   19 1   
     5    2    3 1   
     6    2    4 1   
     7    2   20 1   
     8    3   21 1   
     9    4    5 1   
    10    4    6 1   
    11    4   22 1   
    12    5   23 1   
    13    6    7 1   
    14    6    8 1   
    15    6   24 1   
    16    7   25 1   
    17    8    9 1   
    18    8   10 1   
    19    8   26 1   
    20   10   11 1   
    21   10   27 1   
    22   10   28 1   
    23   11   29 1   
    24   12   13 1   
    25   12   30 1   
    26   13   14 2   
    27   13   15 1   
    28   15   16 2   
    29   15   18 1   
    30   17   18 1   
    31   17   31 1   
    32   17   32 1   
    33   17   33 1   
@<TRIPOS>SUBSTRUCTURE
     1 6GP         1 TEMP              0 ****  ****    0 ROOT
