@<TRIPOS>MOLECULE
6GP
   33    33     1     0     0
SMALL
bcc


@<TRIPOS>ATOM
      1 C1          0.1610   -0.3960    0.0180 c3        1 6GP      0.246500
      2 C2          1.6560   -0.3650    0.0200 c3        1 6GP      0.086100
      3 O2          2.1460   -1.5270   -0.6660 oh        1 6GP     -0.598800
      4 C3          2.2210   -0.3450    1.4000 c3        1 6GP      0.109100
      5 O3          3.6390   -0.1410    1.3170 oh        1 6GP     -0.606800
      6 C4          1.6240    0.7370    2.2390 c3        1 6GP      0.118100
      7 O4          2.0750    0.5750    3.5920 oh        1 6GP     -0.592800
      8 C5          0.1110    0.7060    2.2240 c3        1 6GP      0.149100
      9 O5         -0.4360    0.6810    0.8660 os        1 6GP     -0.438600
     10 C6         -0.3980    1.9080    2.9160 c3        1 6GP      0.135400
     11 O6         -1.7920    1.8180    3.0450 oh        1 6GP     -0.595800
     12 N1         -0.2940   -0.2370   -1.3100 n         1 6GP     -0.529900
     13 C7         -1.4190   -0.9760   -1.7690 c         1 6GP      0.626100
     14 O7         -1.9940   -1.7520   -1.0100 o         1 6GP     -0.523100
     15 C8         -1.8470   -0.8830   -3.2290 c         1 6GP      0.558100
     16 O8         -1.0110   -0.9690   -4.1190 o         1 6GP     -0.483000
     17 C9         -3.5110   -0.9980   -4.8730 c3        1 6GP      0.123700
     18 O9         -3.1910   -0.6760   -3.5510 os        1 6GP     -0.435900
     19 H1         -0.1430   -1.2820    0.3590 h2        1 6GP      0.102700
     20 H2          1.9540    0.4320   -0.4540 h1        1 6GP      0.061700
     21 HO2         2.7240   -1.2690   -1.3250 ho        1 6GP      0.422000
     22 H3          2.0490   -1.2010    1.8240 h1        1 6GP      0.069700
     23 HO3         4.0540   -0.8030    1.7240 ho        1 6GP      0.429000
     24 H4          1.9310    1.6120    1.9010 h1        1 6GP      0.059700
     25 HO4         2.7100    1.2000    3.7780 ho        1 6GP      0.426000
     26 H5         -0.1900   -0.0810    2.6990 h1        1 6GP      0.085700
     27 H61        -0.1700    2.7080    2.3930 h1        1 6GP      0.047700
     28 H62         0.0150    1.9720    3.8160 h1        1 6GP      0.047700
     29 HO6        -2.0780    2.4440    3.5980 ho        1 6GP      0.404000
     30 HN1         0.1540    0.3180   -1.8840 hn        1 6GP      0.323500
     31 H91        -4.4700   -1.0070   -4.9790 h1        1 6GP      0.058033
     32 H92        -3.1560   -1.8690   -5.0870 h1        1 6GP      0.058033
     33 H93        -3.1250   -0.3350   -5.4720 h1        1 6GP      0.058033
@<TRIPOS>BOND
     1    1    2 1   
     2    1    9 1   
     3    1   12 1   
     4    1   19 1   
     5    2    3 1   
     6    2    4 1   
     7    2   20 1   
     8    3   21 1   
     9    4    5 1   
    10    4    6 1   
    11    4   22 1   
    12    5   23 1   
    13    6    7 1   
    14    6    8 1   
    15    6   24 1   
    16    7   25 1   
    17    8    9 1   
    18    8   10 1   
    19    8   26 1   
    20   10   11 1   
    21   10   27 1   
    22   10   28 1   
    23   11   29 1   
    24   12   13 1   
    25   12   30 1   
    26   13   14 2   
    27   13   15 1   
    28   15   16 2   
    29   15   18 1   
    30   17   18 1   
    31   17   31 1   
    32   17   32 1   
    33   17   33 1   
@<TRIPOS>SUBSTRUCTURE
     1 6GP         1 TEMP              0 ****  ****    0 ROOT
