@<TRIPOS>MOLECULE
6GP
   34    34     1     0     0
SMALL
bcc


@<TRIPOS>ATOM
      1 C1          0.4620   -0.4870   -0.1850 c3        1 6GP      0.334300
      2 C2          1.9650   -0.1730    0.0310 c3        1 6GP      0.109100
      3 O2          2.6800   -1.2800   -0.4750 oh        1 6GP     -0.622800
      4 C3          2.1620    0.0270    1.5420 c3        1 6GP      0.118100
      5 O3          3.5200    0.3810    1.7030 oh        1 6GP     -0.594800
      6 C4          1.2320    1.1520    2.0410 c3        1 6GP      0.077100
      7 O4          1.3640    1.1310    3.4500 oh        1 6GP     -0.581800
      8 C5         -0.2260    0.8670    1.6380 c3        1 6GP      0.116100
      9 O5         -0.3120    0.6340    0.2160 os        1 6GP     -0.423600
     10 C6         -1.1350    2.0740    1.8880 c3        1 6GP      0.136400
     11 O6         -2.4630    1.5910    1.8180 oh        1 6GP     -0.595800
     12 N1          0.1550   -0.6950   -1.6500 ny        1 6GP     -0.675800
     13 C7         -1.1990   -1.3150   -1.8680 c         1 6GP      0.491100
     14 O7         -1.4610   -2.3610   -1.3060 o         1 6GP     -0.340100
     15 C8         -2.0870   -0.5240   -2.8110 c         1 6GP      0.585100
     16 O8         -1.7120    0.4520   -3.4550 o         1 6GP     -0.477000
     17 C9         -4.2650   -0.3500   -3.7300 c3        1 6GP      0.120700
     18 O9         -3.3300   -1.0280   -2.8610 os        1 6GP     -0.364900
     19 H1          0.1550   -1.4270    0.3680 hx        1 6GP      0.128700
     20 H2          2.2690    0.7620   -0.5190 h1        1 6GP      0.088700
     21 HO2         3.5710   -1.2530   -0.0910 ho        1 6GP      0.472000
     22 H3          1.9430   -0.9260    2.1020 h1        1 6GP      0.081700
     23 HO3         3.6630    0.5260    2.6510 ho        1 6GP      0.450000
     24 H4          1.5670    2.1380    1.6170 h1        1 6GP      0.076700
     25 HO4         1.0460    1.9780    3.7890 ho        1 6GP      0.428000
     26 H5         -0.6200   -0.0350    2.1850 h1        1 6GP      0.098700
     27 H61        -0.9660    2.8640    1.1090 h1        1 6GP      0.051700
     28 H62        -0.9130    2.4850    2.9090 h1        1 6GP      0.051700
     29 HO6        -3.0420    2.3190    2.0800 ho        1 6GP      0.427000
     30 HN1         0.8910   -1.3170   -2.0220 hn        1 6GP      0.490800
     31 H91        -3.8910   -0.3900   -4.7810 h1        1 6GP      0.084033
     32 H92        -4.3920    0.7040   -3.3890 h1        1 6GP      0.084033
     33 H93        -5.1970   -0.9550   -3.5920 h1        1 6GP      0.084033
     34 H12         0.1930    0.2130   -2.1390 hn        1 6GP      0.490800
@<TRIPOS>BOND
     1    1    2 1   
     2    1    9 1   
     3    1   12 1   
     4    1   19 1   
     5    2    3 1   
     6    2    4 1   
     7    2   20 1   
     8    3   21 1   
     9    4    5 1   
    10    4    6 1   
    11    4   22 1   
    12    5   23 1   
    13    6    7 1   
    14    6    8 1   
    15    6   24 1   
    16    7   25 1   
    17    8    9 1   
    18    8   10 1   
    19    8   26 1   
    20   10   11 1   
    21   10   27 1   
    22   10   28 1   
    23   11   29 1   
    24   12   13 1   
    25   12   30 1   
    26   12   34 1   
    27   13   14 2   
    28   13   15 1   
    29   15   16 2   
    30   15   18 1   
    31   17   18 1   
    32   17   31 1   
    33   17   32 1   
    34   17   33 1   
@<TRIPOS>SUBSTRUCTURE
     1 6GP         1 TEMP              0 ****  ****    0 ROOT
