@<TRIPOS>MOLECULE
6GS
   38    39     1     0     0
SMALL
bcc


@<TRIPOS>ATOM
      1 C2          0.0000    0.0000    0.0000 c         1 6GS      0.577500
      2 N3          1.3450    0.0000    0.0000 ns        1 6GS     -0.151500
      3 C4          2.0250    0.0000    1.1650 c         1 6GS      0.589700
      4 C5          1.3090   -0.0000    2.3860 cc        1 6GS     -0.362200
      5 F          -3.0160   -1.7200   -0.3440 f         1 6GS     -0.223300
      6 C2'        -2.6920   -1.4380    0.9880 c3        1 6GS      0.095300
      7 C2M        -1.6630   -2.4410    1.5110 c3        1 6GS     -0.031100
      8 C1'        -2.1560    0.0050    1.1210 c3        1 6GS      0.192500
      9 N1         -0.6920    0.0050    1.1540 n         1 6GS      0.099000
     10 O2         -0.5990   -0.0010   -1.0580 o         1 6GS     -0.771500
     11 O4          3.2430   -0.0010    1.1660 o         1 6GS     -0.775500
     12 C6         -0.0400   -0.0000    2.3570 cd        1 6GS     -0.228400
     13 O4'        -2.6870    0.4810    2.3770 os        1 6GS     -0.350600
     14 C3'        -3.9620   -1.4510    1.8680 c3        1 6GS      0.125100
     15 O3'        -5.1150   -1.7490    1.0790 oh        1 6GS     -0.565800
     16 C4'        -4.0430   -0.0130    2.4290 c3        1 6GS      0.140100
     17 C5'        -4.5490   -0.0340    3.8740 c3        1 6GS      0.307400
     18 O5'        -4.7270    1.3070    4.3340 os        1 6GS     -0.487200
     19 PA         -5.2500    1.6630    5.8150 p5        1 6GS      0.918800
     20 O1A        -6.5380    0.9770    6.0620 o         1 6GS     -0.697500
     21 O2A        -4.1650    1.1730    6.9000 o         1 6GS     -0.697500
     22 O3A        -5.4560    3.2540    5.9430 os        1 6GS     -0.468800
     23 PB         -6.2170    4.2020    6.9980 p5        1 6GS      0.805900
     24 O3B        -6.5080    5.6340    6.3220 o         1 6GS     -0.677167
     25 O1B        -7.4980    3.5730    7.3920 o         1 6GS     -0.677167
     26 O2B        -5.2950    4.4020    8.3030 o         1 6GS     -0.677167
     27 H1          1.8440   -0.0020   -0.8680 hn        1 6GS      0.173500
     28 H2          1.8370   -0.0020    3.3320 ha        1 6GS      0.133000
     29 H3         -0.8000   -2.4480    0.8570 hc        1 6GS      0.018700
     30 H4         -2.1040   -3.4300    1.5380 hc        1 6GS      0.018700
     31 H5         -1.3560   -2.1560    2.5110 hc        1 6GS      0.018700
     32 H6         -2.5210    0.6170    0.3040 h2        1 6GS      0.060700
     33 H7         -0.6050    0.0010    3.2810 h4        1 6GS      0.169000
     34 H8         -3.8530   -2.1650    2.6760 h1        1 6GS      0.023700
     35 H9         -5.5090   -2.5480    1.3870 ho        1 6GS      0.377000
     36 H10        -4.6880    0.5950    1.8070 h1        1 6GS      0.039700
     37 H11        -3.8250   -0.5380    4.5020 h1        1 6GS     -0.020800
     38 H12        -5.4950   -0.5600    3.9180 h1        1 6GS     -0.020800
@<TRIPOS>BOND
     1    1    2 1   
     2    1    9 1   
     3    1   10 2   
     4    2    3 1   
     5    2   27 1   
     6    3    4 1   
     7    3   11 2   
     8    4   12 2   
     9    4   28 1   
    10    5    6 1   
    11    6    7 1   
    12    6    8 1   
    13    6   14 1   
    14    7   29 1   
    15    7   30 1   
    16    7   31 1   
    17    8    9 1   
    18    8   13 1   
    19    8   32 1   
    20    9   12 1   
    21   12   33 1   
    22   13   16 1   
    23   14   15 1   
    24   14   16 1   
    25   14   34 1   
    26   15   35 1   
    27   16   17 1   
    28   16   36 1   
    29   17   18 1   
    30   17   37 1   
    31   17   38 1   
    32   18   19 1   
    33   19   20 1   
    34   19   21 1   
    35   19   22 1   
    36   22   23 1   
    37   23   24 1   
    38   23   25 1   
    39   23   26 1   
@<TRIPOS>SUBSTRUCTURE
     1 6GS         1 TEMP              0 ****  ****    0 ROOT
