@<TRIPOS>MOLECULE
6GU
   16    17     1     0     0
SMALL
bcc


@<TRIPOS>ATOM
      1 CL6        -0.0020    0.0560   -0.0040 cl        1 6GU     -0.012000
      2 N1          2.5900    0.0020    0.4270 nb        1 6GU     -0.694000
      3 C2          3.8890   -0.0280   -0.0340 ca        1 6GU      0.700900
      4 N2          4.9280   -0.0450    1.0410 n4        1 6GU     -0.810300
      5 N3          4.3640   -0.0450   -1.3140 nb        1 6GU     -0.647000
      6 C4          3.3620   -0.0280   -2.2350 ca        1 6GU      0.422800
      7 C5          1.9270    0.0050   -1.8820 ca        1 6GU     -0.096200
      8 C6          1.6070    0.0190   -0.5010 ca        1 6GU      0.597300
      9 N7          1.1620    0.0150   -3.0470 nc        1 6GU     -0.501100
     10 C8          2.0560   -0.0090   -4.0570 cd        1 6GU      0.481700
     11 N9          3.3990   -0.0360   -3.6310 na        1 6GU     -0.350000
     12 HN2         4.8230    0.7990    1.6180 hn        1 6GU      0.481800
     13 HN2A        5.8680   -0.0680    0.6260 hn        1 6GU      0.481800
     14 H8          1.7930   -0.0090   -5.1290 h5        1 6GU      0.113800
     15 HN9         4.2120   -0.0560   -4.1970 hn        1 6GU      0.346700
     16 H23         4.7870   -0.8780    1.6270 hn        1 6GU      0.481800
@<TRIPOS>BOND
     1    1    8 1   
     2    2    3 ar  
     3    2    8 ar  
     4    3    4 1   
     5    3    5 ar  
     6    4   12 1   
     7    4   13 1   
     8    4   16 1   
     9    5    6 ar  
    10    6    7 ar  
    11    6   11 1   
    12    7    8 ar  
    13    7    9 1   
    14    9   10 2   
    15   10   11 1   
    16   10   14 1   
    17   11   15 1   
@<TRIPOS>SUBSTRUCTURE
     1 6GU         1 TEMP              0 ****  ****    0 ROOT
