@<TRIPOS>MOLECULE
6GU
   15    16     1     0     0
SMALL
bcc


@<TRIPOS>ATOM
      1 CL6        -0.8160    2.5250   -0.0180 cl        1 6GU     -0.113000
      2 N1         -1.6450    0.0290    0.0060 nb        1 6GU     -0.760000
      3 C2         -1.4210   -1.3570    0.0270 ca        1 6GU      0.901900
      4 N2         -2.5530   -2.1640    0.1380 nh        1 6GU     -0.928500
      5 N3         -0.1900   -1.9930    0.0020 nb        1 6GU     -0.760000
      6 C4          0.8590   -1.1320    0.0030 ca        1 6GU      0.473800
      7 C5          0.7400    0.3300    0.0050 ca        1 6GU     -0.210200
      8 C6         -0.5770    0.8380    0.0020 ca        1 6GU      0.623300
      9 N7          2.0170    0.9120    0.0010 nc        1 6GU     -0.512100
     10 C8          2.8690   -0.1220   -0.0040 cd        1 6GU      0.405700
     11 N9          2.2350   -1.3880   -0.0070 na        1 6GU     -0.388000
     12 HN2        -3.4300   -1.7470   -0.0680 hn        1 6GU      0.435300
     13 HN2A       -2.4480   -3.1270   -0.0820 hn        1 6GU      0.435300
     14 H8          3.9630   -0.0400   -0.0080 h5        1 6GU      0.075800
     15 HN9         2.6650   -2.2740    0.0010 hn        1 6GU      0.319700
@<TRIPOS>BOND
     1    1    8 1   
     2    2    3 ar  
     3    2    8 ar  
     4    3    4 1   
     5    3    5 ar  
     6    4   12 1   
     7    4   13 1   
     8    5    6 ar  
     9    6    7 ar  
    10    6   11 1   
    11    7    8 ar  
    12    7    9 1   
    13    9   10 2   
    14   10   11 1   
    15   10   14 1   
    16   11   15 1   
@<TRIPOS>SUBSTRUCTURE
     1 6GU         1 TEMP              0 ****  ****    0 ROOT
