@<TRIPOS>MOLECULE
6GU
   15     9     1     0     0
SMALL
bcc


@<TRIPOS>ATOM
      1 CL6        -3.0510    0.0010    1.4690 cl        1 6GU      0.053000
      2 N1         -0.4380    0.0010    1.8410 n1        1 6GU     -0.234000
      3 C2          0.8760    0.0010    1.4690 c1        1 6GU      0.183000
      4 N2          1.8930   -0.0020    2.4590 n3        1 6GU     -0.326000
      5 N3          1.2120    0.0010    0.1480 n1        1 6GU     -0.234000
      6 C4          0.2360    0.0010   -0.8040 c1        1 6GU     -0.068500
      7 C5         -1.0620    0.0010   -0.4380 c1        1 6GU     -0.068500
      8 C6         -1.4010    0.0010    0.9060 c1        1 6GU      0.129000
      9 N7         -1.8170    0.0010   -1.5700 n1        1 6GU     -0.160500
     10 C8         -0.9790    0.0010   -2.6310 c1        1 6GU     -0.050000
     11 N9          0.2890    0.0010   -2.1640 n1        1 6GU     -0.160500
     12 HN2         2.2210    0.7870    2.7790 hn        1 6GU      0.230500
     13 HN2A        2.2180   -0.7930    2.7770 hn        1 6GU      0.230500
     14 H8         -1.2440    0.0010   -3.5710 DU        1 6GU      0.237500
     15 HN9         1.0470    0.0010   -2.6710 DU        1 6GU      0.237500
@<TRIPOS>BOND
     1    1    8 1   
     2    2    8 1   
     3    3    4 1   
     4    3    5 1   
     5    4   12 1   
     6    4   13 1   
     7    6    7 1   
     8    9   10 1   
     9   10   11 1   
@<TRIPOS>SUBSTRUCTURE
     1 6GU         1 TEMP              0 ****  ****    0 ROOT
