@<TRIPOS>MOLECULE
6GU
   15    16     1     0     0
SMALL
bcc


@<TRIPOS>ATOM
      1 CL6         0.0130   -0.0130    0.0070 cl        1 6GU     -0.113000
      2 N1          2.6080    0.0030    0.4360 nb        1 6GU     -0.760000
      3 C2          3.9420    0.0220   -0.0010 ca        1 6GU      0.901900
      4 N2          4.9170    0.1290    0.9910 nh        1 6GU     -0.928500
      5 N3          4.3780   -0.0010   -1.3170 nb        1 6GU     -0.760000
      6 C4          3.3640    0.0040   -2.2190 ca        1 6GU      0.473800
      7 C5          1.9380    0.0090   -1.8730 ca        1 6GU     -0.210200
      8 C6          1.6420    0.0040   -0.4920 ca        1 6GU      0.623300
      9 N7          1.1640    0.0090   -3.0430 nc        1 6GU     -0.512100
     10 C8          2.0530    0.0030   -4.0460 cd        1 6GU      0.405700
     11 N9          3.4020   -0.0030   -3.6180 na        1 6GU     -0.388000
     12 HN2         5.8500   -0.0920    0.7370 hn        1 6GU      0.435300
     13 HN2A        4.6410   -0.0790    1.9220 hn        1 6GU      0.435300
     14 H8          1.8010    0.0020   -5.1140 h5        1 6GU      0.075800
     15 HN9         4.2100    0.0030   -4.1800 hn        1 6GU      0.319700
@<TRIPOS>BOND
     1    1    8 1   
     2    2    3 ar  
     3    2    8 ar  
     4    3    4 1   
     5    3    5 ar  
     6    4   12 1   
     7    4   13 1   
     8    5    6 ar  
     9    6    7 ar  
    10    6   11 1   
    11    7    8 ar  
    12    7    9 1   
    13    9   10 2   
    14   10   11 1   
    15   10   14 1   
    16   11   15 1   
@<TRIPOS>SUBSTRUCTURE
     1 6GU         1 TEMP              0 ****  ****    0 ROOT
