@<TRIPOS>MOLECULE
6H6
   23    24     1     0     0
SMALL
bcc


@<TRIPOS>ATOM
      1 O          -0.2540    0.0680   -0.0820 o         1 6H6     -0.838300
      2 N1          1.5960    0.1460   -3.7780 n         1 6H6     -0.326000
      3 C2          2.1280   -0.9570   -4.4940 c         1 6H6      0.808600
      4 O2          3.0800   -0.5400   -5.4420 os        1 6H6     -0.407900
      5 C3          3.3220    0.8720   -5.2700 c3        1 6H6      0.166500
      6 C4          3.0080    1.6910   -6.5000 c2        1 6H6     -0.185200
      7 C5          2.4880    2.9330   -6.4050 ce        1 6H6     -0.125000
      8 C6          2.2920    3.5250   -5.0640 ce        1 6H6     -0.158100
      9 C7          2.1230    2.6040   -4.1250 c1        1 6H6     -0.072800
     10 C8          2.2860    1.2800   -4.1910 c2        1 6H6      0.002300
     11 C9          0.9350    0.0070   -2.4900 c3        1 6H6      0.109000
     12 C10         1.8450   -0.0470   -1.2780 c3        1 6H6     -0.238400
     13 C11         0.9960   -0.0840    0.0150 c         1 6H6      0.920600
     14 OXT         1.6190   -0.2610    1.0970 o         1 6H6     -0.838300
     15 H4          4.3990    0.9870   -4.9820 h1        1 6H6      0.092700
     16 H5          3.2670    1.2180   -7.4560 ha        1 6H6      0.143000
     17 H6          2.2810    3.5550   -7.2850 ha        1 6H6      0.130000
     18 H7          2.3840    4.6040   -4.9230 ha        1 6H6      0.146000
     19 H9          0.2330    0.8840   -2.3840 h1        1 6H6      0.088200
     20 H9A         0.3220   -0.9370   -2.5400 h1        1 6H6      0.088200
     21 H10         2.5050    0.8540   -1.2280 hc        1 6H6      0.037700
     22 H10A        2.4940   -0.9570   -1.3000 hc        1 6H6      0.037700
     23 O1          1.8540   -2.1540   -4.4990 o         1 6H6     -0.579500
@<TRIPOS>BOND
     1    1   13 1   
     2    2    3 1   
     3    2   10 1   
     4    2   11 1   
     5    3    4 1   
     6    3   23 2   
     7    4    5 1   
     8    5    6 1   
     9    5   10 1   
    10    5   15 1   
    11    6    7 2   
    12    6   16 1   
    13    7    8 1   
    14    7   17 1   
    15    8    9 2   
    16    8   18 1   
    17    9   10 2   
    18   11   12 1   
    19   11   19 1   
    20   11   20 1   
    21   12   13 1   
    22   12   21 1   
    23   12   22 1   
    24   13   14 1   
@<TRIPOS>SUBSTRUCTURE
     1 6H6         1 TEMP              0 ****  ****    0 ROOT
