@<TRIPOS>MOLECULE
6H6
   23    24     1     0     0
SMALL
bcc


@<TRIPOS>ATOM
      1 O          -0.1670    0.3400    0.0130 o         1 6H6     -0.838300
      2 N1          1.4890    0.2670   -3.7740 n         1 6H6     -0.326000
      3 C2          1.8080   -0.8770   -4.5500 c         1 6H6      0.808600
      4 O2          2.7670   -0.5760   -5.5350 os        1 6H6     -0.407900
      5 C3          3.2330    0.7740   -5.3340 c3        1 6H6      0.166500
      6 C4          2.9910    1.6790   -6.5210 c2        1 6H6     -0.185200
      7 C5          2.6750    2.9810   -6.3610 ce        1 6H6     -0.125000
      8 C6          2.6390    3.5450   -4.9940 ce        1 6H6     -0.158100
      9 C7          2.3750    2.6260   -4.0760 c1        1 6H6     -0.071800
     10 C8          2.3270    1.2970   -4.1890 c2        1 6H6      0.002300
     11 C9          0.8780    0.1830   -2.4570 c3        1 6H6      0.109000
     12 C10         1.8260   -0.0580   -1.2980 c3        1 6H6     -0.238400
     13 C11         1.0460   -0.0120    0.0370 c         1 6H6      0.920600
     14 OXT         1.6840   -0.3280    1.0780 o         1 6H6     -0.838300
     15 H4          4.3270    0.7120   -5.1010 h1        1 6H6      0.092700
     16 H5          3.1270    1.2070   -7.5020 ha        1 6H6      0.143000
     17 H6          2.5260    3.6600   -7.2090 ha        1 6H6      0.130000
     18 H7          2.9040    4.5910   -4.8260 ha        1 6H6      0.146000
     19 H9          0.3280    1.1530   -2.2870 h1        1 6H6      0.088200
     20 H9A         0.1230   -0.6530   -2.5030 h1        1 6H6      0.088200
     21 H10         2.3220   -1.0550   -1.3830 hc        1 6H6      0.037700
     22 H10A        2.6200    0.7270   -1.2570 hc        1 6H6      0.037700
     23 O1          1.3510   -2.0170   -4.5770 o         1 6H6     -0.579500
@<TRIPOS>BOND
     1    1   13 1   
     2    2    3 1   
     3    2   10 1   
     4    2   11 1   
     5    3    4 1   
     6    3   23 2   
     7    4    5 1   
     8    5    6 1   
     9    5   10 1   
    10    5   15 1   
    11    6    7 2   
    12    6   16 1   
    13    7    8 1   
    14    7   17 1   
    15    8    9 2   
    16    8   18 1   
    17    9   10 2   
    18   11   12 1   
    19   11   19 1   
    20   11   20 1   
    21   12   13 1   
    22   12   21 1   
    23   12   22 1   
    24   13   14 1   
@<TRIPOS>SUBSTRUCTURE
     1 6H6         1 TEMP              0 ****  ****    0 ROOT
