@<TRIPOS>MOLECULE
6H6
   23    24     1     0     0
SMALL
bcc


@<TRIPOS>ATOM
      1 O          -0.1380    0.3840    0.0350 o         1 6H6     -0.838300
      2 N1          1.4790    0.2750   -3.7680 n         1 6H6     -0.326000
      3 C2          1.7730   -0.8740   -4.5450 c         1 6H6      0.808600
      4 O2          2.7270   -0.5890   -5.5390 os        1 6H6     -0.407900
      5 C3          3.2160    0.7540   -5.3450 c3        1 6H6      0.166500
      6 C4          2.9760    1.6600   -6.5310 c2        1 6H6     -0.185200
      7 C5          2.6820    2.9670   -6.3700 ce        1 6H6     -0.125000
      8 C6          2.6670    3.5340   -5.0030 ce        1 6H6     -0.158100
      9 C7          2.3980    2.6210   -4.0810 c1        1 6H6     -0.071800
     10 C8          2.3280    1.2920   -4.1920 c2        1 6H6      0.002300
     11 C9          0.8790    0.2030   -2.4450 c3        1 6H6      0.109000
     12 C10         1.8340   -0.0520   -1.2940 c3        1 6H6     -0.238400
     13 C11         1.0680    0.0090    0.0480 c         1 6H6      0.920600
     14 OXT         1.7100   -0.3180    1.0830 o         1 6H6     -0.838300
     15 H4          4.3110    0.6750   -5.1220 h1        1 6H6      0.092700
     16 H5          3.0950    1.1850   -7.5130 ha        1 6H6      0.143000
     17 H6          2.5340    3.6470   -7.2180 ha        1 6H6      0.130000
     18 H7          2.9500    4.5760   -4.8400 ha        1 6H6      0.146000
     19 H9          0.3460    1.1810   -2.2700 h1        1 6H6      0.088200
     20 H9A         0.1110   -0.6210   -2.4820 h1        1 6H6      0.088200
     21 H10         2.3140   -1.0570   -1.3820 hc        1 6H6      0.037700
     22 H10A        2.6420    0.7210   -1.2620 hc        1 6H6      0.037700
     23 O1          1.2980   -2.0070   -4.5650 o         1 6H6     -0.579500
@<TRIPOS>BOND
     1    1   13 1   
     2    2    3 1   
     3    2   10 1   
     4    2   11 1   
     5    3    4 1   
     6    3   23 2   
     7    4    5 1   
     8    5    6 1   
     9    5   10 1   
    10    5   15 1   
    11    6    7 2   
    12    6   16 1   
    13    7    8 1   
    14    7   17 1   
    15    8    9 2   
    16    8   18 1   
    17    9   10 2   
    18   11   12 1   
    19   11   19 1   
    20   11   20 1   
    21   12   13 1   
    22   12   21 1   
    23   12   22 1   
    24   13   14 1   
@<TRIPOS>SUBSTRUCTURE
     1 6H6         1 TEMP              0 ****  ****    0 ROOT
