@<TRIPOS>MOLECULE
6HA
   37    34     1     0     0
SMALL
bcc


@<TRIPOS>ATOM
      1 P          -1.8750   -5.0050    3.0440 p4        1 6HA      1.691200
      2 OP1        -0.4410   -5.0650    3.5730 o         1 6HA     -0.932500
      3 OP2        -2.8120   -5.0360    4.1700 os        1 6HA     -1.225000
      4 OP3        -2.1390   -6.2450    2.1050 o         1 6HA     -0.981300
      5 O5'        -2.0880   -3.6170    2.1940 os        1 6HA     -0.561200
      6 C5'        -1.0010   -3.1330    1.3980 c3        1 6HA      0.219400
      7 C4'        -1.3540   -1.8560    0.8240 c3        1 6HA      0.057100
      8 O4'        -1.2240   -0.8290    1.8540 os        1 6HA     -0.438600
      9 C3'        -0.4200   -1.5890   -0.4550 c3        1 6HA      0.142100
     10 O3'        -0.5570   -2.4700   -1.3230 oh        1 6HA     -0.667800
     11 C2'        -1.0900   -0.2210   -0.8870 c3        1 6HA     -0.100400
     12 C1'        -0.9680    0.8270    0.1450 c3        1 6HA      0.015000
     13 C6'        -0.6960    0.2850    1.3780 c3        1 6HA      0.130400
     14 N9          0.1790    1.7900   -0.2540 n3        1 6HA     -0.078400
     15 C8          1.3010    1.1440    0.1720 c1        1 6HA      0.219400
     16 N7          2.3870    1.8050   -0.3300 ne        1 6HA     -0.429400
     17 C5          1.9320    2.8720   -1.0750 cg        1 6HA     -0.163000
     18 C6          2.6010    3.8100   -1.8800 c1        1 6HA      0.564600
     19 N6          4.0230    3.6650   -2.0690 n3        1 6HA     -0.796400
     20 N1          1.8990    4.6950   -2.5990 n1        1 6HA     -0.605800
     21 C2          0.5150    4.6860   -2.5510 c1        1 6HA      0.365300
     22 N3         -0.1380    3.7720   -1.7660 n1        1 6HA     -0.514800
     23 C4          0.5740    2.8650   -1.0300 c1        1 6HA     -0.017300
     24 H5'        -0.2090   -3.0280    1.9590 h1        1 6HA     -0.004300
     25 H5''       -0.8060   -3.7880    0.6640 h1        1 6HA     -0.004300
     26 H4'        -2.3030   -1.8910    0.5250 h1        1 6HA      0.066700
     27 H3'         0.5530   -1.4620   -0.1890 h1        1 6HA      0.090700
     28 HO3'       -0.9250   -2.1180   -2.0460 ho        1 6HA      0.501000
     29 H2'        -0.6630    0.0940   -1.7010 hc        1 6HA      0.049200
     30 H2''       -2.0590   -0.3800   -1.0720 hc        1 6HA      0.049200
     31 H1'        -1.8400    1.3480    0.1940 h1        1 6HA      0.064700
     32 H6'1       -0.9090    1.0000    2.0480 h1        1 6HA      0.046700
     33 H6'2        0.2550    0.1570    1.4050 h1        1 6HA      0.046700
     34 H8          1.3280    0.3250    0.7860 DU        1 6HA      0.267000
     35 H61         4.3530    3.3810   -2.8850 hn        1 6HA      0.412300
     36 H62         4.6110    3.8050   -1.3480 hn        1 6HA      0.412300
     37 H2          0.0080    5.4110   -2.9800 ha        1 6HA      0.107500
@<TRIPOS>BOND
     1    1    2 1   
     2    1    4 2   
     3    1    5 1   
     4    5    6 1   
     5    6    7 1   
     6    6   24 1   
     7    6   25 1   
     8    7    8 1   
     9    7    9 1   
    10    7   26 1   
    11    8   13 1   
    12    9   10 1   
    13    9   11 1   
    14    9   27 1   
    15   10   28 1   
    16   11   12 1   
    17   11   29 1   
    18   11   30 1   
    19   12   13 1   
    20   12   14 1   
    21   12   31 1   
    22   13   32 1   
    23   13   33 1   
    24   14   15 2   
    25   14   23 1   
    26   15   16 2   
    27   16   17 1   
    28   17   23 3   
    29   18   19 1   
    30   18   20 3   
    31   19   35 1   
    32   19   36 1   
    33   21   22 3   
    34   21   37 1   
@<TRIPOS>SUBSTRUCTURE
     1 6HA         1 TEMP              0 ****  ****    0 ROOT
