@<TRIPOS>MOLECULE
6HA
   37    39     1     0     0
SMALL
bcc


@<TRIPOS>ATOM
      1 P          -0.3040    0.2750   -5.1000 p5        1 6HA      1.436800
      2 OP1         0.7540    1.3110   -5.1430 o         1 6HA     -0.855000
      3 OP2        -0.5800   -0.6520   -6.2200 o         1 6HA     -0.855000
      4 OP3        -1.6930    0.9730   -4.6300 oh        1 6HA     -0.808400
      5 O5'        -0.0320   -0.6350   -3.7440 os        1 6HA     -0.592200
      6 C5'         0.2550    0.0590   -2.5690 c3        1 6HA      0.196400
      7 C4'        -0.8300   -0.1820   -1.5110 c3        1 6HA      0.022100
      8 O4'        -0.3050   -1.2160   -0.6430 os        1 6HA     -0.439600
      9 C3'        -1.1490    1.1280   -0.7160 c3        1 6HA      0.408800
     10 O3'        -1.7250    2.0390   -1.4640 o         1 6HA     -0.862500
     11 C2'        -2.0450    0.7350    0.5090 c3        1 6HA     -0.173400
     12 C1'        -1.5460   -0.4600    1.3240 c3        1 6HA      0.020000
     13 C6'        -1.2320   -1.6100    0.3390 c3        1 6HA      0.138400
     14 N9         -0.4100   -0.1640    2.1820 na        1 6HA     -0.210000
     15 C8          0.8980    0.1480    1.7570 cc        1 6HA      0.468700
     16 N7          1.7660    0.3500    2.7690 nd        1 6HA     -0.608100
     17 C5          1.0110    0.1660    3.9330 ca        1 6HA     -0.202200
     18 C6          1.3370    0.2260    5.3220 ca        1 6HA      0.692200
     19 N6          2.6120    0.6370    5.7180 nh        1 6HA     -0.930500
     20 N1          0.3740   -0.0620    6.2520 nb        1 6HA     -0.806000
     21 C2         -0.8740   -0.3550    5.7820 ca        1 6HA      0.636900
     22 N3         -1.3370   -0.4300    4.5190 nb        1 6HA     -0.709000
     23 C4         -0.3750   -0.1670    3.5790 ca        1 6HA      0.422800
     24 H5'         0.3270    1.1650   -2.7730 h1        1 6HA      0.034700
     25 H5''        1.2420   -0.3120   -2.1700 h1        1 6HA      0.034700
     26 H4'        -1.7650   -0.5660   -1.9960 h1        1 6HA      0.045700
     27 H3'        -0.1520    1.4600   -0.2580 h1        1 6HA     -0.110300
     28 HO3'       -1.6760    1.3850   -3.7650 ho        1 6HA      0.468000
     29 H2'        -3.0560    0.4610    0.1150 hc        1 6HA      0.034200
     30 H2''       -2.1600    1.6370    1.1560 hc        1 6HA      0.034200
     31 H1'        -2.3720   -0.8070    2.0150 h1        1 6HA      0.044700
     32 H6'1       -0.7620   -2.4880    0.8560 h1        1 6HA      0.028700
     33 H6'2       -2.2040   -1.9220   -0.1290 h1        1 6HA      0.028700
     34 H8          1.1170    0.1970    0.6710 h5        1 6HA      0.129800
     35 H61         2.9030    0.3550    6.6250 hn        1 6HA      0.405300
     36 H62         3.3040    0.5550    5.0080 hn        1 6HA      0.405300
     37 H2         -1.6210   -0.5670    6.5740 h5        1 6HA      0.026100
@<TRIPOS>BOND
     1    1    2 1   
     2    1    3 1   
     3    1    4 1   
     4    1    5 1   
     5    4   28 1   
     6    5    6 1   
     7    6    7 1   
     8    6   24 1   
     9    6   25 1   
    10    7    8 1   
    11    7    9 1   
    12    7   26 1   
    13    8   13 1   
    14    9   10 1   
    15    9   11 1   
    16    9   27 1   
    17   11   12 1   
    18   11   29 1   
    19   11   30 1   
    20   12   13 1   
    21   12   14 1   
    22   12   31 1   
    23   13   32 1   
    24   13   33 1   
    25   14   15 1   
    26   14   23 1   
    27   15   16 2   
    28   15   34 1   
    29   16   17 1   
    30   17   18 ar  
    31   17   23 ar  
    32   18   19 1   
    33   18   20 ar  
    34   19   35 1   
    35   19   36 1   
    36   20   21 ar  
    37   21   22 ar  
    38   21   37 1   
    39   22   23 ar  
@<TRIPOS>SUBSTRUCTURE
     1 6HA         1 TEMP              0 ****  ****    0 ROOT
