@<TRIPOS>MOLECULE
6HC
   35    36     1     0     0
SMALL
bcc


@<TRIPOS>ATOM
      1 P          -0.3540   -0.2170    4.4790 p5        1 6HC      1.437800
      2 OP1         0.7930   -1.1550    4.4610 o         1 6HC     -0.856500
      3 OP2        -0.7060    0.6080    5.6560 o         1 6HC     -0.856500
      4 OP3        -1.6760   -0.9970    3.9540 oh        1 6HC     -0.810400
      5 O5'        -0.1560    0.8020    3.1870 os        1 6HC     -0.591200
      6 C5'         0.2220    0.2130    1.9810 c3        1 6HC      0.196400
      7 C4'        -0.8480    0.4360    0.9020 c3        1 6HC      0.023100
      8 O4'        -0.3400    1.5110    0.0760 os        1 6HC     -0.447600
      9 C3'        -1.0960   -0.8710    0.0790 c3        1 6HC      0.406800
     10 O3'        -1.6670   -1.8100    0.7950 o         1 6HC     -0.864500
     11 C2'        -1.9500   -0.4940   -1.1770 c3        1 6HC     -0.171400
     12 C1'        -1.4640    0.7270   -1.9590 c3        1 6HC      0.057700
     13 C6'        -1.2280    1.8740   -0.9540 c3        1 6HC      0.138400
     14 N1         -0.2930    0.4760   -2.8080 n         1 6HC     -0.322000
     15 C2         -0.4280    0.4180   -4.2410 c         1 6HC      0.817900
     16 O2         -1.5340    0.7020   -4.7600 o         1 6HC     -0.663500
     17 N3          0.6650    0.0580   -5.0470 nc        1 6HC     -0.750100
     18 C4          1.8500   -0.1770   -4.4550 cd        1 6HC      0.708500
     19 N4          2.9760   -0.4660   -5.2500 nh        1 6HC     -0.891800
     20 C5          2.0290   -0.0910   -3.0260 cd        1 6HC     -0.480600
     21 C6          0.9250    0.2220   -2.2530 cc        1 6HC      0.111600
     22 H5'         0.3810   -0.8940    2.1180 h1        1 6HC      0.031700
     23 H5''        1.1870    0.6880    1.6390 h1        1 6HC      0.031700
     24 H4'        -1.8090    0.7730    1.3720 h1        1 6HC      0.047700
     25 H3'        -0.0690   -1.1720   -0.3400 h1        1 6HC     -0.117300
     26 HO3'       -1.6400   -1.3190    3.0520 ho        1 6HC      0.472000
     27 H2'        -2.9860   -0.2640   -0.8230 hc        1 6HC      0.033700
     28 H2''       -2.0070   -1.3910   -1.8400 hc        1 6HC      0.033700
     29 H1'        -2.2840    1.0570   -2.6670 h1        1 6HC      0.062700
     30 H6'1       -0.7600    2.7690   -1.4430 h1        1 6HC      0.028200
     31 H6'2       -2.2300    2.1580   -0.5310 h1        1 6HC      0.028200
     32 H41         2.7790   -0.7540   -6.1830 hn        1 6HC      0.389300
     33 H42         3.6350   -1.0490   -4.7850 hn        1 6HC      0.389300
     34 H5          2.9990   -0.2710   -2.5550 ha        1 6HC      0.147000
     35 H6          0.9890    0.2900   -1.1390 h4        1 6HC      0.229000
@<TRIPOS>BOND
     1    1    2 1   
     2    1    3 1   
     3    1    4 1   
     4    1    5 1   
     5    4   26 1   
     6    5    6 1   
     7    6    7 1   
     8    6   22 1   
     9    6   23 1   
    10    7    8 1   
    11    7    9 1   
    12    7   24 1   
    13    8   13 1   
    14    9   10 1   
    15    9   11 1   
    16    9   25 1   
    17   11   12 1   
    18   11   27 1   
    19   11   28 1   
    20   12   13 1   
    21   12   14 1   
    22   12   29 1   
    23   13   30 1   
    24   13   31 1   
    25   14   15 1   
    26   14   21 1   
    27   15   16 2   
    28   15   17 1   
    29   17   18 2   
    30   18   19 1   
    31   18   20 1   
    32   19   32 1   
    33   19   33 1   
    34   20   21 2   
    35   20   34 1   
    36   21   35 1   
@<TRIPOS>SUBSTRUCTURE
     1 6HC         1 TEMP              0 ****  ****    0 ROOT
