@<TRIPOS>MOLECULE
6HC
   35    34     1     0     0
SMALL
bcc


@<TRIPOS>ATOM
      1 P           3.7500    3.5990    0.0200 p3        1 6HC      2.518000
      2 OP1         4.2370    3.3840    1.4300 o         1 6HC     -1.259000
      3 OP2         2.5120    4.4560    0.0440 os        1 6HC     -1.231000
      4 OP3         4.8280    4.2900   -0.7830 o         1 6HC     -1.259000
      5 O5'         3.4090    2.1850   -0.6520 os        1 6HC     -0.730000
      6 C5'         2.2730    1.4560   -0.1770 c3        1 6HC      0.060000
      7 C4'         2.5250   -0.0320   -0.3470 c3        1 6HC     -0.045000
      8 O4'         2.1840   -0.7170    0.8840 os        1 6HC     -0.298000
      9 C3'         1.7070   -0.5450   -1.5580 c3        1 6HC      0.003000
     10 O3'         2.1190   -1.8810   -1.8600 oh        1 6HC     -0.414000
     11 C2'         0.2610   -0.5460   -1.2980 c3        1 6HC     -0.164000
     12 C1'        -0.0760   -1.2410   -0.0520 c3        1 6HC     -0.037000
     13 C6'         0.7520   -0.7240    1.1540 c3        1 6HC      0.006000
     14 N1         -1.4810   -1.0520    0.2270 n         1 6HC     -0.224000
     15 C2         -1.9940    0.2750    0.5260 c2        1 6HC      0.341000
     16 O2         -1.3480    1.2560    0.2190 o         1 6HC     -0.335000
     17 N3         -3.3670    0.4340    1.0530 n2        1 6HC     -0.304000
     18 C4         -4.2660   -0.6830    1.0540 c1        1 6HC      0.181000
     19 N4         -5.6650   -0.4820    1.3340 n2        1 6HC     -0.329000
     20 C5         -3.7830   -2.0100    0.6300 c2        1 6HC     -0.383000
     21 C6         -2.3710   -2.1820    0.2250 c2        1 6HC      0.078000
     22 H5'         1.4880    1.7110   -0.6880 h1        1 6HC      0.040000
     23 H5''        2.1260    1.6590    0.7730 h1        1 6HC      0.040000
     24 H4'         3.4860   -0.1720   -0.5320 h1        1 6HC      0.118000
     25 H3'         1.8860    0.0120   -2.3110 h1        1 6HC      0.201000
     26 HO3'        2.6010   -1.8780   -2.5790 ho        1 6HC      0.278000
     27 H2'        -0.2000   -0.9930   -2.0490 hc        1 6HC      0.082000
     28 H2''       -0.0550    0.3880   -1.2390 hc        1 6HC      0.082000
     29 H1'         0.0930   -2.1780   -0.1650 h1        1 6HC      0.113000
     30 H6'1        0.4650    0.1840    1.3680 h1        1 6HC      0.091000
     31 H6'2        0.5790   -1.3040    1.9270 h1        1 6HC      0.091000
     32 H41        -5.9820    0.3610    1.5030 hn        1 6HC      0.188500
     33 H42        -6.2510   -1.2130    1.3410 hn        1 6HC      0.188500
     34 H5         -4.3890   -2.7730    0.6290 ha        1 6HC      0.141000
     35 H6         -2.0510   -3.0440   -0.0500 h4        1 6HC      0.172000
@<TRIPOS>BOND
     1    1    2 1   
     2    1    4 1   
     3    1    5 1   
     4    5    6 1   
     5    6    7 1   
     6    6   22 1   
     7    6   23 1   
     8    7    8 1   
     9    7    9 1   
    10    7   24 1   
    11    8   13 1   
    12    9   10 1   
    13    9   11 1   
    14    9   25 1   
    15   10   26 1   
    16   11   12 1   
    17   11   27 1   
    18   11   28 1   
    19   12   13 1   
    20   12   14 1   
    21   12   29 1   
    22   13   30 1   
    23   13   31 1   
    24   14   15 1   
    25   14   21 1   
    26   15   16 1   
    27   15   17 1   
    28   17   18 1   
    29   18   20 1   
    30   19   32 1   
    31   19   33 1   
    32   20   21 1   
    33   20   34 1   
    34   21   35 1   
@<TRIPOS>SUBSTRUCTURE
     1 6HC         1 TEMP              0 ****  ****    0 ROOT
