@<TRIPOS>MOLECULE
6HG
   38    40     1     0     0
SMALL
bcc


@<TRIPOS>ATOM
      1 P           0.4840   -0.2230   -5.3780 p5        1 6HG      1.436800
      2 OP1        -0.6310   -1.1860   -5.5290 o         1 6HG     -0.855000
      3 OP2         0.9240    0.6890   -6.4580 o         1 6HG     -0.855000
      4 OP3         1.7750   -1.0130   -4.7880 oh        1 6HG     -0.809400
      5 O5'         0.1490    0.7010   -4.0450 os        1 6HG     -0.593200
      6 C5'        -0.2770    0.0240   -2.9020 c3        1 6HG      0.196400
      7 C4'         0.7390    0.1810   -1.7640 c3        1 6HG      0.023100
      8 O4'         0.2220    1.2350   -0.9150 os        1 6HG     -0.436600
      9 C3'         0.9150   -1.1490   -0.9610 c3        1 6HG      0.408800
     10 O3'         1.4460   -2.1080   -1.6810 o         1 6HG     -0.861500
     11 C2'         1.7940   -0.8180    0.2960 c3        1 6HG     -0.173400
     12 C1'         1.3440    0.4040    1.0990 c3        1 6HG      0.016000
     13 C6'         1.1180    1.5750    0.1130 c3        1 6HG      0.140400
     14 N9          0.1760    0.1700    1.9340 na        1 6HG     -0.132900
     15 C8         -1.1490   -0.0200    1.4970 cc        1 6HG      0.455400
     16 N7         -2.0310   -0.1820    2.5120 nd        1 6HG     -0.644000
     17 C5         -1.2610   -0.0980    3.6690 cd        1 6HG      0.195800
     18 C6         -1.6350   -0.2060    5.0610 c         1 6HG      0.644000
     19 O6         -2.7630   -0.3920    5.5560 o         1 6HG     -0.650500
     20 N1         -0.5540   -0.0600    5.9680 n         1 6HG     -0.496400
     21 C2          0.7730    0.1370    5.5360 cd        1 6HG      0.585800
     22 N2          1.7680    0.1810    6.5820 nh        1 6HG     -0.865800
     23 N3          1.1510    0.2600    4.2560 nc        1 6HG     -0.615100
     24 C4          0.1300    0.1210    3.3260 cc        1 6HG      0.040800
     25 H5'        -0.4130   -1.0730   -3.1210 h1        1 6HG      0.036200
     26 H5''       -1.2620    0.4650   -2.5760 h1        1 6HG      0.036200
     27 H4'         1.7300    0.5090   -2.1750 h1        1 6HG      0.044700
     28 H3'        -0.1220   -1.3940   -0.5390 h1        1 6HG     -0.105300
     29 HO3'        1.6460   -1.4370   -3.9390 ho        1 6HG      0.468000
     30 H2'         2.8330   -0.6060   -0.0640 hc        1 6HG      0.034200
     31 H2''        1.8310   -1.7270    0.9420 hc        1 6HG      0.034200
     32 H1'         2.1740    0.7060    1.8060 h1        1 6HG      0.038700
     33 H6'1        0.6630    2.4660    0.6210 h1        1 6HG      0.028200
     34 H6'2        2.1230    1.8510   -0.3050 h1        1 6HG      0.028200
     35 H8         -1.3720   -0.0220    0.4130 h5        1 6HG      0.120100
     36 H1         -0.7390   -0.2040    6.9350 hn        1 6HG      0.322500
     37 H21         2.6880    0.0520    6.2040 hn        1 6HG      0.378800
     38 H22         1.7160    1.0570    7.0650 hn        1 6HG      0.378800
@<TRIPOS>BOND
     1    1    2 1   
     2    1    3 1   
     3    1    4 1   
     4    1    5 1   
     5    4   29 1   
     6    5    6 1   
     7    6    7 1   
     8    6   25 1   
     9    6   26 1   
    10    7    8 1   
    11    7    9 1   
    12    7   27 1   
    13    8   13 1   
    14    9   10 1   
    15    9   11 1   
    16    9   28 1   
    17   11   12 1   
    18   11   30 1   
    19   11   31 1   
    20   12   13 1   
    21   12   14 1   
    22   12   32 1   
    23   13   33 1   
    24   13   34 1   
    25   14   15 1   
    26   14   24 1   
    27   15   16 2   
    28   15   35 1   
    29   16   17 1   
    30   17   18 1   
    31   17   24 2   
    32   18   19 2   
    33   18   20 1   
    34   20   21 1   
    35   20   36 1   
    36   21   22 1   
    37   21   23 2   
    38   22   37 1   
    39   22   38 1   
    40   23   24 1   
@<TRIPOS>SUBSTRUCTURE
     1 6HG         1 TEMP              0 ****  ****    0 ROOT
