@<TRIPOS>MOLECULE
6HG
   38    36     1     0     0
SMALL
bcc


@<TRIPOS>ATOM
      1 P          -1.1600    4.7110   -2.0840 p3        1 6HG      2.504000
      2 OP1        -0.1450    5.5980   -1.3120 o         1 6HG     -1.249000
      3 OP2        -2.3760    4.4230   -1.1850 os        1 6HG     -1.247000
      4 OP3        -1.6120    5.4320   -3.3280 o         1 6HG     -1.249000
      5 O5'        -0.4960    3.3960   -2.4760 os        1 6HG     -0.724000
      6 C5'         0.0690    2.5440   -1.4170 c3        1 6HG      0.077000
      7 C4'         1.2840    1.7950   -1.9690 c3        1 6HG     -0.069000
      8 O4'         2.2710    1.6610   -0.9230 os        1 6HG     -0.280000
      9 C3'         0.8340    0.4560   -2.5240 c3        1 6HG      0.009000
     10 O3'         1.9370   -0.1410   -3.2700 oh        1 6HG     -0.388000
     11 C2'         0.4020   -0.4990   -1.4390 c3        1 6HG     -0.160000
     12 C1'         1.4030   -0.6330   -0.3950 c3        1 6HG     -0.020000
     13 C6'         1.8520    0.7260    0.1530 c3        1 6HG     -0.016000
     14 N9          0.8500   -1.4320    0.7060 n3        1 6HG     -0.104000
     15 C8          1.9030   -2.2280    0.8760 c1        1 6HG     -0.098000
     16 N7          1.5850   -3.1420    1.8190 n2        1 6HG     -0.097000
     17 C5          0.3250   -2.9010    2.2290 c1        1 6HG     -0.249000
     18 C6         -0.5270   -3.5380    3.3240 c1        1 6HG      0.396000
     19 O6         -0.0710   -4.5500    3.9960 o         1 6HG     -0.374000
     20 N1         -1.8070   -3.0790    3.5550 n3        1 6HG     -0.342000
     21 C2         -2.3220   -2.0300    2.7850 c2        1 6HG      0.179000
     22 N2         -3.6750   -1.5790    2.9940 n3        1 6HG     -0.309000
     23 N3         -1.5040   -1.4220    1.7390 n1        1 6HG     -0.179000
     24 C4         -0.1370   -1.8530    1.5520 c1        1 6HG      0.046000
     25 H5'         0.3440    3.1050   -0.6530 h1        1 6HG      0.031000
     26 H5''       -0.6380    1.8690   -1.1090 h1        1 6HG      0.031000
     27 H4'         1.6860    2.3380   -2.7230 h1        1 6HG      0.178000
     28 H3'         0.0860    0.6030   -3.1300 h1        1 6HG      0.162000
     29 HO3'        1.7350   -0.1490   -4.1700 ho        1 6HG      0.225000
     30 H2'         0.2410   -1.3700   -1.8330 hc        1 6HG      0.097000
     31 H2''       -0.3970   -0.1830   -1.0540 hc        1 6HG      0.097000
     32 H1'         2.1400   -1.0740   -0.7420 h1        1 6HG      0.123000
     33 H6'1        2.5710    0.5950    0.7400 h1        1 6HG      0.083000
     34 H6'2        1.1050    1.1270    0.6490 h1        1 6HG      0.083000
     35 H8          2.7960   -2.1780    0.3500 DU        1 6HG      0.200000
     36 H1         -2.2930   -3.4390    4.1820 hn        1 6HG      0.239000
     37 H21        -4.0220   -0.9250    2.4680 hn        1 6HG      0.197000
     38 H22        -4.2380   -2.0350    3.6180 hn        1 6HG      0.197000
@<TRIPOS>BOND
     1    1    2 1   
     2    1    4 1   
     3    1    5 1   
     4    5    6 1   
     5    6    7 1   
     6    6   25 1   
     7    6   26 1   
     8    7    8 1   
     9    7    9 1   
    10    7   27 1   
    11    8   13 1   
    12    9   10 1   
    13    9   11 1   
    14    9   28 1   
    15   10   29 1   
    16   11   12 1   
    17   11   30 1   
    18   11   31 1   
    19   12   13 1   
    20   12   14 1   
    21   12   32 1   
    22   13   33 1   
    23   13   34 1   
    24   14   15 1   
    25   14   24 1   
    26   15   16 1   
    27   16   17 1   
    28   17   24 1   
    29   18   19 1   
    30   18   20 1   
    31   20   21 1   
    32   20   36 1   
    33   21   22 1   
    34   21   23 1   
    35   22   37 1   
    36   22   38 1   
@<TRIPOS>SUBSTRUCTURE
     1 6HG         1 TEMP              0 ****  ****    0 ROOT
