@<TRIPOS>MOLECULE
6HI
   67    69     1     0     0
SMALL
bcc


@<TRIPOS>ATOM
      1 N3         -1.7990    0.6200   -0.1440 nc        1 6HI     -0.641000
      2 C4          0.7770   -3.2640    0.1740 c3        1 6HI     -0.115100
      3 C5         -0.5160    0.9820    0.2440 cc        1 6HI      0.319800
      4 C6         -0.4340   -2.6500    0.8740 c3        1 6HI      0.037000
      5 C7          1.6210   -0.2370    1.1000 c3        1 6HI     -0.021100
      6 C8          2.5780   -0.3840   -0.0700 c3        1 6HI     -0.080400
      7 C10         4.9470   -0.8470   -0.7520 c3        1 6HI     -0.122400
      8 C13        -0.3250   -2.8860    2.3820 c3        1 6HI     -0.115100
      9 C15         0.9550    4.2650    1.3290 ca        1 6HI     -0.168500
     10 C17        -7.3340   -0.3250   -1.4260 ca        1 6HI     -0.090500
     11 C20        -8.4140    0.2240   -0.7410 ca        1 6HI     -0.169000
     12 C21        -0.1450    3.1040   -0.9690 ca        1 6HI     -0.089000
     13 C24         0.2970    4.4220   -1.0150 ca        1 6HI     -0.168500
     14 C26        -6.4640   -1.2340    0.6400 ca        1 6HI     -0.090500
     15 C29        -8.5150    0.0410    0.6500 ca        1 6HI      0.125900
     16 C23        -7.5330   -0.6920    1.3440 ca        1 6HI     -0.169000
     17 C32        -6.3590   -1.0570   -0.7440 ca        1 6HI     -0.136300
     18 C1         -5.2110   -1.6810   -1.4880 c3        1 6HI      0.130300
     19 N2         -3.9240   -1.0850   -1.2450 n         1 6HI     -0.536900
     20 C3         -3.1190   -1.5210   -0.2080 c         1 6HI      0.605600
     21 O2         -3.3970   -2.5440    0.4520 o         1 6HI     -0.625100
     22 C2         -1.8810   -0.7270    0.0440 cd        1 6HI      0.314000
     23 N4         -0.6670   -1.2540    0.5330 na        1 6HI     -0.134900
     24 C12         0.2090   -0.1770    0.6600 cd        1 6HI     -0.133900
     25 C27        -0.0390    2.3560    0.2110 ca        1 6HI     -0.105500
     26 C30         0.8510    5.0070    0.1380 ca        1 6HI      0.120900
     27 F1          1.2810    6.2920    0.1030 f         1 6HI     -0.146900
     28 C18         0.5060    2.9490    1.3570 ca        1 6HI     -0.089000
     29 C9          3.9710   -0.7860    0.4150 c3        1 6HI      0.153100
     30 O4          3.8270   -2.0470    1.0620 oh        1 6HI     -0.646800
     31 C11         6.4030   -0.9190   -0.2900 c3        1 6HI      0.171100
     32 O3          6.5920   -2.2110    0.2750 oh        1 6HI     -0.677800
     33 C35         7.3580   -0.6670   -1.4460 c3        1 6HI     -0.235400
     34 C36         8.8150   -0.5560   -0.9640 c         1 6HI      0.910600
     35 O7          9.1870   -1.3080   -0.0110 o         1 6HI     -0.844300
     36 O6          9.5710    0.2660   -1.5480 o         1 6HI     -0.844300
     37 H4          1.7410   -2.8700    0.5860 hc        1 6HI      0.055033
     38 H4A         0.7480   -4.3690    0.3390 hc        1 6HI      0.055033
     39 H4B         0.7520   -3.0690   -0.9250 hc        1 6HI      0.055033
     40 H6         -1.3510   -3.2160    0.5140 h1        1 6HI      0.091700
     41 H7          1.7860   -1.0870    1.8170 hc        1 6HI      0.070200
     42 H7A         1.8560    0.7150    1.6520 hc        1 6HI      0.070200
     43 H8          2.2000   -1.1640   -0.7810 hc        1 6HI      0.051700
     44 H8A         2.6530    0.5850   -0.6270 hc        1 6HI      0.051700
     45 H10         4.7170   -1.7460   -1.3800 hc        1 6HI      0.051700
     46 H10A        4.8220    0.0690   -1.3840 hc        1 6HI      0.051700
     47 H13         0.5750   -2.3860    2.8130 hc        1 6HI      0.055033
     48 H13A       -1.2350   -2.5130    2.9090 hc        1 6HI      0.055033
     49 H13B       -0.2360   -3.9860    2.5550 hc        1 6HI      0.055033
     50 H15         1.3890    4.7310    2.2240 ha        1 6HI      0.145000
     51 H21        -0.5820    2.6430   -1.8690 ha        1 6HI      0.143000
     52 H24         0.2210    5.0090   -1.9410 ha        1 6HI      0.145000
     53 H26        -5.6850   -1.8110    1.1700 ha        1 6HI      0.149000
     54 H23        -7.6190   -0.8260    2.4310 ha        1 6HI      0.147000
     55 H1         -5.1570   -2.7740   -1.2050 h1        1 6HI      0.068700
     56 H1A        -5.4040   -1.6120   -2.5990 h1        1 6HI      0.068700
     57 HN2        -3.7860   -0.1650   -1.5970 hn        1 6HI      0.328500
     58 H18         0.5750    2.3730    2.2930 ha        1 6HI      0.143000
     59 H9          4.3350   -0.0400    1.1790 h1        1 6HI      0.033700
     60 HO4         4.7090   -2.4440    1.1160 ho        1 6HI      0.445000
     61 H11         6.5840   -0.1500    0.5150 h1        1 6HI      0.029700
     62 HO3         7.5510   -2.3150    0.4180 ho        1 6HI      0.468000
     63 H35         7.2990   -1.5130   -2.1740 hc        1 6HI      0.037700
     64 H35A        7.0750    0.2760   -1.9740 hc        1 6HI      0.037700
     65 H17        -7.2530   -0.1780   -2.5140 ha        1 6HI      0.149000
     66 F2         -9.5640    0.5710    1.3250 f         1 6HI     -0.145900
     67 H20        -9.1840    0.8000   -1.2720 ha        1 6HI      0.147000
@<TRIPOS>BOND
     1    1    3 1   
     2    1   22 2   
     3    2    4 1   
     4    2   37 1   
     5    2   38 1   
     6    2   39 1   
     7    3   24 2   
     8    3   25 1   
     9    4    8 1   
    10    4   23 1   
    11    4   40 1   
    12    5    6 1   
    13    5   24 1   
    14    5   41 1   
    15    5   42 1   
    16    6   29 1   
    17    6   43 1   
    18    6   44 1   
    19    7   29 1   
    20    7   31 1   
    21    7   45 1   
    22    7   46 1   
    23    8   47 1   
    24    8   48 1   
    25    8   49 1   
    26    9   26 ar  
    27    9   28 ar  
    28    9   50 1   
    29   10   11 ar  
    30   10   17 ar  
    31   10   65 1   
    32   11   15 ar  
    33   11   67 1   
    34   12   13 ar  
    35   12   25 ar  
    36   12   51 1   
    37   13   26 ar  
    38   13   52 1   
    39   14   16 ar  
    40   14   17 ar  
    41   14   53 1   
    42   15   16 ar  
    43   15   66 1   
    44   16   54 1   
    45   17   18 1   
    46   18   19 1   
    47   18   55 1   
    48   18   56 1   
    49   19   20 1   
    50   19   57 1   
    51   20   21 2   
    52   20   22 1   
    53   22   23 1   
    54   23   24 1   
    55   25   28 ar  
    56   26   27 1   
    57   28   58 1   
    58   29   30 1   
    59   29   59 1   
    60   30   60 1   
    61   31   32 1   
    62   31   33 1   
    63   31   61 1   
    64   32   62 1   
    65   33   34 1   
    66   33   63 1   
    67   33   64 1   
    68   34   35 1   
    69   34   36 1   
@<TRIPOS>SUBSTRUCTURE
     1 6HI         1 TEMP              0 ****  ****    0 ROOT
