@<TRIPOS>MOLECULE
6HI
   67    64     1     0     0
SMALL
bcc


@<TRIPOS>ATOM
      1 N3         -1.4100    0.4490   -0.6380 n2        1 6HI     -0.123000
      2 C4         -1.5270    1.7920    3.3550 c3        1 6HI     -0.229000
      3 C5         -0.0710    0.5110   -0.6450 c2        1 6HI     -0.116000
      4 C6         -0.7230    0.5650    2.9140 c3        1 6HI      0.010000
      5 C7          1.8480    0.6020    1.1400 c3        1 6HI     -0.108000
      6 C8          2.5780   -0.7190    0.7590 c3        1 6HI     -0.162000
      7 C10         4.8120   -1.8280    0.5620 c3        1 6HI     -0.201000
      8 C13        -1.3540   -0.6900    3.4990 c3        1 6HI     -0.229000
      9 C15         1.7810    2.1090   -3.4190 c1        1 6HI     -0.134000
     10 C17        -7.2080   -0.6610   -1.0850 c1        1 6HI     -0.084000
     11 C20        -8.1450   -0.5970   -2.0960 c1        1 6HI     -0.166000
     12 C21         0.9750   -0.4280   -2.6180 c1        1 6HI     -0.083000
     13 C24         1.6090   -0.2510   -3.8450 c1        1 6HI     -0.171000
     14 C26        -7.0420    1.7320   -1.0820 c1        1 6HI     -0.096000
     15 F2         -9.4130    0.6870   -3.6090 f         1 6HI     -0.111000
     16 C29        -8.5340    0.6300   -2.6040 c2        1 6HI      0.090000
     17 C23        -7.9850    1.7950   -2.0990 c2        1 6HI     -0.173000
     18 C32        -6.6540    0.5070   -0.5750 c1        1 6HI     -0.129000
     19 C1         -5.7210    0.4430    0.6330 c3        1 6HI      0.006000
     20 N2         -4.3570    0.3810    0.1850 n         1 6HI     -0.348000
     21 C3         -3.2840    0.3940    1.1450 c2        1 6HI      0.389000
     22 O2         -3.5310    0.2830    2.3310 o         1 6HI     -0.373000
     23 C2         -1.8280    0.4280    0.6670 c2        1 6HI     -0.116000
     24 N4         -0.7250    0.4790    1.4630 na        1 6HI     -0.090000
     25 C12         0.3610    0.5300    0.6660 c2        1 6HI     -0.045000
     26 C27         0.7450    0.6610   -1.7920 c1        1 6HI      0.004000
     27 C30         2.0110    1.0170   -4.2440 c1        1 6HI      0.082000
     28 F1          2.5400    1.2000   -5.4690 f         1 6HI     -0.113000
     29 C18         1.1490    1.9330   -2.1920 c1        1 6HI     -0.134000
     30 C9          4.0750   -0.5820    1.0590 c3        1 6HI      0.041000
     31 O4          4.2620   -0.4470    2.4270 oh        1 6HI     -0.377000
     32 C11         6.2960   -1.5280    0.4470 c3        1 6HI      0.060000
     33 O3          6.9080   -1.7450    1.6710 oh        1 6HI     -0.405000
     34 C35         6.9180   -2.4430   -0.6000 c3        1 6HI     -0.264000
     35 C36         8.4000   -2.1490   -0.7120 c2        1 6HI      0.330000
     36 O7          8.8010   -1.2320   -1.4650 o         1 6HI     -0.579000
     37 O6          9.2290   -2.8440   -0.0700 o         1 6HI     -0.579000
     38 H4         -1.6500    2.3920    2.5950 hc        1 6HI      0.091667
     39 H4A        -1.0420    2.2620    4.0670 hc        1 6HI      0.091667
     40 H4B        -2.4100    1.5040    3.6930 hc        1 6HI      0.091667
     41 H6          0.1930    0.6460    3.2320 h1        1 6HI      0.153000
     42 H7          2.2970    1.3650    0.7010 hc        1 6HI      0.109500
     43 H7A         1.8760    0.7220    2.1130 hc        1 6HI      0.109500
     44 H8          2.4520   -0.8980   -0.1960 hc        1 6HI      0.091500
     45 H8A         2.2100   -1.4540    1.2790 hc        1 6HI      0.091500
     46 H10         4.4630   -2.0850   -0.3130 hc        1 6HI      0.091000
     47 H10A        4.6760   -2.5630    1.1970 hc        1 6HI      0.091000
     48 H13        -2.2300   -0.4660    3.8910 hc        1 6HI      0.091667
     49 H13A       -0.7670   -1.0560    4.1970 hc        1 6HI      0.091667
     50 H13B       -1.4730   -1.3540    2.7930 hc        1 6HI      0.091667
     51 H15         2.0980    3.0010   -3.6860 ha        1 6HI      0.143500
     52 H17        -6.9440   -1.5230   -0.7210 ha        1 6HI      0.164000
     53 H20        -8.5710   -1.4030   -2.4300 ha        1 6HI      0.150000
     54 H21         0.6960   -1.3120   -2.3410 ha        1 6HI      0.149000
     55 H24         1.7980   -1.0270   -4.4150 ha        1 6HI      0.144000
     56 H26        -6.6900    2.5520   -0.6950 ha        1 6HI      0.134000
     57 H23        -8.2320    2.6540   -2.4810 ha        1 6HI      0.144000
     58 H1         -5.9280   -0.3560    1.1620 h1        1 6HI      0.107500
     59 H1A        -5.8470    1.2420    1.1860 h1        1 6HI      0.107500
     60 HN2        -4.1680    0.3810   -0.7120 hn        1 6HI      0.239000
     61 H18         0.9870    2.7020   -1.6110 ha        1 6HI      0.143500
     62 H9          4.4280    0.2080    0.6020 h1        1 6HI      0.074000
     63 HO4         4.8460    0.2100    2.5840 ho        1 6HI      0.245000
     64 H11         6.4200   -0.5960    0.1810 h1        1 6HI      0.069000
     65 HO3         7.4480   -1.0590    1.8590 ho        1 6HI      0.267000
     66 H35         6.4880   -2.2880   -1.4660 hc        1 6HI      0.077000
     67 H35A        6.7900   -3.3810   -0.3340 hc        1 6HI      0.077000
@<TRIPOS>BOND
     1    1    3 1   
     2    1   23 1   
     3    2    4 1   
     4    2   38 1   
     5    2   39 1   
     6    2   40 1   
     7    3   25 1   
     8    3   26 1   
     9    4    8 1   
    10    4   24 1   
    11    4   41 1   
    12    5    6 1   
    13    5   25 1   
    14    5   42 1   
    15    5   43 1   
    16    6   30 1   
    17    6   44 1   
    18    6   45 1   
    19    7   30 1   
    20    7   32 1   
    21    7   46 1   
    22    7   47 1   
    23    8   48 1   
    24    8   49 1   
    25    8   50 1   
    26    9   29 1   
    27    9   51 1   
    28   10   18 1   
    29   10   52 1   
    30   11   16 1   
    31   11   53 1   
    32   12   26 1   
    33   12   54 1   
    34   13   27 1   
    35   13   55 1   
    36   14   17 1   
    37   14   56 1   
    38   15   16 1   
    39   16   17 1   
    40   17   57 1   
    41   18   19 1   
    42   19   20 1   
    43   19   58 1   
    44   19   59 1   
    45   20   21 1   
    46   20   60 1   
    47   21   22 1   
    48   21   23 1   
    49   23   24 1   
    50   24   25 1   
    51   27   28 1   
    52   29   61 1   
    53   30   31 1   
    54   30   62 1   
    55   31   63 1   
    56   32   33 1   
    57   32   34 1   
    58   32   64 1   
    59   33   65 1   
    60   34   35 1   
    61   34   66 1   
    62   34   67 1   
    63   35   36 1   
    64   35   37 1   
@<TRIPOS>SUBSTRUCTURE
     1 6HI         1 TEMP              0 ****  ****    0 ROOT
