@<TRIPOS>MOLECULE
6HI
   68    70     1     0     0
SMALL
bcc


@<TRIPOS>ATOM
      1 N3         -0.0750    0.1960    0.0480 nc        1 6HI     -0.629000
      2 C4          1.5870   -1.0370    4.2560 c3        1 6HI     -0.123600
      3 C5          1.2800    0.2010   -0.0240 cc        1 6HI      0.385800
      4 C6          0.8200    0.1430    3.6630 c3        1 6HI      0.026000
      5 C7          3.2890    0.0850    1.6470 c3        1 6HI     -0.045100
      6 C8          3.7820   -1.3530    1.6640 c3        1 6HI     -0.082400
      7 C10         5.5730   -2.9090    2.4540 c3        1 6HI     -0.123400
      8 C13         1.3630    1.4520    4.2380 c3        1 6HI     -0.123600
      9 C15         3.6710    1.3360   -2.6860 ca        1 6HI     -0.165000
     10 C17        -5.6240   -1.2510   -0.2590 ca        1 6HI     -0.073500
     11 C20        -6.5700   -1.3230   -1.2750 ca        1 6HI     -0.163000
     12 C21         2.9420    1.2910   -1.5030 ca        1 6HI     -0.077500
     13 C24         2.5920   -0.7300   -3.4140 ca        1 6HI     -0.165000
     14 C26        -5.6880    1.1720   -0.3490 ca        1 6HI     -0.073500
     15 C29        -7.0790   -0.1340   -1.8350 ca        1 6HI      0.177900
     16 C23        -6.6330    1.1190   -1.3660 ca        1 6HI     -0.163000
     17 C32        -5.1770   -0.0080    0.2060 ca        1 6HI     -0.199300
     18 C1         -4.1920    0.0590    1.3210 c3        1 6HI      0.175100
     19 N2         -2.7910    0.0970    0.7970 n4        1 6HI     -0.659800
     20 C3         -1.7410    0.1530    1.8980 c         1 6HI      0.501600
     21 O2         -2.1710    0.1820    3.0480 o         1 6HI     -0.485100
     22 C2         -0.3920    0.1640    1.4030 cd        1 6HI      0.181000
     23 N4          0.7890    0.1400    2.1980 na        1 6HI     -0.077900
     24 C12         1.8470    0.1540    1.3240 cd        1 6HI     -0.058900
     25 C27         2.0420    0.2430   -1.2640 ca        1 6HI     -0.163500
     26 C30         3.4970    0.3230   -3.6480 ca        1 6HI      0.154900
     27 F1          4.1990    0.3620   -4.8030 f         1 6HI     -0.124900
     28 C18         1.8690   -0.7600   -2.2260 ca        1 6HI     -0.077500
     29 C9          5.1050   -1.4600    2.4260 c3        1 6HI      0.156100
     30 O4          4.8660   -0.9390    3.7280 oh        1 6HI     -0.659800
     31 C11         7.0150   -3.0340    2.9470 c3        1 6HI      0.174100
     32 O3          6.9980   -2.7380    4.3370 oh        1 6HI     -0.683800
     33 C35         7.5690   -4.4210    2.6720 c3        1 6HI     -0.241400
     34 C36         9.0790   -4.4770    2.9780 c         1 6HI      0.912600
     35 O7          9.4970   -3.8210    3.9810 o         1 6HI     -0.836300
     36 O6          9.8090   -5.1700    2.2230 o         1 6HI     -0.836300
     37 H4          1.3950   -1.0490    5.3580 hc        1 6HI      0.069200
     38 H4A         2.6920   -0.9400    4.0930 hc        1 6HI      0.069200
     39 H4B         1.2410   -2.0060    3.8250 hc        1 6HI      0.069200
     40 H6         -0.2590    0.0470    3.9990 h1        1 6HI      0.084700
     41 H7          3.5070    0.5620    2.6430 hc        1 6HI      0.091200
     42 H7A         3.8510    0.6650    0.8640 hc        1 6HI      0.091200
     43 H8          3.0260   -2.0170    2.1590 hc        1 6HI      0.053200
     44 H8A         3.9350   -1.7200    0.6170 hc        1 6HI      0.053200
     45 H10         5.5110   -3.3360    1.4220 hc        1 6HI      0.052700
     46 H10A        4.9030   -3.5020    3.1280 hc        1 6HI      0.052700
     47 H13         0.8200    2.3360    3.8280 hc        1 6HI      0.069200
     48 H13A        1.2160    1.4240    5.3460 hc        1 6HI      0.069200
     49 H13B        2.4550    1.5690    4.0350 hc        1 6HI      0.069200
     50 H15         4.3840    2.1520   -2.8770 ha        1 6HI      0.161000
     51 H21         3.0750    2.0870   -0.7540 ha        1 6HI      0.142500
     52 H24         2.4690   -1.5210   -4.1680 ha        1 6HI      0.161000
     53 H23        -7.0430    2.0420   -1.8050 ha        1 6HI      0.171000
     54 H1         -4.3470    0.9840    1.9490 hx        1 6HI      0.113200
     55 H1A        -4.2790   -0.8390    1.9990 hx        1 6HI      0.113200
     56 HN2        -2.6720    0.9170    0.1900 hn        1 6HI      0.463800
     57 H18         1.1630   -1.5840   -2.0410 ha        1 6HI      0.142500
     58 H9          5.8810   -0.8120    1.9260 h1        1 6HI      0.043700
     59 HO4         5.5710   -1.2680    4.3070 ho        1 6HI      0.461000
     60 H11         7.6600   -2.2670    2.4290 h1        1 6HI      0.033700
     61 HO3         7.8790   -2.9790    4.6860 ho        1 6HI      0.476000
     62 H35         7.0560   -5.1710    3.3230 hc        1 6HI      0.038700
     63 H35A        7.4000   -4.6990    1.6040 hc        1 6HI      0.038700
     64 H17        -5.2380   -2.1820    0.1870 ha        1 6HI      0.145500
     65 F2         -7.9970   -0.1940   -2.8210 f         1 6HI     -0.112900
     66 H20        -6.9300   -2.2970   -1.6430 ha        1 6HI      0.171000
     67 H22        -2.6160   -0.7360    0.2220 hn        1 6HI      0.463800
     68 H26        -5.3510    2.1510    0.0260 ha        1 6HI      0.145500
@<TRIPOS>BOND
     1    1    3 1   
     2    1   22 2   
     3    2    4 1   
     4    2   37 1   
     5    2   38 1   
     6    2   39 1   
     7    3   24 2   
     8    3   25 1   
     9    4    8 1   
    10    4   23 1   
    11    4   40 1   
    12    5    6 1   
    13    5   24 1   
    14    5   41 1   
    15    5   42 1   
    16    6   29 1   
    17    6   43 1   
    18    6   44 1   
    19    7   29 1   
    20    7   31 1   
    21    7   45 1   
    22    7   46 1   
    23    8   47 1   
    24    8   48 1   
    25    8   49 1   
    26    9   12 ar  
    27    9   26 ar  
    28    9   50 1   
    29   10   11 ar  
    30   10   17 ar  
    31   10   64 1   
    32   11   15 ar  
    33   11   66 1   
    34   12   25 ar  
    35   12   51 1   
    36   13   26 ar  
    37   13   28 ar  
    38   13   52 1   
    39   14   16 ar  
    40   14   17 ar  
    41   14   68 1   
    42   15   16 ar  
    43   15   65 1   
    44   16   53 1   
    45   17   18 1   
    46   18   19 1   
    47   18   54 1   
    48   18   55 1   
    49   19   20 1   
    50   19   56 1   
    51   19   67 1   
    52   20   21 2   
    53   20   22 1   
    54   22   23 1   
    55   23   24 1   
    56   25   28 ar  
    57   26   27 1   
    58   28   57 1   
    59   29   30 1   
    60   29   58 1   
    61   30   59 1   
    62   31   32 1   
    63   31   33 1   
    64   31   60 1   
    65   32   61 1   
    66   33   34 1   
    67   33   62 1   
    68   33   63 1   
    69   34   35 1   
    70   34   36 1   
@<TRIPOS>SUBSTRUCTURE
     1 6HI         1 TEMP              0 ****  ****    0 ROOT
