@<TRIPOS>MOLECULE
6HI
   68    71     1     0     0
SMALL
bcc


@<TRIPOS>ATOM
      1 N3          0.2770   -1.5630   -0.1520 ne        1 6HI     -0.533300
      2 C4          2.4020   -2.2170    1.3970 cx        1 6HI      0.080500
      3 C5          1.4310   -1.7540   -0.7420 cf        1 6HI      0.394900
      4 C6          2.2140   -2.9740    2.6750 cx        1 6HI      0.242500
      5 C7          3.9190   -1.4980   -0.5150 c3        1 6HI     -0.062400
      6 C8          5.1080   -1.5670    0.4180 c3        1 6HI     -0.079400
      7 C10         5.2670   -1.0300    2.8540 c3        1 6HI     -0.151400
      8 C13         2.7650   -4.3270    2.9660 c3        1 6HI     -0.139100
      9 C15         1.4480    0.2940   -3.9160 ca        1 6HI     -0.167500
     10 C17        -4.9650    0.6870    0.8650 ca        1 6HI     -0.078500
     11 C20        -5.7040    1.7660    0.3940 ca        1 6HI     -0.165000
     12 C21         2.0080   -2.3250   -3.0920 ca        1 6HI     -0.085500
     13 C24         2.1480   -1.9870   -4.4330 ca        1 6HI     -0.167500
     14 C26        -3.5090    2.1920    2.0840 ca        1 6HI     -0.078500
     15 C29        -5.3380    3.0730    0.7730 ca        1 6HI      0.160900
     16 C23        -4.2350    3.2840    1.6240 ca        1 6HI     -0.165000
     17 C32        -3.8660    0.8930    1.7070 ca        1 6HI     -0.179300
     18 C1         -3.0990   -0.2730    2.2350 c3        1 6HI      0.167100
     19 N2         -1.9540   -0.6240    1.3500 ny        1 6HI     -0.655800
     20 C3         -1.0870   -1.7560    1.9240 c2        1 6HI      0.594300
     21 O2         -1.5080   -2.2590    2.9700 o         1 6HI     -0.575300
     22 C2          0.0540   -2.0400    1.1540 ce        1 6HI     -0.147400
     23 N4          1.0840   -2.9160    1.6670 nx        1 6HI     -0.673200
     24 C12         2.7160   -2.3250   -0.0830 c3        1 6HI     -0.091000
     25 C27         1.5880   -1.3690   -2.1580 ca        1 6HI     -0.130900
     26 C30         1.8670   -0.6710   -4.8500 ca        1 6HI      0.133900
     27 F1          2.0020   -0.3350   -6.1540 f         1 6HI     -0.135900
     28 C18         1.3080   -0.0630   -2.5780 ca        1 6HI     -0.085500
     29 C9          5.2010   -0.4330    1.4550 c3        1 6HI      0.158100
     30 O4          4.0720    0.4130    1.2870 oh        1 6HI     -0.639800
     31 C11         5.3500   -0.0380    4.0150 c3        1 6HI      0.170100
     32 O3          4.4550    1.0500    3.8530 oh        1 6HI     -0.650800
     33 C35         5.0790   -0.7730    5.3280 c3        1 6HI     -0.218400
     34 C36         3.7760   -1.5600    5.2200 c         1 6HI      0.902600
     35 O7          2.7180   -0.9430    4.8540 o         1 6HI     -0.860800
     36 O6          3.7760   -2.8110    5.3940 o         1 6HI     -0.860800
     37 H4          2.8600   -3.3910   -0.4070 hc        1 6HI      0.059700
     38 H4A         0.9680   -3.8270    1.2240 hn        1 6HI      0.428800
     39 H4B         2.4290   -1.1040    1.6390 hx        1 6HI      0.165700
     40 H6          2.0940   -2.3410    3.6220 hx        1 6HI      0.240700
     41 H7          3.6040   -0.4270   -0.6520 hc        1 6HI      0.064200
     42 H7A         4.2290   -1.8760   -1.5280 hc        1 6HI      0.064200
     43 H8          5.1090   -2.5560    0.9470 hc        1 6HI      0.045200
     44 H8A         6.0430   -1.5290   -0.2030 hc        1 6HI      0.045200
     45 H10         4.3530   -1.6700    2.9930 hc        1 6HI      0.057700
     46 H10A        6.1640   -1.7010    2.9150 hc        1 6HI      0.057700
     47 H13         3.6080   -4.1720    3.7040 hc        1 6HI      0.087033
     48 H13A        3.1440   -4.8500    2.0570 hc        1 6HI      0.087033
     49 H13B        1.9990   -4.9650    3.4730 hc        1 6HI      0.087033
     50 H15         1.2370    1.3200   -4.2500 ha        1 6HI      0.152500
     51 H21         2.2290   -3.3520   -2.7640 ha        1 6HI      0.141500
     52 H24         2.4760   -2.7330   -5.1710 ha        1 6HI      0.152500
     53 H23        -3.9620    4.3090    1.9200 ha        1 6HI      0.164000
     54 H1         -2.6810   -0.0520    3.2620 hx        1 6HI      0.114200
     55 H1A        -3.7550   -1.1860    2.3270 hx        1 6HI      0.114200
     56 HN2        -1.3560    0.1970    1.2220 hn        1 6HI      0.444800
     57 H18         0.9840    0.6910   -1.8450 ha        1 6HI      0.141500
     58 H9          6.1330    0.1720    1.2610 h1        1 6HI      0.030700
     59 HO4         4.1890    1.1670    1.8810 ho        1 6HI      0.438000
     60 H11         6.3690    0.4440    4.0300 h1        1 6HI      0.046700
     61 HO3         3.5710    0.7420    4.1180 ho        1 6HI      0.450000
     62 H35         5.9230   -1.4690    5.5550 hc        1 6HI      0.056700
     63 H35A        4.9900   -0.0270    6.1560 hc        1 6HI      0.056700
     64 H17        -5.2570   -0.3360    0.5790 ha        1 6HI      0.147000
     65 F2         -6.0500    4.1280    0.3190 f         1 6HI     -0.122900
     66 H20        -6.5710    1.6120   -0.2650 ha        1 6HI      0.164000
     67 H22        -2.2980   -0.9060    0.4290 hn        1 6HI      0.444800
     68 H26        -2.6540    2.3560    2.7610 ha        1 6HI      0.147000
@<TRIPOS>BOND
     1    1    3 2   
     2    1   22 1   
     3    2    4 1   
     4    2   23 1   
     5    2   24 1   
     6    2   39 1   
     7    3   24 1   
     8    3   25 1   
     9    4    8 1   
    10    4   23 1   
    11    4   40 1   
    12    5    6 1   
    13    5   24 1   
    14    5   41 1   
    15    5   42 1   
    16    6   29 1   
    17    6   43 1   
    18    6   44 1   
    19    7   29 1   
    20    7   31 1   
    21    7   45 1   
    22    7   46 1   
    23    8   47 1   
    24    8   48 1   
    25    8   49 1   
    26    9   26 ar  
    27    9   28 ar  
    28    9   50 1   
    29   10   11 ar  
    30   10   17 ar  
    31   10   64 1   
    32   11   15 ar  
    33   11   66 1   
    34   12   13 ar  
    35   12   25 ar  
    36   12   51 1   
    37   13   26 ar  
    38   13   52 1   
    39   14   16 ar  
    40   14   17 ar  
    41   14   68 1   
    42   15   16 ar  
    43   15   65 1   
    44   16   53 1   
    45   17   18 1   
    46   18   19 1   
    47   18   54 1   
    48   18   55 1   
    49   19   20 1   
    50   19   56 1   
    51   19   67 1   
    52   20   21 1   
    53   20   22 2   
    54   22   23 1   
    55   23   38 1   
    56   24   37 1   
    57   25   28 ar  
    58   26   27 1   
    59   28   57 1   
    60   29   30 1   
    61   29   58 1   
    62   30   59 1   
    63   31   32 1   
    64   31   33 1   
    65   31   60 1   
    66   32   61 1   
    67   33   34 1   
    68   33   62 1   
    69   33   63 1   
    70   34   35 1   
    71   34   36 1   
@<TRIPOS>SUBSTRUCTURE
     1 6HI         1 TEMP              0 ****  ****    0 ROOT
