@<TRIPOS>MOLECULE
6HK
   45    48     1     0     0
SMALL
bcc


@<TRIPOS>ATOM
      1 O2          0.0430   -0.0090    0.1820 o         1 6HK     -0.628500
      2 C13         1.2870   -0.0600    0.0880 c         1 6HK      0.708100
      3 N2          1.9990   -0.1570    1.2790 ns        1 6HK     -0.471100
      4 C14         3.3880   -0.0540    1.4480 ca        1 6HK      0.039600
      5 C6          4.2970   -0.7160    0.5720 ca        1 6HK      0.054600
      6 C5          5.6770   -0.6150    0.8150 ca        1 6HK     -0.078000
      7 C4          6.1580    0.0980    1.9080 ca        1 6HK     -0.139000
      8 C15         3.8980    0.6650    2.5490 ca        1 6HK     -0.153000
      9 C3          5.2710    0.7380    2.7780 ca        1 6HK     -0.063300
     10 C2          5.8000    1.5330    3.9210 c3        1 6HK     -0.083100
     11 C1          5.1400    1.1730    5.2200 c         1 6HK      0.635100
     12 O3          6.0250    0.7000    6.1480 os        1 6HK     -0.436900
     13 C20         5.4910    0.3440    7.4250 c3        1 6HK      0.124700
     14 O1          3.9550    1.2760    5.5430 o         1 6HK     -0.543000
     15 C12         1.9580   -0.0200   -1.2350 ca        1 6HK     -0.164600
     16 C7          3.1540   -0.7110   -1.5220 ca        1 6HK      0.120600
     17 N1          3.8550   -1.4920   -0.5460 na        1 6HK     -0.586000
     18 C11         1.3210    0.7170   -2.2420 ca        1 6HK     -0.068000
     19 C10         1.8590    0.7820   -3.5220 ca        1 6HK     -0.145000
     20 C9          3.0440    0.0950   -3.8220 ca        1 6HK      0.025000
     21 C8          3.6870   -0.6470   -2.8220 ca        1 6HK     -0.102000
     22 C16         3.6460    0.1530   -5.1360 cc        1 6HK     -0.185600
     23 N4          2.9670    0.1780   -6.3680 na        1 6HK     -0.191900
     24 C19         1.5610    0.1030   -6.5880 c3        1 6HK      0.018600
     25 C18         3.9510    0.2330   -7.3640 cc        1 6HK      0.397400
     26 N3          5.1960    0.2530   -6.8360 nd        1 6HK     -0.666000
     27 C17         5.0250    0.2000   -5.4600 cd        1 6HK      0.321200
     28 H9          1.4540   -0.0520    2.1120 hn        1 6HK      0.332500
     29 H4          6.3870   -1.1170    0.1380 ha        1 6HK      0.153000
     30 H3          7.2430    0.1530    2.0850 ha        1 6HK      0.141000
     31 H10         3.2130    1.1670    3.2560 ha        1 6HK      0.163000
     32 H1          6.9100    1.3920    4.0200 hc        1 6HK      0.088700
     33 H2          5.6010    2.6260    3.7400 hc        1 6HK      0.088700
     34 H203        5.0240    1.2370    7.9040 h1        1 6HK      0.053033
     35 H202        6.3860   -0.0080    7.9960 h1        1 6HK      0.053033
     36 H201        4.7340   -0.4680    7.3070 h1        1 6HK      0.053033
     37 H5          3.2700   -2.2490   -0.2290 hn        1 6HK      0.390800
     38 H8          0.3790    1.2400   -2.0060 ha        1 6HK      0.159000
     39 H7          1.3580    1.3870   -4.2920 ha        1 6HK      0.140000
     40 H6          4.6190   -1.1860   -3.0630 ha        1 6HK      0.160000
     41 H193        1.0720   -0.4710   -5.7560 h1        1 6HK      0.057700
     42 H191        1.3590   -0.4140   -7.5640 h1        1 6HK      0.057700
     43 H192        1.1180    1.1370   -6.6270 h1        1 6HK      0.057700
     44 H12         3.7070    0.2570   -8.4310 h5        1 6HK      0.063100
     45 H11         5.8710    0.2060   -4.7730 h4        1 6HK      0.046100
@<TRIPOS>BOND
     1    1    2 2   
     2    2    3 1   
     3    2   15 1   
     4    3    4 1   
     5    3   28 1   
     6    4    5 ar  
     7    4    8 ar  
     8    5    6 ar  
     9    5   17 1   
    10    6    7 ar  
    11    6   29 1   
    12    7    9 ar  
    13    7   30 1   
    14    8    9 ar  
    15    8   31 1   
    16    9   10 1   
    17   10   11 1   
    18   10   32 1   
    19   10   33 1   
    20   11   12 1   
    21   11   14 2   
    22   12   13 1   
    23   13   34 1   
    24   13   35 1   
    25   13   36 1   
    26   15   16 ar  
    27   15   18 ar  
    28   16   17 1   
    29   16   21 ar  
    30   17   37 1   
    31   18   19 ar  
    32   18   38 1   
    33   19   20 ar  
    34   19   39 1   
    35   20   21 ar  
    36   20   22 1   
    37   21   40 1   
    38   22   23 1   
    39   22   27 2   
    40   23   24 1   
    41   23   25 1   
    42   24   41 1   
    43   24   42 1   
    44   24   43 1   
    45   25   26 2   
    46   25   44 1   
    47   26   27 1   
    48   27   45 1   
@<TRIPOS>SUBSTRUCTURE
     1 6HK         1 TEMP              0 ****  ****    0 ROOT
