@<TRIPOS>MOLECULE
6HK
   45    48     1     0     0
SMALL
bcc


@<TRIPOS>ATOM
      1 O2          0.0440   -0.0270    0.1870 o         1 6HK     -0.628500
      2 C13         1.2890   -0.0720    0.0920 c         1 6HK      0.708100
      3 N2          2.0030   -0.1670    1.2810 n         1 6HK     -0.471100
      4 C14         3.3920   -0.0580    1.4480 ca        1 6HK      0.039600
      5 C6          4.3030   -0.7150    0.5700 ca        1 6HK      0.054600
      6 C5          5.6830   -0.6080    0.8120 ca        1 6HK     -0.078000
      7 C4          6.1620    0.1060    1.9040 ca        1 6HK     -0.139000
      8 C15         3.9000    0.6630    2.5490 ca        1 6HK     -0.153000
      9 C3          5.2740    0.7420    2.7760 ca        1 6HK     -0.063300
     10 C2          5.8000    1.5390    3.9190 c3        1 6HK     -0.083100
     11 C1          5.1430    1.1750    5.2180 c         1 6HK      0.635100
     12 O3          6.0320    0.7060    6.1460 os        1 6HK     -0.436900
     13 C20         5.5020    0.3470    7.4230 c3        1 6HK      0.124700
     14 O1          3.9580    1.2730    5.5440 o         1 6HK     -0.543000
     15 C12         1.9580   -0.0280   -1.2330 ca        1 6HK     -0.164600
     16 C7          3.1570   -0.7130   -1.5220 ca        1 6HK      0.120600
     17 N1          3.8620   -1.4920   -0.5480 na        1 6HK     -0.586000
     18 C11         1.3160    0.7070   -2.2380 ca        1 6HK     -0.068000
     19 C10         1.8520    0.7750   -3.5180 ca        1 6HK     -0.145000
     20 C9          3.0390    0.0940   -3.8210 ca        1 6HK      0.025000
     21 C8          3.6880   -0.6460   -2.8220 ca        1 6HK     -0.102000
     22 C16         3.6400    0.1560   -5.1360 cc        1 6HK     -0.185600
     23 N4          2.9580    0.1790   -6.3670 na        1 6HK     -0.191900
     24 C19         1.5530    0.0980   -6.5850 c3        1 6HK      0.018600
     25 C18         3.9420    0.2400   -7.3640 cc        1 6HK      0.397400
     26 N3          5.1870    0.2650   -6.8380 nd        1 6HK     -0.666000
     27 C17         5.0180    0.2090   -5.4620 cd        1 6HK      0.321200
     28 H9          1.4590   -0.0640    2.1150 hn        1 6HK      0.332500
     29 H4          6.3940   -1.1070    0.1330 ha        1 6HK      0.153000
     30 H3          7.2470    0.1670    2.0800 ha        1 6HK      0.141000
     31 H10         3.2140    1.1610    3.2580 ha        1 6HK      0.163000
     32 H1          6.9110    1.4030    4.0160 hc        1 6HK      0.088700
     33 H2          5.5960    2.6310    3.7390 hc        1 6HK      0.088700
     34 H203        5.0310    1.2380    7.9030 h1        1 6HK      0.053033
     35 H202        6.3980   -0.0010    7.9920 h1        1 6HK      0.053033
     36 H201        4.7480   -0.4680    7.3060 h1        1 6HK      0.053033
     37 H5          3.2810   -2.2520   -0.2300 hn        1 6HK      0.390800
     38 H8          0.3720    1.2260   -2.0010 ha        1 6HK      0.159000
     39 H7          1.3470    1.3790   -4.2870 ha        1 6HK      0.140000
     40 H6          4.6210   -1.1800   -3.0650 ha        1 6HK      0.160000
     41 H193        1.0670   -0.4790   -5.7530 h1        1 6HK      0.057700
     42 H191        1.3520   -0.4190   -7.5610 h1        1 6HK      0.057700
     43 H192        1.1050    1.1290   -6.6220 h1        1 6HK      0.057700
     44 H12         3.6960    0.2640   -8.4300 h5        1 6HK      0.063100
     45 H11         5.8650    0.2190   -4.7760 h4        1 6HK      0.046100
@<TRIPOS>BOND
     1    1    2 2   
     2    2    3 1   
     3    2   15 1   
     4    3    4 1   
     5    3   28 1   
     6    4    5 ar  
     7    4    8 ar  
     8    5    6 ar  
     9    5   17 1   
    10    6    7 ar  
    11    6   29 1   
    12    7    9 ar  
    13    7   30 1   
    14    8    9 ar  
    15    8   31 1   
    16    9   10 1   
    17   10   11 1   
    18   10   32 1   
    19   10   33 1   
    20   11   12 1   
    21   11   14 2   
    22   12   13 1   
    23   13   34 1   
    24   13   35 1   
    25   13   36 1   
    26   15   16 ar  
    27   15   18 ar  
    28   16   17 1   
    29   16   21 ar  
    30   17   37 1   
    31   18   19 ar  
    32   18   38 1   
    33   19   20 ar  
    34   19   39 1   
    35   20   21 ar  
    36   20   22 1   
    37   21   40 1   
    38   22   23 1   
    39   22   27 2   
    40   23   24 1   
    41   23   25 1   
    42   24   41 1   
    43   24   42 1   
    44   24   43 1   
    45   25   26 2   
    46   25   44 1   
    47   26   27 1   
    48   27   45 1   
@<TRIPOS>SUBSTRUCTURE
     1 6HK         1 TEMP              0 ****  ****    0 ROOT
