@<TRIPOS>MOLECULE
6HK
   45    48     1     0     0
SMALL
bcc


@<TRIPOS>ATOM
      1 O2          0.4090   -3.7960   -0.8270 o         1 6HK     -0.639500
      2 C13         0.1690   -2.5930   -0.5850 c         1 6HK      0.731100
      3 N2         -1.1660   -2.2360   -0.4980 n         1 6HK     -0.467100
      4 C14        -1.7290   -0.9780   -0.2490 ca        1 6HK      0.068600
      5 C6         -1.1200   -0.0040    0.5920 ca        1 6HK      0.086600
      6 C5         -1.7950    1.2130    0.8240 ca        1 6HK     -0.144000
      7 C4         -3.0370    1.4680    0.2610 ca        1 6HK     -0.118000
      8 C15        -2.9890   -0.6880   -0.8220 ca        1 6HK     -0.145000
      9 C3         -3.6370    0.5180   -0.5710 ca        1 6HK     -0.078300
     10 C2         -4.9460    0.8030   -1.2220 c3        1 6HK     -0.080100
     11 C1         -5.9810    1.2600   -0.2360 c         1 6HK      0.635100
     12 O3         -7.0380    0.3970   -0.1430 os        1 6HK     -0.437900
     13 C20        -8.0820    0.7540    0.7650 c3        1 6HK      0.124700
     14 O1         -6.0030    2.2870    0.4440 o         1 6HK     -0.541000
     15 C12         1.2720   -1.6110   -0.4510 ca        1 6HK     -0.151600
     16 C7          1.2390   -0.5140    0.4360 ca        1 6HK      0.162600
     17 N1          0.1080   -0.2720    1.2530 na        1 6HK     -0.589000
     18 C11         2.4290   -1.8630   -1.1990 ca        1 6HK     -0.054000
     19 C10         3.5520   -1.0550   -1.0780 ca        1 6HK     -0.163000
     20 C9          3.5440    0.0240   -0.1830 ca        1 6HK      0.049000
     21 C8          2.3910    0.2930    0.5630 ca        1 6HK     -0.177000
     22 C16         4.6890    0.8960   -0.0290 cc        1 6HK     -0.186600
     23 N4          6.0420    0.5080   -0.0510 na        1 6HK     -0.189900
     24 C19         6.5660   -0.8100   -0.1810 c3        1 6HK      0.017600
     25 C18         6.7920    1.6770    0.1370 cc        1 6HK      0.397400
     26 N3          6.0000    2.7650    0.2660 nd        1 6HK     -0.666000
     27 C17         4.6970    2.2990    0.1690 cd        1 6HK      0.318200
     28 H9         -1.8190   -2.9770   -0.6580 hn        1 6HK      0.330500
     29 H4         -1.3410    1.9760    1.4770 ha        1 6HK      0.139000
     30 H3         -3.5610    2.4150    0.4750 ha        1 6HK      0.163000
     31 H10        -3.4740   -1.4340   -1.4740 ha        1 6HK      0.141000
     32 H1         -4.8160    1.6300   -1.9750 hc        1 6HK      0.087200
     33 H2         -5.3270   -0.1050   -1.7640 hc        1 6HK      0.087200
     34 H203       -8.8120   -0.0870    0.6710 h1        1 6HK      0.052367
     35 H202       -7.6740    0.8290    1.8020 h1        1 6HK      0.052367
     36 H201       -8.5350    1.7280    0.4600 h1        1 6HK      0.052367
     37 H5          0.3010    0.4130    1.9620 hn        1 6HK      0.401800
     38 H8          2.4400   -2.7320   -1.8810 ha        1 6HK      0.160000
     39 H7          4.4410   -1.2590   -1.6940 ha        1 6HK      0.141000
     40 H6          2.3980    1.1450    1.2610 ha        1 6HK      0.145000
     41 H193        6.7650   -1.0440   -1.2630 h1        1 6HK      0.058700
     42 H191        7.5300   -0.8900    0.3900 h1        1 6HK      0.058700
     43 H192        5.8320   -1.5570    0.2240 h1        1 6HK      0.058700
     44 H12         7.8860    1.6730    0.1700 h5        1 6HK      0.063100
     45 H11         3.8390    2.9680    0.2310 h4        1 6HK      0.044100
@<TRIPOS>BOND
     1    1    2 2   
     2    2    3 1   
     3    2   15 1   
     4    3    4 1   
     5    3   28 1   
     6    4    5 ar  
     7    4    8 ar  
     8    5    6 ar  
     9    5   17 1   
    10    6    7 ar  
    11    6   29 1   
    12    7    9 ar  
    13    7   30 1   
    14    8    9 ar  
    15    8   31 1   
    16    9   10 1   
    17   10   11 1   
    18   10   32 1   
    19   10   33 1   
    20   11   12 1   
    21   11   14 2   
    22   12   13 1   
    23   13   34 1   
    24   13   35 1   
    25   13   36 1   
    26   15   16 ar  
    27   15   18 ar  
    28   16   17 1   
    29   16   21 ar  
    30   17   37 1   
    31   18   19 ar  
    32   18   38 1   
    33   19   20 ar  
    34   19   39 1   
    35   20   21 ar  
    36   20   22 1   
    37   21   40 1   
    38   22   23 1   
    39   22   27 2   
    40   23   24 1   
    41   23   25 1   
    42   24   41 1   
    43   24   42 1   
    44   24   43 1   
    45   25   26 2   
    46   25   44 1   
    47   26   27 1   
    48   27   45 1   
@<TRIPOS>SUBSTRUCTURE
     1 6HK         1 TEMP              0 ****  ****    0 ROOT
