@<TRIPOS>MOLECULE
6HK
   45    39     1     0     0
SMALL
bcc


@<TRIPOS>ATOM
      1 O2         -3.6370   -1.3330    1.1770 o         1 6HK     -0.362000
      2 C13        -2.6030   -0.7350    1.0110 c1        1 6HK      0.367000
      3 N2         -1.8190   -0.1670    2.0690 n2        1 6HK     -0.319000
      4 C14        -0.5800    0.3950    1.5560 c2        1 6HK      0.081000
      5 C6          0.3160   -0.6020    1.2290 c2        1 6HK      0.005000
      6 C5          1.6910   -0.4270    1.4870 c1        1 6HK     -0.147000
      7 C4          2.1410    0.7430    2.0680 c1        1 6HK     -0.120000
      8 C15        -0.1240    1.5790    2.1440 c1        1 6HK     -0.146000
      9 C3          1.2370    1.7510    2.3990 c1        1 6HK     -0.070000
     10 C2          2.1160    2.8000    3.0840 c2        1 6HK     -0.116000
     11 C1          2.2760    2.4450    4.5670 c2        1 6HK      0.306000
     12 O3          3.5360    2.6850    5.2320 os        1 6HK     -0.275000
     13 C20         3.4070    3.2710    6.5180 c3        1 6HK     -0.065000
     14 O1          1.3830    1.8780    5.1520 o         1 6HK     -0.354000
     15 C12        -2.0330   -0.3470   -0.3710 c2        1 6HK     -0.130000
     16 C7         -0.9440   -1.1220   -0.6890 c2        1 6HK      0.080000
     17 N1         -0.3230   -1.6410    0.4890 n3        1 6HK     -0.220000
     18 C11        -2.8790    0.1270   -1.3890 c1        1 6HK     -0.054000
     19 C10        -2.6120   -0.1890   -2.7240 c1        1 6HK     -0.163000
     20 C9         -1.5120   -0.9720   -3.0450 c1        1 6HK      0.047000
     21 C8         -0.6750   -1.4410   -2.0390 c1        1 6HK     -0.177000
     22 C16        -0.6900   -1.3840   -4.2850 c2        1 6HK     -0.096000
     23 N4         -1.0560   -2.2810   -5.2040 n2        1 6HK     -0.145000
     24 C19        -2.3520   -2.8100   -5.3690 c2        1 6HK     -0.081000
     25 C18        -0.0080   -2.4650   -6.0500 c1        1 6HK     -0.091000
     26 N3          1.0070   -1.6710   -5.6410 n2        1 6HK     -0.140000
     27 C17         0.6000   -1.0020   -4.5580 c1        1 6HK     -0.148000
     28 H9         -2.0720   -0.1360    2.9270 hn        1 6HK      0.248000
     29 H4          2.3280   -1.1370    1.2540 ha        1 6HK      0.136000
     30 H3          3.0810    0.8620    2.2450 ha        1 6HK      0.140000
     31 H10        -0.7510    2.2770    2.3730 ha        1 6HK      0.165000
     32 H1          2.9970    2.8170    2.6560 ha        1 6HK      0.127000
     33 H2          1.6960    3.6810    3.0020 ha        1 6HK      0.127000
     34 H203        2.7240    3.9860    6.4880 h1        1 6HK      0.091667
     35 H202        4.2730    3.6550    6.7930 h1        1 6HK      0.091667
     36 H201        3.1320    2.5800    7.1680 h1        1 6HK      0.091667
     37 H5          0.2970   -2.2760    0.2540 hn        1 6HK      0.196000
     38 H8         -3.6620    0.6830   -1.1600 ha        1 6HK      0.161000
     39 H7         -3.1970    0.1380   -3.4270 ha        1 6HK      0.141000
     40 H6          0.1050   -1.9970   -2.2670 ha        1 6HK      0.144000
     41 H193       -2.6800   -3.1200   -4.5210 ha        1 6HK      0.098333
     42 H191       -2.3210   -3.5690   -6.0090 ha        1 6HK      0.098333
     43 H192       -2.9520   -2.1080   -5.7190 ha        1 6HK      0.098333
     44 H12         0.0090   -3.0680   -6.8210 DU        1 6HK      0.190000
     45 H11         1.1270   -0.3560   -4.0510 DU        1 6HK      0.190000
@<TRIPOS>BOND
     1    1    2 1   
     2    2   15 1   
     3    3    4 1   
     4    3   28 1   
     5    4    5 1   
     6    4    8 1   
     7    5    6 1   
     8    5   17 1   
     9    6   29 1   
    10    7    9 1   
    11    7   30 1   
    12    8   31 1   
    13   10   11 1   
    14   10   32 1   
    15   10   33 1   
    16   11   12 1   
    17   11   14 1   
    18   12   13 1   
    19   13   34 1   
    20   13   35 1   
    21   13   36 1   
    22   15   16 1   
    23   15   18 1   
    24   16   17 1   
    25   16   21 1   
    26   17   37 1   
    27   18   38 1   
    28   19   20 1   
    29   19   39 1   
    30   20   22 1   
    31   21   40 1   
    32   22   23 1   
    33   22   27 1   
    34   23   25 1   
    35   24   41 1   
    36   24   42 1   
    37   24   43 1   
    38   25   26 1   
    39   26   27 1   
@<TRIPOS>SUBSTRUCTURE
     1 6HK         1 TEMP              0 ****  ****    0 ROOT
