@<TRIPOS>MOLECULE
6HK
   45    48     1     0     0
SMALL
bcc


@<TRIPOS>ATOM
      1 O2          0.0420    0.0270    0.1870 o         1 6HK     -0.628500
      2 C13         1.2850   -0.0360    0.0920 c         1 6HK      0.708100
      3 N2          1.9980   -0.1360    1.2820 n         1 6HK     -0.471100
      4 C14         3.3880   -0.0450    1.4490 ca        1 6HK      0.039600
      5 C6          4.2900   -0.7180    0.5740 ca        1 6HK      0.054600
      6 C5          5.6710   -0.6290    0.8160 ca        1 6HK     -0.078000
      7 C4          6.1600    0.0820    1.9050 ca        1 6HK     -0.139000
      8 C15         3.9060    0.6730    2.5480 ca        1 6HK     -0.153000
      9 C3          5.2800    0.7330    2.7750 ca        1 6HK     -0.063300
     10 C2          5.8170    1.5260    3.9150 c3        1 6HK     -0.083100
     11 C1          5.1550    1.1760    5.2160 c         1 6HK      0.635100
     12 O3          6.0370    0.6980    6.1450 os        1 6HK     -0.436900
     13 C20         5.5010    0.3510    7.4230 c3        1 6HK      0.124700
     14 O1          3.9710    1.2920    5.5400 o         1 6HK     -0.543000
     15 C12         1.9550   -0.0050   -1.2320 ca        1 6HK     -0.164600
     16 C7          3.1450   -0.7090   -1.5180 ca        1 6HK      0.120600
     17 N1          3.8390   -1.4930   -0.5410 na        1 6HK     -0.586000
     18 C11         1.3240    0.7340   -2.2400 ca        1 6HK     -0.068000
     19 C10         1.8610    0.7900   -3.5210 ca        1 6HK     -0.145000
     20 C9          3.0390    0.0920   -3.8210 ca        1 6HK      0.025000
     21 C8          3.6760   -0.6530   -2.8190 ca        1 6HK     -0.102000
     22 C16         3.6400    0.1400   -5.1360 cc        1 6HK     -0.185600
     23 N4          2.9590    0.1670   -6.3670 na        1 6HK     -0.191900
     24 C19         1.5520    0.1050   -6.5850 c3        1 6HK      0.018600
     25 C18         3.9430    0.2110   -7.3640 cc        1 6HK      0.397400
     26 N3          5.1890    0.2210   -6.8380 nd        1 6HK     -0.666000
     27 C17         5.0190    0.1730   -5.4620 cd        1 6HK      0.321200
     28 H9          1.4550   -0.0230    2.1150 hn        1 6HK      0.332500
     29 H4          6.3750   -1.1400    0.1380 ha        1 6HK      0.153000
     30 H3          7.2460    0.1280    2.0810 ha        1 6HK      0.141000
     31 H10         3.2260    1.1820    3.2540 ha        1 6HK      0.163000
     32 H1          6.9260    1.3750    4.0130 hc        1 6HK      0.088700
     33 H2          5.6290    2.6210    3.7310 hc        1 6HK      0.088700
     34 H203        4.7360   -0.4540    7.3080 h1        1 6HK      0.053033
     35 H202        6.3930   -0.0080    7.9940 h1        1 6HK      0.053033
     36 H201        5.0430    1.2500    7.9000 h1        1 6HK      0.053033
     37 H5          3.2480   -2.2440   -0.2220 hn        1 6HK      0.390800
     38 H8          0.3870    1.2670   -2.0050 ha        1 6HK      0.159000
     39 H7          1.3640    1.3980   -4.2920 ha        1 6HK      0.140000
     40 H6          4.6020   -1.2020   -3.0600 ha        1 6HK      0.160000
     41 H193        1.0590   -0.4620   -5.7500 h1        1 6HK      0.057700
     42 H191        1.1190    1.1420   -6.6260 h1        1 6HK      0.057700
     43 H192        1.3440   -0.4130   -7.5590 h1        1 6HK      0.057700
     44 H12         3.6980    0.2340   -8.4310 h5        1 6HK      0.063100
     45 H11         5.8650    0.1750   -4.7760 h4        1 6HK      0.046100
@<TRIPOS>BOND
     1    1    2 2   
     2    2    3 1   
     3    2   15 1   
     4    3    4 1   
     5    3   28 1   
     6    4    5 ar  
     7    4    8 ar  
     8    5    6 ar  
     9    5   17 1   
    10    6    7 ar  
    11    6   29 1   
    12    7    9 ar  
    13    7   30 1   
    14    8    9 ar  
    15    8   31 1   
    16    9   10 1   
    17   10   11 1   
    18   10   32 1   
    19   10   33 1   
    20   11   12 1   
    21   11   14 2   
    22   12   13 1   
    23   13   34 1   
    24   13   35 1   
    25   13   36 1   
    26   15   16 ar  
    27   15   18 ar  
    28   16   17 1   
    29   16   21 ar  
    30   17   37 1   
    31   18   19 ar  
    32   18   38 1   
    33   19   20 ar  
    34   19   39 1   
    35   20   21 ar  
    36   20   22 1   
    37   21   40 1   
    38   22   23 1   
    39   22   27 2   
    40   23   24 1   
    41   23   25 1   
    42   24   41 1   
    43   24   42 1   
    44   24   43 1   
    45   25   26 2   
    46   25   44 1   
    47   26   27 1   
    48   27   45 1   
@<TRIPOS>SUBSTRUCTURE
     1 6HK         1 TEMP              0 ****  ****    0 ROOT
