@<TRIPOS>MOLECULE
6HN
   23    22     1     0     0
SMALL
bcc


@<TRIPOS>ATOM
      1 N1          3.9960    0.1920    0.0320 no        1 6HN      0.224300
      2 N          -2.4510   -1.8930    0.1670 n3        1 6HN     -0.893800
      3 CA         -2.3010   -0.4650    0.4200 c3        1 6HN      0.015500
      4 C          -3.5150    0.4080   -0.0450 c         1 6HN      0.889600
      5 OXT        -3.4300    1.6550    0.1230 o         1 6HN     -0.840300
      6 O          -4.5150   -0.1860   -0.5410 o         1 6HN     -0.840300
      7 CB         -1.0300    0.1250   -0.1920 c3        1 6HN     -0.062400
      8 CG          0.2210   -0.4390    0.4450 c3        1 6HN     -0.075400
      9 CD          1.4640    0.2130   -0.1290 c3        1 6HN     -0.094400
     10 CE          2.6920   -0.4190    0.5060 c3        1 6HN     -0.067700
     11 O2          4.2380    1.3410    0.2840 o         1 6HN     -0.228000
     12 O1          4.7740   -0.5020   -0.5690 o         1 6HN     -0.228000
     13 HA         -2.2390   -0.3450    1.5420 h1        1 6HN      0.040700
     14 HB         -1.0100   -0.0630   -1.2970 hc        1 6HN      0.051700
     15 HBA        -1.0750    1.2370   -0.0390 hc        1 6HN      0.051700
     16 HG          0.1850   -0.2690    1.5540 hc        1 6HN      0.042200
     17 HGA         0.2660   -1.5480    0.2780 hc        1 6HN      0.042200
     18 HD          1.4870    0.0720   -1.2410 hc        1 6HN      0.064200
     19 HDA         1.4470    1.3160    0.0750 hc        1 6HN      0.064200
     20 HE          2.7450   -1.5150    0.2630 h1        1 6HN      0.090700
     21 HEA         2.6730   -0.2710    1.6200 h1        1 6HN      0.090700
     22 H          -3.3880   -2.1440    0.4400 hn        1 6HN      0.331800
     23 HN2        -2.4020   -2.0440   -0.8260 hn        1 6HN      0.331800
@<TRIPOS>BOND
     1    1   10 1   
     2    1   11 1   
     3    1   12 1   
     4    2    3 1   
     5    2   22 1   
     6    2   23 1   
     7    3    4 1   
     8    3    7 1   
     9    3   13 1   
    10    4    5 1   
    11    4    6 1   
    12    7    8 1   
    13    7   14 1   
    14    7   15 1   
    15    8    9 1   
    16    8   16 1   
    17    8   17 1   
    18    9   10 1   
    19    9   18 1   
    20    9   19 1   
    21   10   20 1   
    22   10   21 1   
@<TRIPOS>SUBSTRUCTURE
     1 6HN         1 TEMP              0 ****  ****    0 ROOT
