@<TRIPOS>MOLECULE
6HS
   67    68     1     0     0
SMALL
bcc


@<TRIPOS>ATOM
      1 C11         1.7440   -2.2770    2.3030 c3        1 6HS      0.111000
      2 C12        -2.6910   -0.5010   -0.8200 c3        1 6HS     -0.039000
      3 C13        -0.9590    2.3950   -0.5710 c3        1 6HS      0.116000
      4 C21         3.0090   -2.3200    2.3760 c3        1 6HS     -0.039000
      5 C22        -2.6200   -0.7070   -1.0210 c3        1 6HS     -0.192000
      6 C23        -1.6570    3.1450   -1.7420 c3        1 6HS     -0.013000
      7 C31         3.6240   -2.3460    3.9070 c3        1 6HS     -0.126000
      8 C32        -1.4270   -1.8910   -0.3440 c3        1 6HS     -0.029000
      9 C33        -0.7490    3.3400   -2.9090 c3        1 6HS     -0.030000
     10 C41         2.9800   -3.3860    4.7320 c2        1 6HS     -0.229000
     11 C42         0.0240   -1.0500    0.5380 c3        1 6HS     -0.005000
     12 C43         0.5150    3.9470   -2.5270 c3        1 6HS      0.056000
     13 C51         1.3300   -3.6990    4.3480 c1        1 6HS      0.020000
     14 C52         0.1930   -0.7160    0.2760 c3        1 6HS      0.007000
     15 C53         1.2040    3.1940   -1.3500 c3        1 6HS     -0.058000
     16 C61         0.5160   -4.6630    5.1910 c3        1 6HS      0.025000
     17 C62        -1.0970    0.4070   -0.1770 c3        1 6HS      0.049000
     18 C83         1.4580    3.9380   -3.7430 c3        1 6HS     -0.230000
     19 C93        -1.6850    3.4860   -5.0930 c3        1 6HS     -0.124000
     20 N12        -3.5160   -1.3240    0.5950 n3        1 6HS     -0.332000
     21 N21         3.4890   -3.5810    1.6460 n3        1 6HS     -0.322000
     22 N32        -1.9350   -2.5430    0.3540 n3        1 6HS     -0.359000
     23 N33        -1.4230    4.2210   -3.9000 n3        1 6HS     -0.300000
     24 O61         0.9290   -4.5660    6.5620 oh        1 6HS     -0.322000
     25 O11         1.3550   -2.3070    0.8490 os        1 6HS     -0.292000
     26 O23        -2.7710    2.4060   -2.1530 oh        1 6HS     -0.319000
     27 O43         0.2770    5.3050   -2.1330 oh        1 6HS     -0.324000
     28 O51         0.9820   -3.4590    3.0490 o         1 6HS     -0.268000
     29 O52         0.9000   -1.4690   -1.2740 oh        1 6HS     -0.309000
     30 O53         0.3030    2.9990   -0.2020 os        1 6HS     -0.289000
     31 O62        -0.7330    1.0750   -0.9510 os        1 6HS     -0.296000
     32 H1          1.4390   -1.4190    2.6890 h2        1 6HS      0.097000
     33 H2         -3.3380    0.1920   -1.2440 h1        1 6HS      0.115000
     34 H3         -1.5570    2.4030    0.2150 h2        1 6HS      0.130000
     35 H4          3.3700   -1.5390    1.9140 h1        1 6HS      0.115000
     36 H5         -3.4510   -1.1990   -1.2960 hc        1 6HS      0.102500
     37 H6         -2.2190   -0.2600   -1.8280 hc        1 6HS      0.102500
     38 H7         -1.9530    4.0060   -1.4290 h1        1 6HS      0.143000
     39 H8          4.5950   -2.4260    4.0150 hc        1 6HS      0.107000
     40 H9          3.4770   -1.4480    4.2750 hc        1 6HS      0.107000
     41 H10        -1.0730   -2.4350   -1.0800 h1        1 6HS      0.073000
     42 H11        -0.5700    2.4660   -3.3260 h1        1 6HS      0.120000
     43 H12         3.3240   -3.5810    5.6390 ha        1 6HS      0.162000
     44 H13        -0.2960   -0.6590    1.4330 h1        1 6HS      0.118000
     45 H14         0.9030   -0.2310    0.7670 h1        1 6HS      0.085000
     46 H15         1.9750    3.7060   -1.0600 h1        1 6HS      0.107000
     47 H16         1.4990    2.3400   -1.6590 h1        1 6HS      0.107000
     48 H17        -0.4490   -4.4320    5.1180 h1        1 6HS      0.083500
     49 H18         0.6560   -5.5610    4.8770 h1        1 6HS      0.083500
     50 H19        -1.3470    0.9660    0.6450 h1        1 6HS      0.110000
     51 H20         1.1130    4.5370   -4.4230 hc        1 6HS      0.087333
     52 H21         2.3430    4.2330   -3.4680 hc        1 6HS      0.087333
     53 H22         1.5150    3.0290   -4.1070 hc        1 6HS      0.087333
     54 H23        -2.3630    2.8260   -4.9210 h1        1 6HS      0.073333
     55 H24        -2.0010    4.1080   -5.8030 h1        1 6HS      0.073333
     56 H25        -0.8610    3.0400   -5.3900 h1        1 6HS      0.073333
     57 H26        -4.1640   -1.8610    0.2900 hn        1 6HS      0.148000
     58 H27        -3.8770   -0.6950    1.1430 hn        1 6HS      0.148000
     59 H29         4.0470   -3.3450    0.9740 hn        1 6HS      0.154500
     60 H30         3.9350   -4.1260    2.2360 hn        1 6HS      0.154500
     61 H32        -1.3160   -3.0900    0.7720 hn        1 6HS      0.154500
     62 H33        -2.5430   -3.0580   -0.0950 hn        1 6HS      0.154500
     63 H35        -2.1920    4.5220   -3.5580 hn        1 6HS      0.170000
     64 H37         0.4570   -5.1490    7.0590 ho        1 6HS      0.208000
     65 H38        -3.5010    2.8910   -2.0480 ho        1 6HS      0.213000
     66 H39         1.0530    5.6960   -1.9270 ho        1 6HS      0.202000
     67 H40         1.7950   -1.5020   -1.2100 ho        1 6HS      0.208000
@<TRIPOS>BOND
     1    1    4 1   
     2    1   25 1   
     3    1   28 1   
     4    1   32 1   
     5    2    5 1   
     6    2   17 1   
     7    2   20 1   
     8    2   33 1   
     9    3    6 1   
    10    3   30 1   
    11    3   31 1   
    12    3   34 1   
    13    4    7 1   
    14    4   21 1   
    15    4   35 1   
    16    5    8 1   
    17    5   36 1   
    18    5   37 1   
    19    6    9 1   
    20    6   26 1   
    21    6   38 1   
    22    7   10 1   
    23    7   39 1   
    24    7   40 1   
    25    8   11 1   
    26    8   22 1   
    27    8   41 1   
    28    9   12 1   
    29    9   23 1   
    30    9   42 1   
    31   10   13 1   
    32   10   43 1   
    33   11   14 1   
    34   11   25 1   
    35   11   44 1   
    36   12   15 1   
    37   12   18 1   
    38   12   27 1   
    39   13   16 1   
    40   14   17 1   
    41   14   29 1   
    42   14   45 1   
    43   15   30 1   
    44   15   46 1   
    45   15   47 1   
    46   16   24 1   
    47   16   48 1   
    48   16   49 1   
    49   17   31 1   
    50   17   50 1   
    51   18   51 1   
    52   18   52 1   
    53   18   53 1   
    54   19   23 1   
    55   19   54 1   
    56   19   55 1   
    57   19   56 1   
    58   20   57 1   
    59   20   58 1   
    60   21   59 1   
    61   21   60 1   
    62   22   61 1   
    63   22   62 1   
    64   23   63 1   
    65   24   64 1   
    66   26   65 1   
    67   27   66 1   
    68   29   67 1   
@<TRIPOS>SUBSTRUCTURE
     1 6HS         1 TEMP              0 ****  ****    0 ROOT
