@<TRIPOS>MOLECULE
6HS
   67    69     1     0     0
SMALL
bcc


@<TRIPOS>ATOM
      1 C11         3.5240   -0.8410    0.3020 c3        1 6HS      0.292900
      2 C12        -0.6990    2.4140    0.0800 c3        1 6HS      0.156500
      3 C13        -2.7680   -0.1410   -1.1740 c3        1 6HS      0.299900
      4 C21         4.1540   -1.8320    1.3190 c3        1 6HS      0.157500
      5 C22         0.7070    2.9820   -0.1730 c3        1 6HS     -0.120400
      6 C23        -4.2550    0.1810   -0.9250 c3        1 6HS      0.095100
      7 C31         5.2620   -2.5750    0.5520 c3        1 6HS     -0.040200
      8 C32         1.7540    2.1890    0.6110 c3        1 6HS      0.165500
      9 C33        -4.7550   -0.5050    0.3720 c3        1 6HS      0.169500
     10 C41         6.1060   -1.6340   -0.2170 c2        1 6HS     -0.256200
     11 C42         1.7300    0.7230    0.1070 c3        1 6HS      0.107100
     12 C43        -4.4760   -2.0300    0.2090 c3        1 6HS      0.127800
     13 C51         5.7060   -0.3890   -0.5280 c2        1 6HS      0.038900
     14 C52         0.3350    0.0980    0.2240 c3        1 6HS      0.118100
     15 C53        -2.9710   -2.2320   -0.0330 c3        1 6HS      0.098400
     16 C61         6.5400    0.6250   -1.2520 c3        1 6HS      0.180600
     17 C62        -0.7410    0.9630   -0.4580 c3        1 6HS      0.121100
     18 C83        -4.8830   -2.8140    1.4480 c3        1 6HS     -0.114100
     19 N12        -1.7730    3.2280   -0.4570 n3        1 6HS     -0.907800
     20 N21         4.6330   -1.2380    2.5450 n3        1 6HS     -0.890800
     21 N32         3.0700    2.7970    0.5500 n3        1 6HS     -0.888800
     22 N33        -6.1390   -0.2620    0.7220 n3        1 6HS     -0.820200
     23 O61         5.7750    1.5230   -2.0260 oh        1 6HS     -0.587800
     24 O11         2.6090   -0.0090    0.9740 os        1 6HS     -0.412600
     25 O23        -4.4440    1.5760   -0.9080 oh        1 6HS     -0.594800
     26 O43        -5.2290   -2.4570   -0.9230 oh        1 6HS     -0.593800
     27 O51         4.4730    0.1340   -0.1750 os        1 6HS     -0.395900
     28 O52         0.4300   -1.1630   -0.4230 oh        1 6HS     -0.614800
     29 O53        -2.4850   -1.5240   -1.1670 os        1 6HS     -0.432600
     30 O62        -2.0050    0.3940   -0.1050 os        1 6HS     -0.449600
     31 H1          3.0660   -1.3730   -0.5760 h2        1 6HS      0.082700
     32 H2         -0.8710    2.3650    1.1970 h1        1 6HS      0.077700
     33 H3         -2.4380    0.2250   -2.1860 h2        1 6HS      0.089700
     34 H4          3.3420   -2.5650    1.6010 h1        1 6HS      0.081700
     35 H5          0.9410    2.9510   -1.2690 hc        1 6HS      0.055200
     36 H6          0.7420    4.0550    0.1530 hc        1 6HS      0.055200
     37 H7         -4.8500   -0.1900   -1.8090 h1        1 6HS      0.103700
     38 H8          5.8940   -3.1640    1.2680 hc        1 6HS      0.066700
     39 H9          4.7800   -3.3080   -0.1510 hc        1 6HS      0.066700
     40 H10         1.4600    2.1760    1.7030 h1        1 6HS      0.076700
     41 H11        -4.1110   -0.1380    1.2260 h1        1 6HS      0.074700
     42 H12         7.0920   -1.9990   -0.5360 ha        1 6HS      0.143000
     43 H13         2.0800    0.6660   -0.9600 h1        1 6HS      0.070700
     44 H14         0.0670   -0.0530    1.3060 h1        1 6HS      0.065700
     45 H15        -2.4010   -1.9120    0.8790 h1        1 6HS      0.059200
     46 H16        -2.7490   -3.3050   -0.2770 h1        1 6HS      0.059200
     47 H17         7.1540    1.1920   -0.5000 h1        1 6HS      0.061200
     48 H18         7.2180    0.1140   -1.9880 h1        1 6HS      0.061200
     49 H19        -0.5820    0.9490   -1.5710 h1        1 6HS      0.059700
     50 H20        -5.9960   -2.8490    1.5300 hc        1 6HS      0.049700
     51 H21        -4.4970   -3.8600    1.3860 hc        1 6HS      0.049700
     52 H22        -4.4700   -2.3270    2.3620 hc        1 6HS      0.049700
     53 H23        -5.7440    1.4010    1.9420 h1        1 6HS      0.035700
     54 H24        -6.3980    1.8380    0.3020 h1        1 6HS      0.035700
     55 H25        -7.4950    1.0770    1.5450 h1        1 6HS      0.035700
     56 H26        -1.6600    4.1810   -0.1760 hn        1 6HS      0.354300
     57 H27        -1.8030    3.1780   -1.4560 hn        1 6HS      0.354300
     58 H29         5.3970   -0.6170    2.3570 hn        1 6HS      0.357800
     59 H30         3.8940   -0.7210    2.9830 hn        1 6HS      0.357800
     60 H32         3.7320    2.1950    1.0070 hn        1 6HS      0.352800
     61 H33         3.3560    2.9100   -0.4050 hn        1 6HS      0.352800
     62 H35        -6.7380   -0.5650   -0.0240 hn        1 6HS      0.375800
     63 H37         5.1090    1.9140   -1.4450 ho        1 6HS      0.408000
     64 H38        -3.9250    1.9300   -0.1710 ho        1 6HS      0.429000
     65 H39        -5.0570   -3.4000   -1.0330 ho        1 6HS      0.405000
     66 H40        -0.4650   -1.5330   -0.4550 ho        1 6HS      0.427000
     67 C93        -6.4510    1.0810    1.1320 c3        1 6HS      0.150100
@<TRIPOS>BOND
     1    1    4 1   
     2    1   24 1   
     3    1   27 1   
     4    1   31 1   
     5    2    5 1   
     6    2   17 1   
     7    2   19 1   
     8    2   32 1   
     9    3    6 1   
    10    3   29 1   
    11    3   30 1   
    12    3   33 1   
    13    4    7 1   
    14    4   20 1   
    15    4   34 1   
    16    5    8 1   
    17    5   35 1   
    18    5   36 1   
    19    6    9 1   
    20    6   25 1   
    21    6   37 1   
    22    7   10 1   
    23    7   38 1   
    24    7   39 1   
    25    8   11 1   
    26    8   21 1   
    27    8   40 1   
    28    9   12 1   
    29    9   22 1   
    30    9   41 1   
    31   10   13 2   
    32   10   42 1   
    33   11   14 1   
    34   11   24 1   
    35   11   43 1   
    36   12   15 1   
    37   12   18 1   
    38   12   26 1   
    39   13   16 1   
    40   13   27 1   
    41   14   17 1   
    42   14   28 1   
    43   14   44 1   
    44   15   29 1   
    45   15   45 1   
    46   15   46 1   
    47   16   23 1   
    48   16   47 1   
    49   16   48 1   
    50   17   30 1   
    51   17   49 1   
    52   18   50 1   
    53   18   51 1   
    54   18   52 1   
    55   19   56 1   
    56   19   57 1   
    57   20   58 1   
    58   20   59 1   
    59   21   60 1   
    60   21   61 1   
    61   22   62 1   
    62   22   67 1   
    63   23   63 1   
    64   25   64 1   
    65   26   65 1   
    66   28   66 1   
    67   53   67 1   
    68   54   67 1   
    69   55   67 1   
@<TRIPOS>SUBSTRUCTURE
     1 6HS         1 TEMP              0 ****  ****    0 ROOT
