@<TRIPOS>MOLECULE
6HT
   37    38     1     0     0
SMALL
bcc


@<TRIPOS>ATOM
      1 P          -0.3750    0.0420   -4.6340 p5        1 6HT      1.436800
      2 OP1         0.7330    1.0240   -4.6460 o         1 6HT     -0.854500
      3 OP2        -0.6900   -0.8460   -5.7750 o         1 6HT     -0.854500
      4 OP3        -1.7310    0.7960   -4.1520 oh        1 6HT     -0.808400
      5 O5'        -0.1550   -0.9110   -3.2970 os        1 6HT     -0.591200
      6 C5'         0.1700   -0.2570   -2.1090 c3        1 6HT      0.197400
      7 C4'        -0.9210   -0.4670   -1.0510 c3        1 6HT      0.022100
      8 O4'        -0.4340   -1.5320   -0.1990 os        1 6HT     -0.443600
      9 C3'        -1.1860    0.8450   -0.2410 c3        1 6HT      0.408800
     10 O3'        -1.7260    1.7860   -0.9760 o         1 6HT     -0.860500
     11 C2'        -2.0920    0.4740    0.9820 c3        1 6HT     -0.176400
     12 C1'        -1.6590   -0.7550    1.7800 c3        1 6HT      0.072700
     13 C6'        -1.3650   -1.9020    0.7890 c3        1 6HT      0.138400
     14 N1         -0.5330   -0.5170    2.6990 n         1 6HT     -0.328000
     15 C2         -0.7740   -0.4640    4.0900 c         1 6HT      0.794500
     16 O2         -1.8940   -0.7060    4.6040 o         1 6HT     -0.685500
     17 N3          0.3020   -0.1600    4.9450 n         1 6HT     -0.595500
     18 C4          1.6030    0.1050    4.4810 c         1 6HT      0.724700
     19 O4          2.4790    0.3720    5.3310 o         1 6HT     -0.683500
     20 C5          1.7950    0.0310    3.0350 cc        1 6HT     -0.334400
     21 C5M         3.1470    0.2830    2.5010 c3        1 6HT     -0.009900
     22 C6          0.7310   -0.2560    2.2170 cd        1 6HT      0.103600
     23 H5'         0.2960    0.8480   -2.2900 h1        1 6HT      0.033700
     24 H5''        1.1400   -0.6840   -1.7210 h1        1 6HT      0.033700
     25 H4'        -1.8720   -0.8090   -1.5380 h1        1 6HT      0.047700
     26 H3'        -0.1740    1.1350    0.2170 h1        1 6HT     -0.114300
     27 HO3'       -1.6980    1.1850   -3.2770 ho        1 6HT      0.468000
     28 H2'        -3.1170    0.2590    0.5860 hc        1 6HT      0.035200
     29 H2''       -2.1640    1.3710    1.6440 hc        1 6HT      0.035200
     30 H1'        -2.5200   -1.0860    2.4380 h1        1 6HT      0.055700
     31 H6'1       -0.9130   -2.7920    1.3010 h1        1 6HT      0.029200
     32 H6'2       -2.3450   -2.1930    0.3220 h1        1 6HT      0.029200
     33 H3          0.1040   -0.1080    5.9180 hn        1 6HT      0.327500
     34 H71         3.6050    1.1650    3.0150 hc        1 6HT      0.036700
     35 H72         3.8080   -0.6020    2.6820 hc        1 6HT      0.036700
     36 H73         3.1110    0.4830    1.4020 hc        1 6HT      0.036700
     37 H6          0.8290   -0.3120    1.1030 h4        1 6HT      0.236000
@<TRIPOS>BOND
     1    1    2 1   
     2    1    3 1   
     3    1    4 1   
     4    1    5 1   
     5    4   27 1   
     6    5    6 1   
     7    6    7 1   
     8    6   23 1   
     9    6   24 1   
    10    7    8 1   
    11    7    9 1   
    12    7   25 1   
    13    8   13 1   
    14    9   10 1   
    15    9   11 1   
    16    9   26 1   
    17   11   12 1   
    18   11   28 1   
    19   11   29 1   
    20   12   13 1   
    21   12   14 1   
    22   12   30 1   
    23   13   31 1   
    24   13   32 1   
    25   14   15 1   
    26   14   22 1   
    27   15   16 2   
    28   15   17 1   
    29   17   18 1   
    30   17   33 1   
    31   18   19 2   
    32   18   20 1   
    33   20   21 1   
    34   20   22 2   
    35   21   34 1   
    36   21   35 1   
    37   21   36 1   
    38   22   37 1   
@<TRIPOS>SUBSTRUCTURE
     1 6HT         1 TEMP              0 ****  ****    0 ROOT
