@<TRIPOS>MOLECULE
6HT
   37    37     1     0     0
SMALL
bcc


@<TRIPOS>ATOM
      1 P          -1.3050    4.9290    1.8530 p4        1 6HT      1.693200
      2 OP1        -0.3300    4.4630    2.9020 o         1 6HT     -0.938500
      3 OP2        -2.3860    5.7520    2.5020 os        1 6HT     -1.230000
      4 OP3        -0.5760    5.7720    0.8250 o         1 6HT     -0.987300
      5 O5'        -1.9520    3.6760    1.1430 os        1 6HT     -0.567200
      6 C5'        -1.1000    2.6500    0.6810 c3        1 6HT      0.211400
      7 C4'        -1.6420    2.0870   -0.5810 c3        1 6HT      0.065100
      8 O4'        -0.5520    1.9310   -1.5320 os        1 6HT     -0.439600
      9 C3'        -2.3490    0.7570   -0.2710 c3        1 6HT      0.114100
     10 O3'        -3.0650    0.3300   -1.4380 oh        1 6HT     -0.685800
     11 C2'        -1.4070   -0.2970    0.1210 c3        1 6HT     -0.088400
     12 C1'        -0.3070   -0.4490   -0.8440 c3        1 6HT      0.049700
     13 C6'         0.3900    0.8850   -1.1490 c3        1 6HT      0.152400
     14 N1          0.6760   -1.3840   -0.3000 n         1 6HT     -0.336000
     15 C2          1.3630   -1.0770    0.9530 c         1 6HT      0.800500
     16 O2          1.0320   -0.1110    1.6010 o         1 6HT     -0.634500
     17 N3          2.4780   -1.9180    1.4050 n         1 6HT     -0.596500
     18 C4          2.7990   -3.1100    0.7020 c         1 6HT      0.723700
     19 O4          3.6700   -3.8510    1.1240 o         1 6HT     -0.670500
     20 C5          2.0850   -3.4450   -0.5340 cc        1 6HT     -0.319400
     21 C5M         2.4690   -4.6660   -1.3160 c3        1 6HT     -0.012900
     22 C6          1.0010   -2.5680   -1.0160 cd        1 6HT      0.075600
     23 H5'        -0.2060    3.0170    0.5170 h1        1 6HT      0.000200
     24 H5''       -1.0450    1.9480    1.3510 h1        1 6HT      0.000200
     25 H4'        -2.3020    2.7190   -0.9540 h1        1 6HT      0.080700
     26 H3'        -2.9870    0.9000    0.4580 h1        1 6HT      0.163700
     27 HO3'       -3.9420    0.4150   -1.2970 ho        1 6HT      0.479000
     28 H2'        -1.0320   -0.0780    0.9960 hc        1 6HT      0.044700
     29 H2''       -1.8930   -1.1510    0.1870 hc        1 6HT      0.044700
     30 H1'        -0.6660   -0.8160   -1.6780 h1        1 6HT      0.077700
     31 H6'1        1.0250    0.7490   -1.8780 h1        1 6HT      0.050200
     32 H6'2        0.8770    1.1750   -0.3540 h1        1 6HT      0.050200
     33 H3          2.9950   -1.6500    2.1120 hn        1 6HT      0.335500
     34 H71         2.1900   -5.4670   -0.8290 hc        1 6HT      0.036367
     35 H72         3.4370   -4.6820   -1.4410 hc        1 6HT      0.036367
     36 H73         2.0320   -4.6460   -2.1810 hc        1 6HT      0.036367
     37 H6          0.5240   -2.7880   -1.8390 h4        1 6HT      0.180000
@<TRIPOS>BOND
     1    1    2 1   
     2    1    4 2   
     3    1    5 1   
     4    5    6 1   
     5    6    7 1   
     6    6   23 1   
     7    6   24 1   
     8    7    8 1   
     9    7    9 1   
    10    7   25 1   
    11    8   13 1   
    12    9   10 1   
    13    9   11 1   
    14    9   26 1   
    15   10   27 1   
    16   11   12 1   
    17   11   28 1   
    18   11   29 1   
    19   12   13 1   
    20   12   14 1   
    21   12   30 1   
    22   13   31 1   
    23   13   32 1   
    24   14   15 1   
    25   14   22 1   
    26   15   16 2   
    27   15   17 1   
    28   17   18 1   
    29   17   33 1   
    30   18   19 2   
    31   18   20 1   
    32   20   21 1   
    33   20   22 2   
    34   21   34 1   
    35   21   35 1   
    36   21   36 1   
    37   22   37 1   
@<TRIPOS>SUBSTRUCTURE
     1 6HT         1 TEMP              0 ****  ****    0 ROOT
