@<TRIPOS>MOLECULE
6IA
   50    48     1     0     0
SMALL
bcc


@<TRIPOS>ATOM
      1 OP3         5.6920    0.7500    5.9770 o         1 6IA     -0.924167
      2 P           5.0230    0.5100    4.6410 p5        1 6IA      1.345900
      3 OP1         6.0770    0.2180    3.5970 o         1 6IA     -0.924167
      4 OP2         4.2460    1.7350    4.2410 o         1 6IA     -0.924167
      5 O5'         4.0210   -0.7470    4.7580 os        1 6IA     -0.569200
      6 C5'         3.0480   -0.9570    3.7030 c3        1 6IA      0.224400
      7 C4'         2.9010   -2.4360    3.4460 c3        1 6IA      0.062100
      8 O4'         1.3960   -2.7770    2.9780 os        1 6IA     -0.435600
      9 C3'         3.6730   -2.7970    2.4780 c3        1 6IA      0.076100
     10 O3'         4.1350   -4.2060    2.6820 oh        1 6IA     -0.667800
     11 C2'         2.7970   -2.6950    1.2050 c3        1 6IA      0.108100
     12 O2'         2.9010   -3.8290    0.4710 oh        1 6IA     -0.620800
     13 C1'         1.3450   -2.5140    1.7140 c3        1 6IA      0.223800
     14 N9          0.9080   -1.1580    1.5020 n3        1 6IA     -0.115400
     15 C8         -0.2570   -1.0280    2.1800 c1        1 6IA      0.234400
     16 N7         -1.1000   -0.2630    1.4290 ne        1 6IA     -0.452400
     17 C5         -0.4510    0.0800    0.2810 cg        1 6IA     -0.145000
     18 C6         -0.8980    0.7160   -0.8850 c1        1 6IA      0.543600
     19 N6         -2.1500    1.3870   -1.1790 n3        1 6IA     -0.696800
     20 N1         -0.1010    0.7820   -1.9630 n1        1 6IA     -0.596800
     21 C2          1.1550    0.2260   -1.9240 c1        1 6IA      0.346300
     22 N3          1.6000   -0.4020   -0.7750 n1        1 6IA     -0.512800
     23 C4          0.7900   -0.4690    0.3220 c1        1 6IA     -0.023300
     24 C12        -2.6350    1.4550   -2.5470 c3        1 6IA      0.200800
     25 C13        -3.9870    2.2470   -2.5810 c3        1 6IA     -0.090400
     26 C14        -4.4280    2.4430   -4.0350 c3        1 6IA     -0.065700
     27 C15        -4.7000    3.9530   -4.2970 c3        1 6IA     -0.089100
     28 C16        -5.7080    1.6410   -4.2930 c3        1 6IA     -0.089100
     29 H5'         2.1760   -0.5820    3.9780 h1        1 6IA      0.000200
     30 H5''        3.3500   -0.5140    2.8890 h1        1 6IA      0.000200
     31 H4'         3.1220   -2.9400    4.2540 h1        1 6IA      0.048700
     32 H3'         4.4390   -2.1930    2.4110 h1        1 6IA      0.165700
     33 HO3'        5.0010   -4.2140    2.8110 ho        1 6IA      0.497000
     34 H2'         3.0640   -1.9250    0.6730 h1        1 6IA      0.075700
     35 HO2'        3.4090   -3.6760   -0.2390 ho        1 6IA      0.423000
     36 H1'         0.7430   -3.1420    1.2590 h2        1 6IA      0.092700
     37 H8         -0.4670   -1.4360    3.0290 DU        1 6IA      0.345000
     38 HN6        -2.6050    1.8120   -0.5140 hn        1 6IA      0.426800
     39 H2          1.7270    0.2750   -2.6990 ha        1 6IA      0.100500
     40 H121       -1.9720    1.9150   -3.1060 h1        1 6IA      0.038200
     41 H122       -2.7790    0.5460   -2.8890 h1        1 6IA      0.038200
     42 H131       -3.8650    3.1170   -2.1570 hc        1 6IA      0.048700
     43 H132       -4.6780    1.7390   -2.0950 hc        1 6IA      0.048700
     44 H14        -3.7270    2.1340   -4.6300 hc        1 6IA      0.046700
     45 H151       -3.9790    4.4850   -3.9100 hc        1 6IA      0.030367
     46 H152       -5.5640    4.2120   -3.8790 hc        1 6IA      0.030367
     47 H153       -4.7440    4.1160   -5.2750 hc        1 6IA      0.030367
     48 H161       -6.2540    1.6200   -3.4740 hc        1 6IA      0.030367
     49 H162       -5.4730    0.7270   -4.5520 hc        1 6IA      0.030367
     50 H163       -6.2170    2.0610   -5.0110 hc        1 6IA      0.030367
@<TRIPOS>BOND
     1    1    2 1   
     2    2    3 1   
     3    2    4 1   
     4    2    5 1   
     5    5    6 1   
     6    6    7 1   
     7    6   29 1   
     8    6   30 1   
     9    7    8 1   
    10    7    9 1   
    11    7   31 1   
    12    8   13 1   
    13    9   10 1   
    14    9   11 1   
    15    9   32 1   
    16   10   33 1   
    17   11   12 1   
    18   11   13 1   
    19   11   34 1   
    20   12   35 1   
    21   13   14 1   
    22   13   36 1   
    23   14   15 2   
    24   14   23 1   
    25   15   16 2   
    26   16   17 1   
    27   17   23 3   
    28   18   19 1   
    29   18   20 3   
    30   19   24 1   
    31   19   38 1   
    32   21   22 3   
    33   21   39 1   
    34   24   25 1   
    35   24   40 1   
    36   24   41 1   
    37   25   26 1   
    38   25   42 1   
    39   25   43 1   
    40   26   27 1   
    41   26   28 1   
    42   26   44 1   
    43   27   45 1   
    44   27   46 1   
    45   27   47 1   
    46   28   48 1   
    47   28   49 1   
    48   28   50 1   
@<TRIPOS>SUBSTRUCTURE
     1 6IA         1 TEMP              0 ****  ****    0 ROOT
