@<TRIPOS>MOLECULE
6IA
   50    52     1     0     0
SMALL
bcc


@<TRIPOS>ATOM
      1 OP3         4.2140    3.3890    0.5210 o         1 6IA     -0.921167
      2 P           4.3470    2.2460   -0.4330 p5        1 6IA      1.315900
      3 OP1         4.3680    2.5470   -1.9030 o         1 6IA     -0.921167
      4 OP2         5.2100    1.0760   -0.0200 o         1 6IA     -0.921167
      5 O5'         2.7810    1.4180   -0.2960 os        1 6IA     -0.554200
      6 C5'         2.7670    0.2640   -1.0220 c3        1 6IA      0.223400
      7 C4'         3.1690   -0.9640   -0.1700 c3        1 6IA      0.009100
      8 O4'         2.3740   -1.1190    1.0260 os        1 6IA     -0.384600
      9 C3'         2.9810   -2.2670   -0.9580 c3        1 6IA      0.086100
     10 O3'         3.9790   -3.2430   -0.6890 oh        1 6IA     -0.638800
     11 C2'         1.6100   -2.8180   -0.4870 c3        1 6IA      0.101100
     12 O2'         1.6370   -4.1780   -0.1220 oh        1 6IA     -0.597800
     13 C1'         1.2480   -1.9370    0.7630 c3        1 6IA      0.216800
     14 N9          0.0570   -1.1160    0.6110 na        1 6IA     -0.271000
     15 C8         -0.0070    0.3000    0.5530 cc        1 6IA      0.482700
     16 N7         -1.2690    0.7700    0.5340 nd        1 6IA     -0.603100
     17 C5         -2.0910   -0.3630    0.5910 ca        1 6IA     -0.191200
     18 C6         -3.5090   -0.5360    0.5920 ca        1 6IA      0.690200
     19 N6         -4.3330    0.5990    0.6310 nh        1 6IA     -0.834900
     20 N1         -4.0300   -1.8020    0.6270 nb        1 6IA     -0.796000
     21 C2         -3.1430   -2.8370    0.6950 ca        1 6IA      0.628900
     22 N3         -1.7940   -2.8330    0.7140 nb        1 6IA     -0.702000
     23 C4         -1.2650   -1.5730    0.6510 ca        1 6IA      0.418800
     24 C12        -5.6970    0.4890    0.1720 c3        1 6IA      0.200800
     25 C13        -6.3980    1.8450    0.0780 c3        1 6IA     -0.090400
     26 C14        -7.8430    1.6820   -0.3730 c3        1 6IA     -0.065700
     27 C15        -8.6450    2.9130   -0.0010 c3        1 6IA     -0.090100
     28 C16        -7.9320    1.4340   -1.8650 c3        1 6IA     -0.090100
     29 H5'         1.7280    0.0740   -1.4320 h1        1 6IA     -0.005300
     30 H5''        3.4970    0.3180   -1.8820 h1        1 6IA     -0.005300
     31 H4'         4.2180   -0.7480    0.2170 h1        1 6IA      0.190700
     32 H3'         2.9850   -2.0920   -2.0650 h1        1 6IA      0.073700
     33 HO3'        4.6700   -2.8070   -0.1720 ho        1 6IA      0.425000
     34 H2'         0.8390   -2.7450   -1.2980 h1        1 6IA      0.084700
     35 HO2'        2.4860   -4.3450    0.3110 ho        1 6IA      0.411000
     36 H1'         1.0960   -2.5920    1.6710 h2        1 6IA      0.075700
     37 H8          0.9350    0.9160    0.5150 h5        1 6IA      0.183800
     38 HN6        -3.8610    1.4350    0.3460 hn        1 6IA      0.427800
     39 H2         -3.6140   -3.8400    0.7360 h5        1 6IA      0.025100
     40 H121       -5.7510   -0.0180   -0.8370 h1        1 6IA      0.040200
     41 H122       -6.2540   -0.1650    0.9020 h1        1 6IA      0.040200
     42 H131       -6.3780    2.3450    1.0820 hc        1 6IA      0.048700
     43 H132       -5.8560    2.5140   -0.6400 hc        1 6IA      0.048700
     44 H14        -8.2870    0.7950    0.1620 hc        1 6IA      0.046700
     45 H151       -8.2060    3.8230   -0.4770 hc        1 6IA      0.030867
     46 H152       -9.7010    2.8070   -0.3460 hc        1 6IA      0.030867
     47 H153       -8.6450    3.0590    1.1060 hc        1 6IA      0.030867
     48 H161       -8.9980    1.3070   -2.1720 hc        1 6IA      0.030867
     49 H162       -7.5010    2.2940   -2.4320 hc        1 6IA      0.030867
     50 H163       -7.3700    0.5110   -2.1430 hc        1 6IA      0.030867
@<TRIPOS>BOND
     1    1    2 1   
     2    2    3 1   
     3    2    4 1   
     4    2    5 1   
     5    5    6 1   
     6    6    7 1   
     7    6   29 1   
     8    6   30 1   
     9    7    8 1   
    10    7    9 1   
    11    7   31 1   
    12    8   13 1   
    13    9   10 1   
    14    9   11 1   
    15    9   32 1   
    16   10   33 1   
    17   11   12 1   
    18   11   13 1   
    19   11   34 1   
    20   12   35 1   
    21   13   14 1   
    22   13   36 1   
    23   14   15 1   
    24   14   23 1   
    25   15   16 2   
    26   15   37 1   
    27   16   17 1   
    28   17   18 ar  
    29   17   23 ar  
    30   18   19 1   
    31   18   20 ar  
    32   19   24 1   
    33   19   38 1   
    34   20   21 ar  
    35   21   22 ar  
    36   21   39 1   
    37   22   23 ar  
    38   24   25 1   
    39   24   40 1   
    40   24   41 1   
    41   25   26 1   
    42   25   42 1   
    43   25   43 1   
    44   26   27 1   
    45   26   28 1   
    46   26   44 1   
    47   27   45 1   
    48   27   46 1   
    49   27   47 1   
    50   28   48 1   
    51   28   49 1   
    52   28   50 1   
@<TRIPOS>SUBSTRUCTURE
     1 6IA         1 TEMP              0 ****  ****    0 ROOT
