@<TRIPOS>MOLECULE
6IG
   68    71     1     0     0
SMALL
bcc


@<TRIPOS>ATOM
      1 C1          0.1200    0.1830   -0.0940 ca        1 6IG      0.721200
      2 N1          1.4850    0.2550   -0.0930 nb        1 6IG     -0.816000
      3 C2          2.0950    0.3840    1.1420 ca        1 6IG      0.896900
      4 N2          1.4440    0.3810    2.3650 nb        1 6IG     -0.787000
      5 C3          0.0960    0.2850    2.3370 ca        1 6IG      0.522600
      6 C4         -0.6350    0.1740    1.1350 cp        1 6IG     -0.388600
      7 N3         -0.5620    0.1710   -1.3090 nu        1 6IG     -0.851900
      8 N4          3.4820    0.5880    1.1490 nv        1 6IG     -0.925500
      9 C5         -0.6200    0.2960    3.6640 c3        1 6IG     -0.139700
     10 C6         -0.5430    1.6500    4.3240 c3        1 6IG     -0.086100
     11 C7         -2.7090   -1.1430    1.4970 ca        1 6IG     -0.163000
     12 C8         -4.0940   -1.2480    1.4410 ca        1 6IG     -0.103000
     13 C9         -4.8870   -0.1890    0.9980 ca        1 6IG     -0.130300
     14 C10        -4.2800    1.0350    0.6080 ca        1 6IG      0.159600
     15 C11        -2.8680    1.1220    0.6570 ca        1 6IG     -0.176000
     16 C12        -2.0900    0.0500    1.1030 cp        1 6IG      0.007000
     17 C13        -6.3610   -0.3780    0.9290 c3        1 6IG     -0.030100
     18 C14        -7.0980    0.9400    0.9830 c3        1 6IG     -0.083400
     19 C15        -6.4700    1.9420    0.0210 c3        1 6IG      0.195800
     20 N5         -5.0560    2.1610    0.2600 nh        1 6IG     -0.644000
     21 C16        -4.4050    3.1350   -0.6000 c3        1 6IG      0.196800
     22 C17        -5.3170    4.1870   -1.2240 c3        1 6IG     -0.093400
     23 C18        -4.4680    5.1610   -2.0250 c3        1 6IG      0.128400
     24 O1         -5.3750    6.0870   -2.6210 os        1 6IG     -0.422600
     25 C19        -4.7120    7.0790   -3.3850 c3        1 6IG      0.116700
     26 C20         0.1260   -0.1180   -2.5450 c3        1 6IG      0.207800
     27 C21        -0.8260   -0.1760   -3.7450 c3        1 6IG     -0.049100
     28 C22         1.3600   -0.8600   -7.3700 ca        1 6IG     -0.129000
     29 C23         0.5720   -1.8750   -6.8280 ca        1 6IG     -0.127500
     30 C24        -0.1360   -1.6570   -5.6470 ca        1 6IG     -0.124000
     31 C25        -0.0600   -0.4200   -4.9970 ca        1 6IG     -0.082300
     32 C26         0.7330    0.5960   -5.5460 ca        1 6IG     -0.124000
     33 C27         1.4400    0.3750   -6.7260 ca        1 6IG     -0.127500
     34 HN3        -1.5080   -0.1440   -1.2520 hn        1 6IG      0.427800
     35 HN41        3.9710    0.3250    0.3250 hn        1 6IG      0.422300
     36 HN42        3.9470    0.4030    2.0080 hn        1 6IG      0.422300
     37 H51        -0.1630   -0.4780    4.3380 hc        1 6IG      0.061700
     38 H52        -1.6950    0.0110    3.5070 hc        1 6IG      0.061700
     39 H61        -1.1130    1.6330    5.2840 hc        1 6IG      0.040367
     40 H62        -0.9830    2.4370    3.6660 hc        1 6IG      0.040367
     41 H63         0.5160    1.9260    4.5450 hc        1 6IG      0.040367
     42 H8         -4.5800   -2.1880    1.7480 ha        1 6IG      0.130000
     43 H11        -2.3490    2.0450    0.3590 ha        1 6IG      0.144000
     44 H131       -6.7050   -1.0350    1.7720 hc        1 6IG      0.048700
     45 H132       -6.6110   -0.9120   -0.0290 hc        1 6IG      0.048700
     46 H141       -7.0760    1.3470    2.0280 hc        1 6IG      0.053200
     47 H142       -8.1710    0.7950    0.6950 hc        1 6IG      0.053200
     48 H151       -6.6510    1.5910   -1.0370 h1        1 6IG      0.038700
     49 H152       -6.9910    2.9330    0.1520 h1        1 6IG      0.038700
     50 H161       -3.6450    3.6720    0.0410 h1        1 6IG      0.040700
     51 H162       -3.8450    2.6160   -1.4330 h1        1 6IG      0.040700
     52 H171       -6.0720    3.7140   -1.9050 hc        1 6IG      0.062700
     53 H172       -5.8770    4.7520   -0.4350 hc        1 6IG      0.062700
     54 H181       -3.7490    5.7100   -1.3610 h1        1 6IG      0.029200
     55 H182       -3.8920    4.6300   -2.8290 h1        1 6IG      0.029200
     56 H191       -4.0230    7.6800   -2.7400 h1        1 6IG      0.033700
     57 H192       -5.5360    7.7210   -3.7840 h1        1 6IG      0.033700
     58 H193       -4.1370    6.6130   -4.2230 h1        1 6IG      0.033700
     59 H201        0.8900    0.6940   -2.7220 h1        1 6IG      0.056200
     60 H202        0.6830   -1.0970   -2.4770 h1        1 6IG      0.056200
     61 H211       -1.5850   -0.9880   -3.5930 hc        1 6IG      0.053200
     62 H212       -1.3850    0.7940   -3.8360 hc        1 6IG      0.053200
     63 H22         1.9180   -1.0330   -8.3010 ha        1 6IG      0.132000
     64 H23         0.5070   -2.8500   -7.3330 ha        1 6IG      0.132000
     65 H24        -0.7560   -2.4610   -5.2240 ha        1 6IG      0.132500
     66 H26         0.7960    1.5700   -5.0390 ha        1 6IG      0.132500
     67 H27         2.0610    1.1770   -7.1510 ha        1 6IG      0.132000
     68 H7         -2.1010   -1.9880    1.8500 ha        1 6IG      0.136000
@<TRIPOS>BOND
     1    1    2 ar  
     2    1    6 ar  
     3    1    7 1   
     4    2    3 ar  
     5    3    4 ar  
     6    3    8 1   
     7    4    5 ar  
     8    5    6 ar  
     9    5    9 1   
    10    6   16 1   
    11    7   26 1   
    12    7   34 1   
    13    8   35 1   
    14    8   36 1   
    15    9   10 1   
    16    9   37 1   
    17    9   38 1   
    18   10   39 1   
    19   10   40 1   
    20   10   41 1   
    21   11   12 ar  
    22   11   16 ar  
    23   11   68 1   
    24   12   13 ar  
    25   12   42 1   
    26   13   14 ar  
    27   13   17 1   
    28   14   15 ar  
    29   14   20 1   
    30   15   16 ar  
    31   15   43 1   
    32   17   18 1   
    33   17   44 1   
    34   17   45 1   
    35   18   19 1   
    36   18   46 1   
    37   18   47 1   
    38   19   20 1   
    39   19   48 1   
    40   19   49 1   
    41   20   21 1   
    42   21   22 1   
    43   21   50 1   
    44   21   51 1   
    45   22   23 1   
    46   22   52 1   
    47   22   53 1   
    48   23   24 1   
    49   23   54 1   
    50   23   55 1   
    51   24   25 1   
    52   25   56 1   
    53   25   57 1   
    54   25   58 1   
    55   26   27 1   
    56   26   59 1   
    57   26   60 1   
    58   27   31 1   
    59   27   61 1   
    60   27   62 1   
    61   28   29 ar  
    62   28   33 ar  
    63   28   63 1   
    64   29   30 ar  
    65   29   64 1   
    66   30   31 ar  
    67   30   65 1   
    68   31   32 ar  
    69   32   33 ar  
    70   32   66 1   
    71   33   67 1   
@<TRIPOS>SUBSTRUCTURE
     1 6IG         1 TEMP              0 ****  ****    0 ROOT
