@<TRIPOS>MOLECULE
6IG
   70    73     1     0     0
SMALL
bcc


@<TRIPOS>ATOM
      1 C1         -0.1550    1.2620   -0.3790 ca        1 6IG      0.508200
      2 N1          1.1780    1.5780   -0.4530 nb        1 6IG     -0.672000
      3 C2          1.8960    1.3010    0.6670 ca        1 6IG      0.715900
      4 N2          1.4360    0.7560    1.8450 nb        1 6IG     -0.645000
      5 C3          0.1250    0.4590    1.9030 ca        1 6IG      0.524600
      6 C4         -0.7500    0.6920    0.7760 cp        1 6IG     -0.115600
      7 N3         -0.9690    1.5430   -1.5780 n4        1 6IG     -0.758700
      8 N4          3.3540    1.6210    0.6310 n4        1 6IG     -0.813300
      9 C5         -0.4420   -0.1270    3.1660 c3        1 6IG     -0.151700
     10 C6          0.2840    0.2700    4.4260 c3        1 6IG     -0.099100
     11 C7         -2.5870   -0.9290    1.1290 ca        1 6IG     -0.132000
     12 C8         -3.9550   -1.2120    1.1650 ca        1 6IG     -0.088000
     13 C9         -4.9080   -0.2360    0.9070 ca        1 6IG     -0.072300
     14 C10        -4.4960    1.1040    0.5960 ca        1 6IG      0.219600
     15 C11        -3.1090    1.3760    0.5630 ca        1 6IG     -0.250000
     16 C12        -2.1660    0.3670    0.8260 cp        1 6IG     -0.119000
     17 C13        -6.3510   -0.5930    0.9460 c3        1 6IG     -0.051100
     18 C14        -7.2220    0.6080    1.2350 c3        1 6IG     -0.092400
     19 C15        -6.8430    1.7790    0.3370 c3        1 6IG      0.203800
     20 N5         -5.4290    2.1060    0.3790 nh        1 6IG     -0.657000
     21 C16        -5.0280    3.3440   -0.2450 c3        1 6IG      0.203800
     22 C17        -4.5200    3.2210   -1.6870 c3        1 6IG     -0.115400
     23 C18        -3.6320    4.3940   -2.0520 c3        1 6IG      0.127400
     24 O1         -2.3140    4.1120   -1.5520 os        1 6IG     -0.515600
     25 C19        -1.4820    5.2670   -1.5570 c3        1 6IG      0.111700
     26 C20        -0.5030    0.7880   -2.7880 c3        1 6IG      0.110800
     27 C21        -1.4760    0.9450   -3.9600 c3        1 6IG     -0.043100
     28 C22        -0.0520   -1.3150   -7.3080 ca        1 6IG     -0.092000
     29 C23        -0.7770   -1.9460   -6.2960 ca        1 6IG     -0.115000
     30 C24        -1.2310   -1.2140   -5.2000 ca        1 6IG     -0.117500
     31 C25        -0.9600    0.1570   -5.1120 ca        1 6IG     -0.139300
     32 C26        -0.2340    0.7870   -6.1280 ca        1 6IG     -0.117500
     33 C27         0.2180    0.0510   -7.2230 ca        1 6IG     -0.115000
     34 HN3        -1.9540    1.2850   -1.3730 hn        1 6IG      0.491800
     35 HN41        3.5700    2.2830    1.3910 hn        1 6IG      0.492467
     36 HN42        3.6140    2.0380   -0.2740 hn        1 6IG      0.492467
     37 H51        -1.5240    0.1820    3.2380 hc        1 6IG      0.102200
     38 H52        -0.4200   -1.2490    3.0540 hc        1 6IG      0.102200
     39 H61        -0.2750   -0.1310    5.3080 hc        1 6IG      0.063367
     40 H62         1.3190   -0.1480    4.4530 hc        1 6IG      0.063367
     41 H63         0.3420    1.3810    4.5250 hc        1 6IG      0.063367
     42 H11        -2.7560    2.4090    0.4060 ha        1 6IG      0.146000
     43 H131       -6.5330   -1.3830    1.7250 hc        1 6IG      0.077700
     44 H132       -6.6350   -1.0400   -0.0480 hc        1 6IG      0.077700
     45 H141       -8.2990    0.3550    1.0490 hc        1 6IG      0.078200
     46 H142       -7.1250    0.9030    2.3130 hc        1 6IG      0.078200
     47 H151       -7.4140    2.6930    0.6690 h1        1 6IG      0.060700
     48 H152       -7.1430    1.5470   -0.7270 h1        1 6IG      0.060700
     49 H161       -4.2240    3.8200    0.3890 h1        1 6IG      0.072200
     50 H162       -5.9130    4.0440   -0.2360 h1        1 6IG      0.072200
     51 H171       -5.3920    3.1980   -2.3930 hc        1 6IG      0.055200
     52 H172       -3.9470    2.2670   -1.8270 hc        1 6IG      0.055200
     53 H181       -3.5630    4.5140   -3.1670 h1        1 6IG      0.061700
     54 H182       -4.0120    5.3480   -1.5990 h1        1 6IG      0.061700
     55 H191       -0.4950    4.9070   -1.1730 h1        1 6IG      0.048033
     56 H192       -1.3790    5.6680   -2.5950 h1        1 6IG      0.048033
     57 H193       -1.9010    6.0510   -0.8790 h1        1 6IG      0.048033
     58 H201        0.5120    1.1770   -3.0820 hx        1 6IG      0.108700
     59 H202       -0.4150   -0.3000   -2.5110 hx        1 6IG      0.108700
     60 H211       -2.4960    0.5740   -3.6720 hc        1 6IG      0.071700
     61 H212       -1.5700    2.0280   -4.2440 hc        1 6IG      0.071700
     62 H22         0.3000   -1.8940   -8.1770 ha        1 6IG      0.160000
     63 H23        -1.0000   -3.0230   -6.3670 ha        1 6IG      0.155500
     64 H24        -1.8180   -1.7130   -4.4150 ha        1 6IG      0.130000
     65 H26        -0.0320    1.8680   -6.0770 ha        1 6IG      0.130000
     66 H27         0.7800    0.5530   -8.0270 ha        1 6IG      0.155500
     67 H7         -1.8590   -1.7300    1.3270 ha        1 6IG      0.145000
     68 H32        -0.9580    2.5630   -1.7750 hn        1 6IG      0.491800
     69 H43         3.8900    0.7530    0.7780 hn        1 6IG      0.492467
     70 H8         -4.2840   -2.2390    1.4060 ha        1 6IG      0.168000
@<TRIPOS>BOND
     1    1    2 ar  
     2    1    6 ar  
     3    1    7 1   
     4    2    3 ar  
     5    3    4 ar  
     6    3    8 1   
     7    4    5 ar  
     8    5    6 ar  
     9    5    9 1   
    10    6   16 1   
    11    7   26 1   
    12    7   34 1   
    13    7   68 1   
    14    8   35 1   
    15    8   36 1   
    16    8   69 1   
    17    9   10 1   
    18    9   37 1   
    19    9   38 1   
    20   10   39 1   
    21   10   40 1   
    22   10   41 1   
    23   11   12 ar  
    24   11   16 ar  
    25   11   67 1   
    26   12   13 ar  
    27   12   70 1   
    28   13   14 ar  
    29   13   17 1   
    30   14   15 ar  
    31   14   20 1   
    32   15   16 ar  
    33   15   42 1   
    34   17   18 1   
    35   17   43 1   
    36   17   44 1   
    37   18   19 1   
    38   18   45 1   
    39   18   46 1   
    40   19   20 1   
    41   19   47 1   
    42   19   48 1   
    43   20   21 1   
    44   21   22 1   
    45   21   49 1   
    46   21   50 1   
    47   22   23 1   
    48   22   51 1   
    49   22   52 1   
    50   23   24 1   
    51   23   53 1   
    52   23   54 1   
    53   24   25 1   
    54   25   55 1   
    55   25   56 1   
    56   25   57 1   
    57   26   27 1   
    58   26   58 1   
    59   26   59 1   
    60   27   31 1   
    61   27   60 1   
    62   27   61 1   
    63   28   29 ar  
    64   28   33 ar  
    65   28   62 1   
    66   29   30 ar  
    67   29   63 1   
    68   30   31 ar  
    69   30   64 1   
    70   31   32 ar  
    71   32   33 ar  
    72   32   65 1   
    73   33   66 1   
@<TRIPOS>SUBSTRUCTURE
     1 6IG         1 TEMP              0 ****  ****    0 ROOT
