@<TRIPOS>MOLECULE
6IG
   68    61     1     0     0
SMALL
bcc


@<TRIPOS>ATOM
      1 C1          2.0940    1.9650   -0.7050 c1        1 6IG      0.250800
      2 N1          3.4290    2.1030   -0.7120 n1        1 6IG     -0.612800
      3 C2          4.1200    2.3090    0.4840 c1        1 6IG      0.557600
      4 N2          3.4290    2.3720    1.6780 n1        1 6IG     -0.581800
      5 C3          2.0890    2.2350    1.6940 c1        1 6IG      0.450700
      6 C4          1.3970    2.0290    0.5030 c1        1 6IG     -0.264000
      7 N3          1.3570    1.9640   -1.9750 n3        1 6IG     -0.698800
      8 N4          5.5030    2.2750    0.4950 n3        1 6IG     -0.786400
      9 C5          1.3380    2.3770    2.9990 c3        1 6IG     -0.069300
     10 C6          2.3550    2.2830    4.1860 c3        1 6IG     -0.082100
     11 C7         -0.8430    3.1510    0.3190 c1        1 6IG     -0.108500
     12 C8         -2.2530    3.0600    0.2750 c1        1 6IG     -0.040500
     13 C9         -2.8830    1.8070    0.4130 c1        1 6IG     -0.106100
     14 C10        -2.0660    0.5900    0.6040 c1        1 6IG      0.154800
     15 C11        -0.6520    0.6880    0.6470 c1        1 6IG     -0.129500
     16 C12        -0.0300    1.9400    0.5080 c1        1 6IG      0.009000
     17 C13        -4.4130    1.6190    0.2280 c3        1 6IG     -0.062300
     18 C14        -4.8570    0.3160    0.0920 c3        1 6IG     -0.085400
     19 C15        -4.1750   -0.6910    0.8850 c3        1 6IG      0.215800
     20 N5         -2.7980   -0.7330    0.7860 n3        1 6IG     -0.649200
     21 C16        -2.2580   -1.4250    1.9270 c3        1 6IG      0.213800
     22 C17        -2.7830   -2.8640    1.9400 c3        1 6IG     -0.098400
     23 C18        -2.7260   -3.4350    3.3940 c3        1 6IG      0.127400
     24 O1         -3.0630   -4.8010    3.3730 os        1 6IG     -0.419600
     25 C19        -2.4510   -5.5840    4.4530 c3        1 6IG      0.115700
     26 C20         2.0120    1.5510   -3.1880 c3        1 6IG      0.202800
     27 C21         1.2490    0.4170   -3.8020 c3        1 6IG     -0.107300
     28 C22         3.7230   -2.4610   -5.9250 c1        1 6IG     -0.071250
     29 C23         3.4000   -2.6740   -4.5680 c1        1 6IG     -0.071250
     30 C24         2.6660   -1.7290   -3.8750 c1        1 6IG     -0.071250
     31 C25         2.2420   -0.5560   -4.5220 c1        1 6IG     -0.043100
     32 C26         2.5580   -0.3500   -5.8450 c1        1 6IG     -0.070500
     33 C27         3.3110   -1.3210   -6.5550 c1        1 6IG     -0.071250
     34 HN3         0.4720    2.2680   -2.0020 hn        1 6IG      0.424800
     35 HN41        5.9470    2.1260    1.2800 hn        1 6IG      0.420800
     36 HN42        5.9740    2.5100   -0.2610 hn        1 6IG      0.420800
     37 H51         0.6600    1.6440    3.0770 hc        1 6IG      0.060700
     38 H52         0.8670    3.2810    3.0270 hc        1 6IG      0.060700
     39 H61         3.0180    3.0590    4.1300 hc        1 6IG      0.038700
     40 H62         2.8700    1.3850    4.1300 hc        1 6IG      0.038700
     41 H63         1.9070    2.3270    4.9720 hc        1 6IG      0.038700
     42 H7         -0.3910    4.0470    0.1840 ha        1 6IG      0.084500
     43 H8         -2.7920    3.8690    0.1480 ha        1 6IG      0.072500
     44 H11        -0.1070   -0.1200    0.7950 ha        1 6IG      0.082500
     45 H131       -4.8670    2.0180    1.0110 hc        1 6IG      0.049700
     46 H132       -4.6740    2.0980   -0.5360 hc        1 6IG      0.049700
     47 H141       -4.7800    0.0820   -0.7880 hc        1 6IG      0.053700
     48 H142       -5.7850    0.2960    0.3260 hc        1 6IG      0.053700
     49 H151       -4.5210   -1.5860    0.5950 h1        1 6IG      0.034700
     50 H152       -4.3910   -0.5270    1.8060 h1        1 6IG      0.034700
     51 H161       -2.5400   -0.9620    2.7560 h1        1 6IG      0.042200
     52 H162       -1.2440   -1.4320    1.8710 h1        1 6IG      0.042200
     53 H171       -2.2420   -3.4070    1.3610 hc        1 6IG      0.065200
     54 H172       -3.7240   -2.8740    1.6180 hc        1 6IG      0.065200
     55 H181       -1.7720   -3.3220    3.7720 h1        1 6IG      0.024700
     56 H182       -3.3700   -2.9450    3.9670 h1        1 6IG      0.024700
     57 H191       -2.6910   -6.5880    4.3290 h1        1 6IG      0.033033
     58 H192       -1.4600   -5.4710    4.4230 h1        1 6IG      0.033033
     59 H193       -2.8080   -5.2550    5.3600 h1        1 6IG      0.033033
     60 H201        2.8980    1.2670   -2.9910 h1        1 6IG      0.065200
     61 H202        2.0410    2.2680   -3.7860 h1        1 6IG      0.065200
     62 H211        0.5750    0.7890   -4.4860 hc        1 6IG      0.058200
     63 H212        0.7480   -0.0900   -3.0730 hc        1 6IG      0.058200
     64 H22         4.2080   -3.0850   -6.3830 ha        1 6IG      0.074500
     65 H23         3.7100   -3.5310   -4.0950 ha        1 6IG      0.074500
     66 H24         2.4380   -1.8800   -2.9170 ha        1 6IG      0.074500
     67 H26         2.2580    0.4800   -6.3020 ha        1 6IG      0.072500
     68 H27         3.5440   -1.1690   -7.5300 ha        1 6IG      0.074500
@<TRIPOS>BOND
     1    1    6 3   
     2    1    7 1   
     3    2    3 3   
     4    3    8 1   
     5    4    5 3   
     6    5    9 1   
     7    7   26 1   
     8    7   34 1   
     9    8   35 1   
    10    8   36 1   
    11    9   10 1   
    12    9   37 1   
    13    9   38 1   
    14   10   39 1   
    15   10   40 1   
    16   10   41 1   
    17   11   16 3   
    18   11   42 1   
    19   12   13 3   
    20   12   43 1   
    21   13   17 1   
    22   14   15 3   
    23   14   20 1   
    24   15   44 1   
    25   17   18 1   
    26   17   45 1   
    27   17   46 1   
    28   18   19 1   
    29   18   47 1   
    30   18   48 1   
    31   19   20 1   
    32   19   49 1   
    33   19   50 1   
    34   20   21 1   
    35   21   22 1   
    36   21   51 1   
    37   21   52 1   
    38   22   23 1   
    39   22   53 1   
    40   22   54 1   
    41   23   24 1   
    42   23   55 1   
    43   23   56 1   
    44   24   25 1   
    45   25   57 1   
    46   25   58 1   
    47   25   59 1   
    48   26   27 1   
    49   26   60 1   
    50   26   61 1   
    51   27   31 1   
    52   27   62 1   
    53   27   63 1   
    54   28   33 3   
    55   28   64 1   
    56   29   30 3   
    57   29   65 1   
    58   30   66 1   
    59   31   32 3   
    60   32   67 1   
    61   33   68 1   
@<TRIPOS>SUBSTRUCTURE
     1 6IG         1 TEMP              0 ****  ****    0 ROOT
