@<TRIPOS>MOLECULE
6IG
   68    71     1     0     0
SMALL
bcc


@<TRIPOS>ATOM
      1 C1          0.1180    0.1720   -0.1030 ca        1 6IG      0.721200
      2 N1          1.4830    0.2410   -0.1020 nb        1 6IG     -0.816000
      3 C2          2.0940    0.3580    1.1340 ca        1 6IG      0.896900
      4 N2          1.4440    0.3470    2.3580 nb        1 6IG     -0.787000
      5 C3          0.0960    0.2540    2.3290 ca        1 6IG      0.522600
      6 C4         -0.6360    0.1550    1.1270 cp        1 6IG     -0.388600
      7 N3         -0.5650    0.1700   -1.3180 nh        1 6IG     -0.851900
      8 N4          3.4820    0.5600    1.1420 nh        1 6IG     -0.925500
      9 C5         -0.6200    0.2550    3.6560 c3        1 6IG     -0.139700
     10 C6         -0.5380    1.6040    4.3280 c3        1 6IG     -0.086100
     11 C7         -2.7120   -1.1610    1.4800 ca        1 6IG     -0.163000
     12 C8         -4.0970   -1.2640    1.4230 ca        1 6IG     -0.103000
     13 C9         -4.8890   -0.2000    0.9880 ca        1 6IG     -0.130300
     14 C10        -4.2790    1.0260    0.6080 ca        1 6IG      0.159600
     15 C11        -2.8670    1.1100    0.6570 ca        1 6IG     -0.176000
     16 C12        -2.0910    0.0330    1.0950 cp        1 6IG      0.007000
     17 C13        -6.3630   -0.3860    0.9180 c3        1 6IG     -0.030100
     18 C14        -7.0980    0.9330    0.9830 c3        1 6IG     -0.083400
     19 C15        -6.4680    1.9410    0.0280 c3        1 6IG      0.195800
     20 N5         -5.0540    2.1560    0.2680 nh        1 6IG     -0.644000
     21 C16        -4.4020    3.1360   -0.5840 c3        1 6IG      0.196800
     22 C17        -5.3110    4.1940   -1.2000 c3        1 6IG     -0.093400
     23 C18        -4.4610    5.1730   -1.9930 c3        1 6IG      0.128400
     24 O1         -5.3660    6.1060   -2.5810 os        1 6IG     -0.422600
     25 C19        -4.7010    7.1030   -3.3370 c3        1 6IG      0.116700
     26 C20         0.1230   -0.1090   -2.5560 c3        1 6IG      0.207800
     27 C21        -0.8300   -0.1560   -3.7560 c3        1 6IG     -0.049100
     28 C22         1.3530   -0.8120   -7.3880 ca        1 6IG     -0.129000
     29 C23         0.5620   -1.8300   -6.8550 ca        1 6IG     -0.127500
     30 C24        -0.1440   -1.6210   -5.6710 ca        1 6IG     -0.124000
     31 C25        -0.0660   -0.3900   -5.0110 ca        1 6IG     -0.082300
     32 C26         0.7290    0.6290   -5.5510 ca        1 6IG     -0.124000
     33 C27         1.4350    0.4180   -6.7330 ca        1 6IG     -0.127500
     34 HN3        -1.5110   -0.1430   -1.2620 hn        1 6IG      0.427800
     35 HN41        3.9700    0.3020    0.3150 hn        1 6IG      0.422300
     36 HN42        3.9470    0.3670    1.9990 hn        1 6IG      0.422300
     37 H51        -0.1640   -0.5260    4.3230 hc        1 6IG      0.061700
     38 H52        -1.6950   -0.0250    3.4980 hc        1 6IG      0.061700
     39 H61        -1.1090    1.5800    5.2880 hc        1 6IG      0.040367
     40 H62        -0.9770    2.3980    3.6770 hc        1 6IG      0.040367
     41 H63         0.5210    1.8750    4.5510 hc        1 6IG      0.040367
     42 H8         -4.5850   -2.2050    1.7230 ha        1 6IG      0.130000
     43 H11        -2.3460    2.0340    0.3650 ha        1 6IG      0.144000
     44 H131       -6.7080   -1.0490    1.7560 hc        1 6IG      0.048700
     45 H132       -6.6140   -0.9120   -0.0440 hc        1 6IG      0.048700
     46 H141       -8.1710    0.7930    0.6940 hc        1 6IG      0.053200
     47 H142       -7.0740    1.3320    2.0300 hc        1 6IG      0.053200
     48 H151       -6.6500    1.6000   -1.0330 h1        1 6IG      0.038700
     49 H152       -6.9870    2.9320    0.1670 h1        1 6IG      0.038700
     50 H161       -3.8420    2.6220   -1.4220 h1        1 6IG      0.040700
     51 H162       -3.6400    3.6660    0.0610 h1        1 6IG      0.040700
     52 H171       -5.8700    4.7540   -0.4060 hc        1 6IG      0.062700
     53 H172       -6.0670    3.7280   -1.8840 hc        1 6IG      0.062700
     54 H181       -3.8860    4.6480   -2.8010 h1        1 6IG      0.029200
     55 H182       -3.7400    5.7150   -1.3250 h1        1 6IG      0.029200
     56 H191       -5.5240    7.7500   -3.7310 h1        1 6IG      0.033700
     57 H192       -4.0110    7.6970   -2.6880 h1        1 6IG      0.033700
     58 H193       -4.1270    6.6420   -4.1790 h1        1 6IG      0.033700
     59 H201        0.8870    0.7030   -2.7270 h1        1 6IG      0.056200
     60 H202        0.6780   -1.0900   -2.4960 h1        1 6IG      0.056200
     61 H211       -1.3880    0.8160   -3.8380 hc        1 6IG      0.053200
     62 H212       -1.5910   -0.9690   -3.6100 hc        1 6IG      0.053200
     63 H22         1.9100   -0.9770   -8.3210 ha        1 6IG      0.132000
     64 H23         0.4950   -2.8000   -7.3690 ha        1 6IG      0.132000
     65 H24        -0.7660   -2.4280   -5.2560 ha        1 6IG      0.132500
     66 H26         0.7950    1.5990   -5.0350 ha        1 6IG      0.132500
     67 H27         2.0580    1.2220   -7.1510 ha        1 6IG      0.132000
     68 H7         -2.1060   -2.0100    1.8260 ha        1 6IG      0.136000
@<TRIPOS>BOND
     1    1    2 ar  
     2    1    6 ar  
     3    1    7 1   
     4    2    3 ar  
     5    3    4 ar  
     6    3    8 1   
     7    4    5 ar  
     8    5    6 ar  
     9    5    9 1   
    10    6   16 1   
    11    7   26 1   
    12    7   34 1   
    13    8   35 1   
    14    8   36 1   
    15    9   10 1   
    16    9   37 1   
    17    9   38 1   
    18   10   39 1   
    19   10   40 1   
    20   10   41 1   
    21   11   12 ar  
    22   11   16 ar  
    23   11   68 1   
    24   12   13 ar  
    25   12   42 1   
    26   13   14 ar  
    27   13   17 1   
    28   14   15 ar  
    29   14   20 1   
    30   15   16 ar  
    31   15   43 1   
    32   17   18 1   
    33   17   44 1   
    34   17   45 1   
    35   18   19 1   
    36   18   46 1   
    37   18   47 1   
    38   19   20 1   
    39   19   48 1   
    40   19   49 1   
    41   20   21 1   
    42   21   22 1   
    43   21   50 1   
    44   21   51 1   
    45   22   23 1   
    46   22   52 1   
    47   22   53 1   
    48   23   24 1   
    49   23   54 1   
    50   23   55 1   
    51   24   25 1   
    52   25   56 1   
    53   25   57 1   
    54   25   58 1   
    55   26   27 1   
    56   26   59 1   
    57   26   60 1   
    58   27   31 1   
    59   27   61 1   
    60   27   62 1   
    61   28   29 ar  
    62   28   33 ar  
    63   28   63 1   
    64   29   30 ar  
    65   29   64 1   
    66   30   31 ar  
    67   30   65 1   
    68   31   32 ar  
    69   32   33 ar  
    70   32   66 1   
    71   33   67 1   
@<TRIPOS>SUBSTRUCTURE
     1 6IG         1 TEMP              0 ****  ****    0 ROOT
