@<TRIPOS>MOLECULE
6IG
   68    71     1     0     0
SMALL
bcc


@<TRIPOS>ATOM
      1 C1         -0.3240   -2.2710   -0.3050 ca        1 6IG      0.719200
      2 N1         -0.9930   -3.2800   -0.9410 nb        1 6IG     -0.814000
      3 C2         -0.2150   -4.2590   -1.5320 ca        1 6IG      0.895900
      4 N2          1.1700   -4.2740   -1.5680 nb        1 6IG     -0.786000
      5 C3          1.8060   -3.2750   -0.9160 ca        1 6IG      0.522600
      6 C4          1.1170   -2.2460   -0.2400 cp        1 6IG     -0.386600
      7 N3         -1.0470   -1.2060    0.2320 nh        1 6IG     -0.850900
      8 N4         -0.8880   -5.3570   -2.0880 nh        1 6IG     -0.925500
      9 C5          3.3140   -3.2910   -0.9400 c3        1 6IG     -0.139700
     10 C6          3.8500   -2.9970   -2.3200 c3        1 6IG     -0.086100
     11 C7          2.4390   -1.4750    1.7140 ca        1 6IG     -0.161000
     12 C8          3.0710   -0.4540    2.4140 ca        1 6IG     -0.103000
     13 C9          3.0880    0.8560    1.9330 ca        1 6IG     -0.130300
     14 C10         2.4620    1.1630    0.6960 ca        1 6IG      0.158600
     15 C11         1.8100    0.1160    0.0020 ca        1 6IG     -0.178000
     16 C12         1.8030   -1.1900    0.4990 cp        1 6IG      0.007000
     17 C13         3.7520    1.9090    2.7470 c3        1 6IG     -0.030100
     18 C14         4.1770    3.0860    1.9010 c3        1 6IG     -0.083400
     19 C15         3.0410    3.5180    0.9810 c3        1 6IG      0.195800
     20 N5          2.5530    2.4530    0.1280 nh        1 6IG     -0.643000
     21 C16         1.4910    2.8100   -0.7980 c3        1 6IG      0.196800
     22 C17         1.4070    4.2850   -1.1770 c3        1 6IG     -0.093400
     23 C18         0.2980    4.4680   -2.2010 c3        1 6IG      0.128400
     24 O1          0.2370    5.8650   -2.4830 os        1 6IG     -0.422600
     25 C19        -0.7500    6.1810   -3.4490 c3        1 6IG      0.116700
     26 C20        -2.4660   -1.3240    0.4720 c3        1 6IG      0.205800
     27 C21        -3.0400   -0.1040    1.2030 c3        1 6IG     -0.049100
     28 C22        -7.2850   -0.4880    1.6690 ca        1 6IG     -0.129000
     29 C23        -6.4440   -0.6490    2.7700 ca        1 6IG     -0.128000
     30 C24        -5.0630   -0.5300    2.6210 ca        1 6IG     -0.124500
     31 C25        -4.5120   -0.2480    1.3660 ca        1 6IG     -0.081300
     32 C26        -5.3600   -0.0870    0.2640 ca        1 6IG     -0.124500
     33 C27        -6.7400   -0.2080    0.4160 ca        1 6IG     -0.128000
     34 HN3        -0.5390   -0.6570    0.8940 hn        1 6IG      0.426800
     35 HN41       -0.3680   -5.9050   -2.7340 hn        1 6IG      0.422300
     36 HN42       -1.8470   -5.2210   -2.3060 hn        1 6IG      0.422300
     37 H51         3.6780   -4.2990   -0.6020 hc        1 6IG      0.063200
     38 H52         3.7040   -2.5310   -0.2120 hc        1 6IG      0.063200
     39 H61         4.9670   -2.9760   -2.2910 hc        1 6IG      0.039367
     40 H62         3.5290   -3.7790   -3.0480 hc        1 6IG      0.039367
     41 H63         3.4880   -2.0050   -2.6820 hc        1 6IG      0.039367
     42 H8          3.5680   -0.6780    3.3710 ha        1 6IG      0.130000
     43 H11         1.3040    0.3040   -0.9580 ha        1 6IG      0.143000
     44 H131        3.0370    2.2540    3.5430 hc        1 6IG      0.048700
     45 H132        4.6480    1.4810    3.2720 hc        1 6IG      0.048700
     46 H141        4.4550    3.9530    2.5540 hc        1 6IG      0.053700
     47 H142        5.0790    2.8130    1.2920 hc        1 6IG      0.053700
     48 H151        2.2060    3.9450    1.6120 h1        1 6IG      0.038700
     49 H152        3.4210    4.3400    0.3090 h1        1 6IG      0.038700
     50 H161        1.6760    2.2190   -1.7430 h1        1 6IG      0.040200
     51 H162        0.4850    2.4940   -0.3890 h1        1 6IG      0.040200
     52 H171        1.1850    4.9200   -0.2810 hc        1 6IG      0.062700
     53 H172        2.3740    4.6420   -1.6180 hc        1 6IG      0.062700
     54 H181        0.5220    3.9020   -3.1440 h1        1 6IG      0.029200
     55 H182       -0.6900    4.1240   -1.7950 h1        1 6IG      0.029200
     56 H191       -0.5300    5.6720   -4.4200 h1        1 6IG      0.033700
     57 H192       -1.7660    5.8860   -3.0870 h1        1 6IG      0.033700
     58 H193       -0.6820    7.2920   -3.5640 h1        1 6IG      0.033700
     59 H201       -2.9840   -1.4310   -0.5240 h1        1 6IG      0.056700
     60 H202       -2.6990   -2.2500    1.0750 h1        1 6IG      0.056700
     61 H211       -2.5490    0.0060    2.2070 hc        1 6IG      0.052700
     62 H212       -2.8210    0.8290    0.6180 hc        1 6IG      0.052700
     63 H22        -8.3740   -0.5830    1.7880 ha        1 6IG      0.132000
     64 H23        -6.8700   -0.8710    3.7600 ha        1 6IG      0.132000
     65 H24        -4.4050   -0.6580    3.4930 ha        1 6IG      0.132500
     66 H26        -4.9310    0.1330   -0.7250 ha        1 6IG      0.132500
     67 H27        -7.4000   -0.0810   -0.4550 ha        1 6IG      0.132000
     68 H7          2.4370   -2.5010    2.1090 ha        1 6IG      0.138000
@<TRIPOS>BOND
     1    1    2 ar  
     2    1    6 ar  
     3    1    7 1   
     4    2    3 ar  
     5    3    4 ar  
     6    3    8 1   
     7    4    5 ar  
     8    5    6 ar  
     9    5    9 1   
    10    6   16 1   
    11    7   26 1   
    12    7   34 1   
    13    8   35 1   
    14    8   36 1   
    15    9   10 1   
    16    9   37 1   
    17    9   38 1   
    18   10   39 1   
    19   10   40 1   
    20   10   41 1   
    21   11   12 ar  
    22   11   16 ar  
    23   11   68 1   
    24   12   13 ar  
    25   12   42 1   
    26   13   14 ar  
    27   13   17 1   
    28   14   15 ar  
    29   14   20 1   
    30   15   16 ar  
    31   15   43 1   
    32   17   18 1   
    33   17   44 1   
    34   17   45 1   
    35   18   19 1   
    36   18   46 1   
    37   18   47 1   
    38   19   20 1   
    39   19   48 1   
    40   19   49 1   
    41   20   21 1   
    42   21   22 1   
    43   21   50 1   
    44   21   51 1   
    45   22   23 1   
    46   22   52 1   
    47   22   53 1   
    48   23   24 1   
    49   23   54 1   
    50   23   55 1   
    51   24   25 1   
    52   25   56 1   
    53   25   57 1   
    54   25   58 1   
    55   26   27 1   
    56   26   59 1   
    57   26   60 1   
    58   27   31 1   
    59   27   61 1   
    60   27   62 1   
    61   28   29 ar  
    62   28   33 ar  
    63   28   63 1   
    64   29   30 ar  
    65   29   64 1   
    66   30   31 ar  
    67   30   65 1   
    68   31   32 ar  
    69   32   33 ar  
    70   32   66 1   
    71   33   67 1   
@<TRIPOS>SUBSTRUCTURE
     1 6IG         1 TEMP              0 ****  ****    0 ROOT
