@<TRIPOS>MOLECULE
6IN
   52    54     1     0     0
SMALL
bcc


@<TRIPOS>ATOM
      1 C1          1.5580    0.8940   -0.0470 ca        1 6IN      0.093100
      2 C2          2.7900    1.1710    0.5960 ca        1 6IN     -0.138000
      3 C3          2.9740    0.8640    1.9330 ca        1 6IN     -0.118000
      4 C4          1.9130    0.2700    2.6340 ca        1 6IN     -0.069200
      5 C5          0.6540    0.0050    1.9780 ca        1 6IN     -0.048800
      6 C6          0.4860    0.3190    0.6290 ca        1 6IN     -0.167000
      7 N10         1.8000   -0.1280    3.9770 na        1 6IN     -0.067400
      8 C7          0.5220   -0.6920    4.1590 cc        1 6IN     -0.008300
      9 C12        -0.2130   -0.5890    2.9710 cd        1 6IN     -0.165400
     10 C13         2.8800   -0.1970    4.9190 c3        1 6IN      0.090600
     11 C14         3.6450   -1.4910    4.9410 ca        1 6IN     -0.120300
     12 C17         4.3480   -1.9150    3.8090 ca        1 6IN     -0.112500
     13 C18         5.0860   -3.0970    3.8470 ca        1 6IN     -0.129500
     14 C19         5.1260   -3.8600    5.0140 ca        1 6IN     -0.121000
     15 C20         4.4230   -3.4410    6.1440 ca        1 6IN     -0.129500
     16 C21         3.6800   -2.2610    6.1080 ca        1 6IN     -0.112500
     17 C27         0.0610   -1.2780    5.4330 c3        1 6IN     -0.060900
     18 C32        -1.6200   -0.9610    2.7780 c3        1 6IN     -0.071200
     19 C34        -1.7700   -2.4510    2.4980 c         1 6IN      0.661100
     20 N37        -1.6480   -2.8820    1.2040 n         1 6IN     -0.666000
     21 O40        -2.0240   -3.2590    3.4170 o         1 6IN     -0.640100
     22 O41         1.5260    1.2740   -1.3810 os        1 6IN     -0.332900
     23 C42         0.5220    0.6690   -2.1930 c3        1 6IN      0.124400
     24 C43        -0.7400    1.5180   -2.2080 c3        1 6IN     -0.112400
     25 C46        -1.8570    0.8410   -2.9700 c3        1 6IN     -0.126400
     26 C49        -2.4700   -0.2920   -2.2100 c         1 6IN      0.645100
     27 O52        -2.0390   -0.9280   -1.2410 o         1 6IN     -0.579000
     28 O54        -3.6890   -0.6680   -2.6850 oh        1 6IN     -0.604100
     29 H2          3.5970    1.6350    0.0110 ha        1 6IN      0.146000
     30 H3          3.9310    1.0780    2.4290 ha        1 6IN      0.134000
     31 H6         -0.4700    0.0950    0.1320 ha        1 6IN      0.156000
     32 H131        2.4470   -0.0010    5.9440 h1        1 6IN      0.065700
     33 H132        3.6010    0.6370    4.6740 h1        1 6IN      0.065700
     34 H17         4.3070   -1.3150    2.8860 ha        1 6IN      0.136000
     35 H18         5.6350   -3.4290    2.9530 ha        1 6IN      0.134000
     36 H19         5.7090   -4.7920    5.0430 ha        1 6IN      0.133000
     37 H20         4.4500   -4.0430    7.0640 ha        1 6IN      0.134000
     38 H21         3.1210   -1.9390    6.9990 ha        1 6IN      0.136000
     39 H271        0.8760   -1.8580    5.9350 hc        1 6IN      0.063700
     40 H272       -0.7960   -1.9720    5.2250 hc        1 6IN      0.063700
     41 H273       -0.2840   -0.4720    6.1290 hc        1 6IN      0.063700
     42 H321       -2.0610   -0.3590    1.9380 hc        1 6IN      0.070200
     43 H322       -2.2100   -0.7400    3.7090 hc        1 6IN      0.070200
     44 H371       -4.0350   -1.4080   -2.1590 ho        1 6IN      0.449000
     45 H372       -1.4010   -2.2530    0.4800 hn        1 6IN      0.316500
     46 H421        0.9920    0.6460   -3.2140 h1        1 6IN      0.061200
     47 H422        0.2970   -0.3770   -1.8580 h1        1 6IN      0.061200
     48 H431       -1.0620    1.7290   -1.1540 hc        1 6IN      0.068700
     49 H432       -0.5140    2.5050   -2.6900 hc        1 6IN      0.068700
     50 H461       -2.6650    1.5850   -3.2070 hc        1 6IN      0.086200
     51 H462       -1.4780    0.4310   -3.9450 hc        1 6IN      0.086200
     52 H373       -1.6870   -3.8490    1.0050 hn        1 6IN      0.316500
@<TRIPOS>BOND
     1    1    2 ar  
     2    1    6 ar  
     3    1   22 1   
     4    2    3 ar  
     5    2   29 1   
     6    3    4 ar  
     7    3   30 1   
     8    4    5 ar  
     9    4    7 1   
    10    5    6 ar  
    11    5    9 1   
    12    6   31 1   
    13    7    8 1   
    14    7   10 1   
    15    8    9 2   
    16    8   17 1   
    17    9   18 1   
    18   10   11 1   
    19   10   32 1   
    20   10   33 1   
    21   11   12 ar  
    22   11   16 ar  
    23   12   13 ar  
    24   12   34 1   
    25   13   14 ar  
    26   13   35 1   
    27   14   15 ar  
    28   14   36 1   
    29   15   16 ar  
    30   15   37 1   
    31   16   38 1   
    32   17   39 1   
    33   17   40 1   
    34   17   41 1   
    35   18   19 1   
    36   18   42 1   
    37   18   43 1   
    38   19   20 1   
    39   19   21 2   
    40   20   45 1   
    41   20   52 1   
    42   22   23 1   
    43   23   24 1   
    44   23   46 1   
    45   23   47 1   
    46   24   25 1   
    47   24   48 1   
    48   24   49 1   
    49   25   26 1   
    50   25   50 1   
    51   25   51 1   
    52   26   27 2   
    53   26   28 1   
    54   28   44 1   
@<TRIPOS>SUBSTRUCTURE
     1 6IN         1 TEMP              0 ****  ****    0 ROOT
