@<TRIPOS>MOLECULE
6IN
   51    53     1     0     0
SMALL
bcc


@<TRIPOS>ATOM
      1 C1         -0.4340    0.5880   -1.5570 ca        1 6IN      0.136100
      2 C2          0.8890    0.9650   -1.2390 ca        1 6IN     -0.187000
      3 C3          1.2520    1.2650    0.0660 ca        1 6IN     -0.113000
      4 C4          0.2770    1.1790    1.0670 ca        1 6IN     -0.085200
      5 C5         -1.0770    0.7940    0.7450 ca        1 6IN     -0.053800
      6 C6         -1.4280    0.5060   -0.5690 ca        1 6IN     -0.157000
      7 N10         0.3400    1.4670    2.4460 na        1 6IN     -0.072400
      8 C7         -0.9230    1.1740    3.0050 cc        1 6IN     -0.023300
      9 C12        -1.8150    0.8020    1.9940 cd        1 6IN     -0.165400
     10 C13         1.5510    1.6030    3.2000 c3        1 6IN      0.089600
     11 C14         2.1740    0.3250    3.6940 ca        1 6IN     -0.119300
     12 C17         2.5960   -0.6520    2.7860 ca        1 6IN     -0.114000
     13 C18         3.2040   -1.8180    3.2470 ca        1 6IN     -0.131500
     14 C19         3.3950   -2.0140    4.6150 ca        1 6IN     -0.125000
     15 C20         2.9730   -1.0430    5.5220 ca        1 6IN     -0.131500
     16 C21         2.3590    0.1230    5.0640 ca        1 6IN     -0.114000
     17 C27        -1.2060    1.3070    4.4480 c3        1 6IN     -0.050900
     18 C32        -3.2430    0.4980    2.1400 c3        1 6IN     -0.075200
     19 C34        -3.5090   -0.9890    2.3290 c         1 6IN      0.658100
     20 N37        -2.9940   -1.8600    1.4050 n         1 6IN     -0.663000
     21 O40        -4.2120   -1.4050    3.2760 o         1 6IN     -0.644100
     22 O41        -0.8610    0.2720   -2.8250 os        1 6IN     -0.326900
     23 C42         0.1340    0.3160   -3.8640 c3        1 6IN      0.124400
     24 C43        -0.5590   -0.1030   -5.1480 c3        1 6IN     -0.068400
     25 C46         0.4510   -0.2320   -6.2610 c3        1 6IN     -0.200400
     26 C49        -0.2450   -0.4140   -7.6260 c         1 6IN      0.912600
     27 O52         0.2100   -1.3070   -8.3950 o         1 6IN     -0.845300
     28 O54        -1.2120    0.3480   -7.9110 o         1 6IN     -0.845300
     29 H2          1.6490    1.0280   -2.0310 ha        1 6IN      0.146000
     30 H3          2.2820    1.5650    0.3010 ha        1 6IN      0.128000
     31 H6         -2.4560    0.2360   -0.8450 ha        1 6IN      0.151000
     32 H131        2.3040    2.1290    2.5410 h1        1 6IN      0.063200
     33 H132        1.3250    2.2710    4.0820 h1        1 6IN      0.063200
     34 H17         2.4350   -0.4970    1.7060 ha        1 6IN      0.138000
     35 H18         3.5300   -2.5850    2.5290 ha        1 6IN      0.132000
     36 H19         3.8750   -2.9340    4.9770 ha        1 6IN      0.129000
     37 H20         3.1180   -1.1980    6.6010 ha        1 6IN      0.132000
     38 H21         2.0210    0.8820    5.7850 ha        1 6IN      0.138000
     39 H271       -1.2360    2.3870    4.7410 hc        1 6IN      0.054700
     40 H272       -2.1960    0.8430    4.6820 hc        1 6IN      0.054700
     41 H273       -0.4180    0.7960    5.0590 hc        1 6IN      0.054700
     42 H321       -3.6770    1.0320    3.0270 hc        1 6IN      0.075200
     43 H322       -3.8010    0.8400    1.2250 hc        1 6IN      0.075200
     44 H371       -3.1150   -2.8330    1.5270 hn        1 6IN      0.315500
     45 H372       -2.3540   -1.5380    0.7210 hn        1 6IN      0.315500
     46 H421        0.5360    1.3600   -3.9420 h1        1 6IN      0.027700
     47 H422        0.9660   -0.3910   -3.6050 h1        1 6IN      0.027700
     48 H431       -1.0870   -1.0780   -4.9890 hc        1 6IN      0.062700
     49 H432       -1.3360    0.6540   -5.4360 hc        1 6IN      0.062700
     50 H461        1.0770    0.6940   -6.3220 hc        1 6IN      0.020700
     51 H462        1.1310   -1.0990   -6.0740 hc        1 6IN      0.020700
@<TRIPOS>BOND
     1    1    2 ar  
     2    1    6 ar  
     3    1   22 1   
     4    2    3 ar  
     5    2   29 1   
     6    3    4 ar  
     7    3   30 1   
     8    4    5 ar  
     9    4    7 1   
    10    5    6 ar  
    11    5    9 1   
    12    6   31 1   
    13    7    8 1   
    14    7   10 1   
    15    8    9 2   
    16    8   17 1   
    17    9   18 1   
    18   10   11 1   
    19   10   32 1   
    20   10   33 1   
    21   11   12 ar  
    22   11   16 ar  
    23   12   13 ar  
    24   12   34 1   
    25   13   14 ar  
    26   13   35 1   
    27   14   15 ar  
    28   14   36 1   
    29   15   16 ar  
    30   15   37 1   
    31   16   38 1   
    32   17   39 1   
    33   17   40 1   
    34   17   41 1   
    35   18   19 1   
    36   18   42 1   
    37   18   43 1   
    38   19   20 1   
    39   19   21 2   
    40   20   44 1   
    41   20   45 1   
    42   22   23 1   
    43   23   24 1   
    44   23   46 1   
    45   23   47 1   
    46   24   25 1   
    47   24   48 1   
    48   24   49 1   
    49   25   26 1   
    50   25   50 1   
    51   25   51 1   
    52   26   27 1   
    53   26   28 1   
@<TRIPOS>SUBSTRUCTURE
     1 6IN         1 TEMP              0 ****  ****    0 ROOT
