@<TRIPOS>MOLECULE
6IN
   52    54     1     0     0
SMALL
bcc


@<TRIPOS>ATOM
      1 C1          1.5990    0.8630   -0.2200 ca        1 6IN      0.098100
      2 C2          2.8410    1.1060    0.4160 ca        1 6IN     -0.136000
      3 C3          3.0120    0.8260    1.7610 ca        1 6IN     -0.115000
      4 C4          1.9260    0.2960    2.4770 ca        1 6IN     -0.068200
      5 C5          0.6580    0.0640    1.8280 ca        1 6IN     -0.049800
      6 C6          0.5060    0.3470    0.4710 ca        1 6IN     -0.164000
      7 N10         1.7950   -0.0540    3.8320 na        1 6IN     -0.066400
      8 C7          0.4930   -0.5500    4.0310 cc        1 6IN     -0.003300
      9 C12        -0.2360   -0.4580    2.8370 cd        1 6IN     -0.174400
     10 C13         2.8690   -0.1350    4.7800 c3        1 6IN      0.090600
     11 C14         3.5780   -1.4590    4.8490 ca        1 6IN     -0.122300
     12 C17         4.2780   -1.9430    3.7390 ca        1 6IN     -0.112500
     13 C18         4.9650   -3.1540    3.8190 ca        1 6IN     -0.129000
     14 C19         4.9570   -3.8850    5.0070 ca        1 6IN     -0.120000
     15 C20         4.2570   -3.4060    6.1140 ca        1 6IN     -0.129000
     16 C21         3.5650   -2.1980    6.0360 ca        1 6IN     -0.112500
     17 C27         0.0040   -1.0580    5.3280 c3        1 6IN     -0.063900
     18 C32        -1.6600   -0.7610    2.6540 c3        1 6IN     -0.071200
     19 C34        -1.9100   -2.2590    2.5340 c         1 6IN      0.649100
     20 N37        -1.7940   -2.8410    1.2940 nt        1 6IN     -0.663000
     21 O40        -2.2720   -2.9330    3.5220 o         1 6IN     -0.627100
     22 O41         1.5670    1.2190   -1.5610 os        1 6IN     -0.331900
     23 C42         0.5980    0.5520   -2.3680 c3        1 6IN      0.116400
     24 C43        -0.7130    1.3240   -2.3930 c3        1 6IN     -0.112400
     25 C46        -1.8850    0.4400   -2.7670 c3        1 6IN     -0.126400
     26 C49        -2.1620   -0.5810   -1.7080 c         1 6IN      0.638100
     27 O52        -3.1460   -0.2390   -0.8330 oh        1 6IN     -0.604100
     28 O54        -1.6150   -1.6750   -1.5220 o         1 6IN     -0.569000
     29 H2          3.6660    1.5220   -0.1790 ha        1 6IN      0.148000
     30 H3          3.9770    1.0140    2.2520 ha        1 6IN      0.136000
     31 H6         -0.4550    0.1500   -0.0240 ha        1 6IN      0.133000
     32 H131        2.4420    0.1130    5.7960 h1        1 6IN      0.066700
     33 H132        3.6250    0.6600    4.5110 h1        1 6IN      0.066700
     34 H17         4.2760   -1.3670    2.8000 ha        1 6IN      0.136000
     35 H18         5.5110   -3.5320    2.9430 ha        1 6IN      0.134500
     36 H19         5.4990   -4.8400    5.0690 ha        1 6IN      0.134000
     37 H20         4.2460   -3.9830    7.0510 ha        1 6IN      0.134500
     38 H21         3.0090   -1.8280    6.9110 ha        1 6IN      0.136000
     39 H271        0.7760   -1.6920    5.8330 hc        1 6IN      0.065033
     40 H272       -0.9140   -1.6800    5.1550 hc        1 6IN      0.065033
     41 H273       -0.2570   -0.2060    6.0050 hc        1 6IN      0.065033
     42 H321       -2.0510   -0.2280    1.7450 hc        1 6IN      0.069200
     43 H322       -2.2470   -0.4000    3.5430 hc        1 6IN      0.069200
     44 H371       -1.8580   -3.8280    1.2270 hn        1 6IN      0.313000
     45 H372       -3.2810   -0.9550   -0.1880 ho        1 6IN      0.451000
     46 H421        1.0710    0.5460   -3.3880 h1        1 6IN      0.067200
     47 H422        0.4430   -0.5050   -2.0230 h1        1 6IN      0.067200
     48 H431       -0.8930    1.8010   -1.3930 hc        1 6IN      0.069200
     49 H432       -0.6390    2.1560   -3.1420 hc        1 6IN      0.069200
     50 H461       -2.8010    1.0730   -2.9140 hc        1 6IN      0.083200
     51 H462       -1.6700   -0.1070   -3.7240 hc        1 6IN      0.083200
     52 H373       -1.3270   -2.3630    0.5610 hn        1 6IN      0.313000
@<TRIPOS>BOND
     1    1    2 ar  
     2    1    6 ar  
     3    1   22 1   
     4    2    3 ar  
     5    2   29 1   
     6    3    4 ar  
     7    3   30 1   
     8    4    5 ar  
     9    4    7 1   
    10    5    6 ar  
    11    5    9 1   
    12    6   31 1   
    13    7    8 1   
    14    7   10 1   
    15    8    9 2   
    16    8   17 1   
    17    9   18 1   
    18   10   11 1   
    19   10   32 1   
    20   10   33 1   
    21   11   12 ar  
    22   11   16 ar  
    23   12   13 ar  
    24   12   34 1   
    25   13   14 ar  
    26   13   35 1   
    27   14   15 ar  
    28   14   36 1   
    29   15   16 ar  
    30   15   37 1   
    31   16   38 1   
    32   17   39 1   
    33   17   40 1   
    34   17   41 1   
    35   18   19 1   
    36   18   42 1   
    37   18   43 1   
    38   19   20 1   
    39   19   21 2   
    40   20   44 1   
    41   20   52 1   
    42   22   23 1   
    43   23   24 1   
    44   23   46 1   
    45   23   47 1   
    46   24   25 1   
    47   24   48 1   
    48   24   49 1   
    49   25   26 1   
    50   25   50 1   
    51   25   51 1   
    52   26   27 1   
    53   26   28 2   
    54   27   45 1   
@<TRIPOS>SUBSTRUCTURE
     1 6IN         1 TEMP              0 ****  ****    0 ROOT
