@<TRIPOS>MOLECULE
6IN
   51    43     1     0     0
SMALL
bcc


@<TRIPOS>ATOM
      1 C1         -0.3780   -0.4030   -2.1800 c1        1 6IN      0.091000
      2 C2          1.0220   -0.3750   -2.1500 c1        1 6IN     -0.140000
      3 C3          1.7010   -0.3670   -0.9130 c1        1 6IN     -0.140000
      4 C4          0.9710   -0.3880    0.2980 c1        1 6IN     -0.041000
      5 C5         -0.4090   -0.4160    0.2710 c1        1 6IN     -0.041000
      6 C6         -1.1010   -0.4240   -0.9920 c1        1 6IN     -0.157000
      7 N10         1.3810   -0.3850    1.6390 n1        1 6IN     -0.164000
      8 C7          0.2440   -0.4120    2.4380 c1        1 6IN      0.008000
      9 C12        -0.8670   -0.4310    1.6040 c1        1 6IN     -0.173000
     10 C13         2.7800   -0.5500    1.9760 c2        1 6IN      0.023000
     11 C14         3.2640    0.6620    2.6500 c2        1 6IN     -0.112000
     12 C17         3.1480    1.8900    2.0330 c2        1 6IN     -0.107000
     13 C18         3.6550    3.0310    2.6490 c1        1 6IN     -0.127000
     14 C19         4.2900    2.9310    3.9120 c1        1 6IN     -0.140000
     15 C20         4.4060    1.7040    4.5300 c1        1 6IN     -0.140000
     16 C21         3.8990    0.5610    3.9120 c1        1 6IN     -0.121000
     17 C27         0.1420   -0.9330    3.8710 c2        1 6IN     -0.173000
     18 C32        -2.3320   -0.4250    1.8110 c2        1 6IN     -0.108000
     19 C34        -2.7570    0.9180    2.4610 c2        1 6IN      0.302000
     20 N37        -3.9360    0.9780    3.2610 n         1 6IN     -0.422000
     21 O40        -2.0290    1.8880    2.3810 o         1 6IN     -0.405000
     22 O41        -1.0670    0.0200   -3.3390 os        1 6IN     -0.210000
     23 C42        -1.3110   -1.0430   -4.3210 c3        1 6IN     -0.025000
     24 C43        -2.5340   -0.6480   -5.2170 c3        1 6IN     -0.148000
     25 C46        -2.4790   -1.4640   -6.5760 c3        1 6IN     -0.229000
     26 C49        -3.8010   -1.3070   -7.3250 c2        1 6IN      0.331000
     27 O52        -4.0540   -0.3320   -7.8070 o         1 6IN     -0.580000
     28 O54        -4.6520   -2.2240   -7.2900 o         1 6IN     -0.580000
     29 H2          1.6740   -0.4220   -2.9040 ha        1 6IN      0.133000
     30 H3          2.5800   -0.3930   -1.2410 ha        1 6IN      0.133000
     31 H6         -2.1330   -0.2060   -1.2410 ha        1 6IN      0.151000
     32 H131        2.8870   -1.3280    2.5800 ha        1 6IN      0.102500
     33 H132        3.2980   -0.6990    1.1570 ha        1 6IN      0.102500
     34 H17         2.7120    1.9580    1.1680 ha        1 6IN      0.149000
     35 H18         3.6570    3.8550    2.1880 ha        1 6IN      0.137000
     36 H19         4.7230    3.7100    4.2980 ha        1 6IN      0.133000
     37 H20         4.8670    1.6330    5.4450 ha        1 6IN      0.133000
     38 H21         3.9420   -0.3230    4.3780 ha        1 6IN      0.127000
     39 H271       -0.0970   -0.2070    4.4610 ha        1 6IN      0.094000
     40 H272        1.0320   -1.3150    4.1560 ha        1 6IN      0.094000
     41 H273       -0.5190   -1.6030    3.9150 ha        1 6IN      0.094000
     42 H321       -2.7780   -0.5270    0.9580 ha        1 6IN      0.114000
     43 H322       -2.5900   -1.1990    2.4270 ha        1 6IN      0.114000
     44 H371       -4.3040    1.8440    3.5230 hn        1 6IN      0.229000
     45 H372       -4.2900    0.1880    3.6310 hn        1 6IN      0.229000
     46 H421       -1.5050   -1.9040   -3.8450 h1        1 6IN      0.067000
     47 H422       -0.4800   -1.1560   -4.9110 h1        1 6IN      0.067000
     48 H431       -3.3540   -0.8500   -4.7540 hc        1 6IN      0.102000
     49 H432       -2.4930    0.3740   -5.4190 hc        1 6IN      0.102000
     50 H461       -2.3320   -2.3890   -6.3860 hc        1 6IN      0.060500
     51 H462       -1.6940   -1.0980   -7.1700 hc        1 6IN      0.060500
@<TRIPOS>BOND
     1    1    6 1   
     2    1   22 1   
     3    2    3 1   
     4    2   29 1   
     5    3   30 1   
     6    4    5 1   
     7    6   31 1   
     8    7    8 1   
     9    8    9 1   
    10   10   11 1   
    11   10   32 1   
    12   10   33 1   
    13   11   12 1   
    14   11   16 1   
    15   12   13 1   
    16   12   34 1   
    17   13   35 1   
    18   14   15 1   
    19   14   36 1   
    20   15   37 1   
    21   16   38 1   
    22   17   39 1   
    23   17   40 1   
    24   17   41 1   
    25   18   19 1   
    26   18   42 1   
    27   18   43 1   
    28   19   20 1   
    29   19   21 1   
    30   20   44 1   
    31   20   45 1   
    32   22   23 1   
    33   23   24 1   
    34   23   46 1   
    35   23   47 1   
    36   24   25 1   
    37   24   48 1   
    38   24   49 1   
    39   25   26 1   
    40   25   50 1   
    41   25   51 1   
    42   26   27 1   
    43   26   28 1   
@<TRIPOS>SUBSTRUCTURE
     1 6IN         1 TEMP              0 ****  ****    0 ROOT
