@<TRIPOS>MOLECULE
6IP
   33    27     1     0     0
SMALL
bcc


@<TRIPOS>ATOM
      1 N1          1.3250   -3.8190    2.1610 n3        1 6IP     -0.321000
      2 C2          0.1140   -3.0780    2.1800 c2        1 6IP      0.108000
      3 C3         -0.7620   -3.2090    3.2470 c1        1 6IP     -0.236000
      4 C4         -1.9390   -2.5160    3.2520 c1        1 6IP     -0.143000
      5 C5         -2.2510   -1.6950    2.2070 c1        1 6IP     -0.143000
      6 C6         -1.3730   -1.5650    1.1410 c1        1 6IP      0.027000
      7 C7         -1.6990   -0.6240    0.0020 c3        1 6IP     -0.111000
      8 C8         -0.8110    0.5970    0.0870 c3        1 6IP     -0.118000
      9 C9         -1.0780    1.4990   -1.0980 c2        1 6IP     -0.057000
     10 C10        -0.7830    2.7440   -0.5560 c1        1 6IP     -0.157000
     11 C11         0.3720    3.4110   -0.9390 c1        1 6IP     -0.081000
     12 C12         1.2430    2.8270   -1.8750 c1        1 6IP     -0.086000
     13 C13         2.4670    3.2250   -2.3690 c1        1 6IP     -0.199000
     14 C14         2.9290    2.2350   -3.2120 c1        1 6IP     -0.083000
     15 N15         1.9980    1.2330   -3.2380 n2        1 6IP     -0.219000
     16 C16         0.9520    1.5980   -2.4100 c1        1 6IP     -0.001000
     17 C17        -0.2190    0.9220   -2.0220 c2        1 6IP     -0.141000
     18 N18        -0.1980   -2.2580    1.1380 n2        1 6IP     -0.201000
     19 HN11        1.5410   -4.3620    2.8660 hn        1 6IP      0.195500
     20 HN12        1.8800   -3.7690    1.4380 hn        1 6IP      0.195500
     21 H3         -0.5390   -3.7950    3.9920 ha        1 6IP      0.141000
     22 H4         -2.5580   -2.6080    4.0030 ha        1 6IP      0.138500
     23 H5         -3.0900   -1.2000    2.2090 ha        1 6IP      0.138500
     24 H71        -1.5470   -1.0790   -0.8510 hc        1 6IP      0.098000
     25 H72        -2.6360   -0.3500    0.0640 hc        1 6IP      0.098000
     26 H81         0.1260    0.3190    0.0810 hc        1 6IP      0.097500
     27 H82        -1.0010    1.0820    0.9160 hc        1 6IP      0.097500
     28 H10        -1.3690    3.1330    0.1210 ha        1 6IP      0.128000
     29 H11         0.5800    4.2860   -0.5570 ha        1 6IP      0.133000
     30 H13         2.9270    4.0630   -2.1590 DU        1 6IP      0.189000
     31 H14         3.7870    2.2320   -3.6770 DU        1 6IP      0.189000
     32 HN15        2.0570    0.4610   -3.7170 DU        1 6IP      0.189000
     33 H17        -0.4410    0.0620   -2.4220 ha        1 6IP      0.134000
@<TRIPOS>BOND
     1    1    2 1   
     2    1   19 1   
     3    1   20 1   
     4    2    3 1   
     5    2   18 1   
     6    3   21 1   
     7    4    5 1   
     8    4   22 1   
     9    5   23 1   
    10    6    7 1   
    11    6   18 1   
    12    7    8 1   
    13    7   24 1   
    14    7   25 1   
    15    8    9 1   
    16    8   26 1   
    17    8   27 1   
    18    9   10 1   
    19    9   17 1   
    20   10   28 1   
    21   11   12 1   
    22   11   29 1   
    23   13   14 1   
    24   14   15 1   
    25   15   16 1   
    26   16   17 1   
    27   17   33 1   
@<TRIPOS>SUBSTRUCTURE
     1 6IP         1 TEMP              0 ****  ****    0 ROOT
