@<TRIPOS>MOLECULE
6IP
   33    35     1     0     0
SMALL
bcc


@<TRIPOS>ATOM
      1 N1          0.2760   -4.9230    3.2920 nh        1 6IP     -0.922500
      2 C2          0.2880   -4.3760    1.9970 ca        1 6IP      0.629200
      3 C3         -0.0130   -5.2180    0.8840 ca        1 6IP     -0.303300
      4 C4          0.1060   -4.6940   -0.3980 ca        1 6IP     -0.061000
      5 C5          0.5010   -3.3700   -0.5690 ca        1 6IP     -0.297300
      6 C6          0.7650   -2.5880    0.5780 ca        1 6IP      0.456600
      7 C7          1.1930   -1.1580    0.3820 c3        1 6IP     -0.130700
      8 C8          0.0910   -0.3030   -0.2210 c3        1 6IP     -0.031100
      9 C9         -0.9440    0.1100    0.7670 ca        1 6IP     -0.057300
     10 C10        -0.5870    0.9960    1.8090 ca        1 6IP     -0.151000
     11 C11        -1.5110    1.4330    2.7420 ca        1 6IP     -0.080000
     12 C12        -2.8310    0.9890    2.6490 ca        1 6IP     -0.096800
     13 C13        -4.0330    1.2250    3.4150 cc        1 6IP     -0.187200
     14 C14        -5.0520    0.4870    2.8180 cd        1 6IP     -0.112100
     15 N15        -4.5570   -0.2040    1.7080 na        1 6IP     -0.197400
     16 C16        -3.1960    0.0840    1.5820 ca        1 6IP     -0.045200
     17 C17        -2.2490   -0.3530    0.6420 ca        1 6IP     -0.140000
     18 N18         0.6620   -3.0650    1.8350 nb        1 6IP     -0.716000
     19 HN11       -0.4140   -5.6290    3.4150 hn        1 6IP      0.400300
     20 HN12        0.3120   -4.2640    4.0390 hn        1 6IP      0.400300
     21 H3         -0.3190   -6.2600    1.0380 ha        1 6IP      0.140000
     22 H4         -0.1100   -5.3270   -1.2720 ha        1 6IP      0.133000
     23 H5          0.6090   -2.9340   -1.5690 ha        1 6IP      0.140000
     24 H71         1.5320   -0.7010    1.3500 hc        1 6IP      0.062700
     25 H72         2.0730   -1.1650   -0.3170 hc        1 6IP      0.062700
     26 H81        -0.3870   -0.8560   -1.0740 hc        1 6IP      0.048700
     27 H82         0.5640    0.6250   -0.6480 hc        1 6IP      0.048700
     28 H10         0.4570    1.3390    1.8730 ha        1 6IP      0.128000
     29 H11        -1.2170    2.1210    3.5480 ha        1 6IP      0.133000
     30 H13        -4.1160    1.8600    4.2910 ha        1 6IP      0.155000
     31 H14        -6.1030    0.4010    3.0990 h4        1 6IP      0.162000
     32 HN15       -5.0710   -0.8030    1.1220 hn        1 6IP      0.296700
     33 H17        -2.5310   -1.0420   -0.1650 ha        1 6IP      0.131000
@<TRIPOS>BOND
     1    1    2 1   
     2    1   19 1   
     3    1   20 1   
     4    2    3 ar  
     5    2   18 ar  
     6    3    4 ar  
     7    3   21 1   
     8    4    5 ar  
     9    4   22 1   
    10    5    6 ar  
    11    5   23 1   
    12    6    7 1   
    13    6   18 ar  
    14    7    8 1   
    15    7   24 1   
    16    7   25 1   
    17    8    9 1   
    18    8   26 1   
    19    8   27 1   
    20    9   10 ar  
    21    9   17 ar  
    22   10   11 ar  
    23   10   28 1   
    24   11   12 ar  
    25   11   29 1   
    26   12   13 1   
    27   12   16 ar  
    28   13   14 2   
    29   13   30 1   
    30   14   15 1   
    31   14   31 1   
    32   15   16 1   
    33   15   32 1   
    34   16   17 ar  
    35   17   33 1   
@<TRIPOS>SUBSTRUCTURE
     1 6IP         1 TEMP              0 ****  ****    0 ROOT
