@<TRIPOS>MOLECULE
6IP
   34    36     1     0     0
SMALL
bcc


@<TRIPOS>ATOM
      1 N1         -0.0200   -0.1910   -0.3160 n4        1 6IP     -0.817300
      2 C2          1.4390    0.0090   -0.1640 ca        1 6IP      0.444200
      3 C3          1.9830    0.2580    1.1090 ca        1 6IP     -0.207300
      4 C4          3.3750    0.4110    1.1820 ca        1 6IP     -0.069000
      5 C5          4.1430    0.2950    0.0290 ca        1 6IP     -0.189300
      6 C6          3.5030    0.0370   -1.2140 ca        1 6IP      0.467600
      7 C7          4.3310   -0.1370   -2.4570 c3        1 6IP     -0.138700
      8 C8          4.5140   -1.6060   -2.8100 c3        1 6IP     -0.034100
      9 C9          3.2250   -2.3170   -3.0390 ca        1 6IP     -0.073300
     10 C10         2.4010   -1.9270   -4.1160 ca        1 6IP     -0.143000
     11 C11         1.1850   -2.5470   -4.3640 ca        1 6IP     -0.086000
     12 C12         0.7750   -3.5860   -3.5300 ca        1 6IP     -0.101800
     13 C13        -0.3860   -4.4500   -3.4900 cc        1 6IP     -0.187200
     14 C14        -0.2040   -5.3310   -2.4320 cd        1 6IP     -0.106100
     15 N15         0.9840   -5.0330   -1.7420 na        1 6IP     -0.195400
     16 C16         1.6310   -4.0010   -2.4400 ca        1 6IP     -0.068200
     17 C17         2.8550   -3.3640   -2.1980 ca        1 6IP     -0.145000
     18 N18         2.1630   -0.0830   -1.3130 nb        1 6IP     -0.642000
     19 HN11       -0.1990   -1.1000   -0.7670 hn        1 6IP      0.471467
     20 HN12       -0.4140    0.5520   -0.9060 hn        1 6IP      0.471467
     21 H3          1.3670    0.3330    2.0180 ha        1 6IP      0.167000
     22 H4          3.8490    0.6150    2.1570 ha        1 6IP      0.179000
     23 H5          5.2390    0.4000    0.0660 ha        1 6IP      0.182000
     24 H71         5.3380    0.3310   -2.2870 hc        1 6IP      0.079200
     25 H72         3.8480    0.3970   -3.3210 hc        1 6IP      0.079200
     26 H81         5.0980   -2.1130   -1.9960 hc        1 6IP      0.066200
     27 H82         5.1350   -1.6600   -3.7470 hc        1 6IP      0.066200
     28 H10         2.7410   -1.1150   -4.7770 ha        1 6IP      0.136000
     29 H11         0.5580   -2.2390   -5.2130 ha        1 6IP      0.145000
     30 H13        -1.2250   -4.4190   -4.1790 ha        1 6IP      0.167000
     31 H14        -0.8470   -6.1460   -2.0890 h4        1 6IP      0.177000
     32 HN15        1.4660   -5.6880   -1.1800 hn        1 6IP      0.297700
     33 H17         3.5110   -3.6950   -1.3820 ha        1 6IP      0.135000
     34 H131       -0.4620   -0.1700    0.6070 hn        1 6IP      0.471467
@<TRIPOS>BOND
     1    1    2 1   
     2    1   19 1   
     3    1   20 1   
     4    1   34 1   
     5    2    3 ar  
     6    2   18 ar  
     7    3    4 ar  
     8    3   21 1   
     9    4    5 ar  
    10    4   22 1   
    11    5    6 ar  
    12    5   23 1   
    13    6    7 1   
    14    6   18 ar  
    15    7    8 1   
    16    7   24 1   
    17    7   25 1   
    18    8    9 1   
    19    8   26 1   
    20    8   27 1   
    21    9   10 ar  
    22    9   17 ar  
    23   10   11 ar  
    24   10   28 1   
    25   11   12 ar  
    26   11   29 1   
    27   12   13 1   
    28   12   16 ar  
    29   13   14 2   
    30   13   30 1   
    31   14   15 1   
    32   14   31 1   
    33   15   16 1   
    34   15   32 1   
    35   16   17 ar  
    36   17   33 1   
@<TRIPOS>SUBSTRUCTURE
     1 6IP         1 TEMP              0 ****  ****    0 ROOT
