@<TRIPOS>MOLECULE
6IP
   33    35     1     0     0
SMALL
bcc


@<TRIPOS>ATOM
      1 N1          0.1040    1.1360    0.3350 nv        1 6IP     -0.922500
      2 C2          1.4230    0.6620    0.2290 ca        1 6IP      0.629200
      3 C3          2.1850    0.4550    1.4190 ca        1 6IP     -0.303300
      4 C4          3.5200    0.0890    1.2990 ca        1 6IP     -0.061000
      5 C5          4.0790   -0.0780    0.0340 ca        1 6IP     -0.297300
      6 C6          3.2620    0.1250   -1.1000 ca        1 6IP      0.456600
      7 C7          3.8760   -0.0570   -2.4620 c3        1 6IP     -0.130700
      8 C8          4.2730   -1.4990   -2.7290 c3        1 6IP     -0.031100
      9 C9          3.1220   -2.3700   -3.1000 ca        1 6IP     -0.057300
     10 C10         2.4550   -2.1440   -4.3250 ca        1 6IP     -0.151000
     11 C11         1.3950   -2.9350   -4.7340 ca        1 6IP     -0.080000
     12 C12         0.9770   -3.9850   -3.9140 ca        1 6IP     -0.096800
     13 C13        -0.0570   -4.9890   -4.0080 cc        1 6IP     -0.187200
     14 C14         0.0240   -5.7700   -2.8580 cd        1 6IP     -0.112100
     15 N15         1.0600   -5.3120   -2.0380 na        1 6IP     -0.197400
     16 C16         1.6620   -4.2160   -2.6610 ca        1 6IP     -0.045200
     17 C17         2.7350   -3.4060   -2.2580 ca        1 6IP     -0.140000
     18 N18         1.9640    0.4820   -1.0190 nb        1 6IP     -0.716000
     19 HN11       -0.4400    1.0900   -0.5000 hn        1 6IP      0.400300
     20 HN12       -0.3730    0.7990    1.1410 hn        1 6IP      0.400300
     21 H3          1.7280    0.5960    2.4070 ha        1 6IP      0.140000
     22 H4          4.1310   -0.0650    2.2010 ha        1 6IP      0.133000
     23 H5          5.1320   -0.3600   -0.0880 ha        1 6IP      0.140000
     24 H71         3.1800    0.2930   -3.2710 hc        1 6IP      0.062700
     25 H72         4.7960    0.5870   -2.5030 hc        1 6IP      0.062700
     26 H81         5.0110   -1.5070   -3.5780 hc        1 6IP      0.048700
     27 H82         4.7980   -1.9160   -1.8280 hc        1 6IP      0.048700
     28 H10         2.7930   -1.3130   -4.9630 ha        1 6IP      0.128000
     29 H11         0.8850   -2.7450   -5.6890 ha        1 6IP      0.133000
     30 H13        -0.7600   -5.1050   -4.8260 ha        1 6IP      0.155000
     31 H14        -0.5820   -6.6260   -2.5560 h4        1 6IP      0.162000
     32 HN15        1.3170   -5.6860   -1.1660 hn        1 6IP      0.296700
     33 H17         3.2490   -3.5850   -1.3050 ha        1 6IP      0.131000
@<TRIPOS>BOND
     1    1    2 1   
     2    1   19 1   
     3    1   20 1   
     4    2    3 ar  
     5    2   18 ar  
     6    3    4 ar  
     7    3   21 1   
     8    4    5 ar  
     9    4   22 1   
    10    5    6 ar  
    11    5   23 1   
    12    6    7 1   
    13    6   18 ar  
    14    7    8 1   
    15    7   24 1   
    16    7   25 1   
    17    8    9 1   
    18    8   26 1   
    19    8   27 1   
    20    9   10 ar  
    21    9   17 ar  
    22   10   11 ar  
    23   10   28 1   
    24   11   12 ar  
    25   11   29 1   
    26   12   13 1   
    27   12   16 ar  
    28   13   14 2   
    29   13   30 1   
    30   14   15 1   
    31   14   31 1   
    32   15   16 1   
    33   15   32 1   
    34   16   17 ar  
    35   17   33 1   
@<TRIPOS>SUBSTRUCTURE
     1 6IP         1 TEMP              0 ****  ****    0 ROOT
