@<TRIPOS>MOLECULE
6IP
   33    35     1     0     0
SMALL
bcc


@<TRIPOS>ATOM
      1 N1          0.1030    1.1360    0.3320 nh        1 6IP     -0.922500
      2 C2          1.4210    0.6610    0.2300 ca        1 6IP      0.629200
      3 C3          2.1800    0.4520    1.4210 ca        1 6IP     -0.303300
      4 C4          3.5150    0.0850    1.3040 ca        1 6IP     -0.061000
      5 C5          4.0770   -0.0820    0.0410 ca        1 6IP     -0.297300
      6 C6          3.2630    0.1230   -1.0950 ca        1 6IP      0.456600
      7 C7          3.8810   -0.0590   -2.4560 c3        1 6IP     -0.130700
      8 C8          4.2760   -1.5020   -2.7230 c3        1 6IP     -0.031100
      9 C9          3.1250   -2.3700   -3.0980 ca        1 6IP     -0.057300
     10 C10         2.4620   -2.1420   -4.3250 ca        1 6IP     -0.151000
     11 C11         1.4010   -2.9310   -4.7380 ca        1 6IP     -0.080000
     12 C12         0.9790   -3.9810   -3.9200 ca        1 6IP     -0.096800
     13 C13        -0.0570   -4.9830   -4.0180 cc        1 6IP     -0.187200
     14 C14         0.0190   -5.7650   -2.8680 cd        1 6IP     -0.112100
     15 N15         1.0540   -5.3100   -2.0450 na        1 6IP     -0.197400
     16 C16         1.6590   -4.2140   -2.6650 ca        1 6IP     -0.045200
     17 C17         2.7320   -3.4060   -2.2580 ca        1 6IP     -0.140000
     18 N18         1.9650    0.4810   -1.0170 nb        1 6IP     -0.716000
     19 HN11       -0.3760    0.8000    1.1370 hn        1 6IP      0.400300
     20 HN12       -0.4390    1.0910   -0.5040 hn        1 6IP      0.400300
     21 H3          1.7210    0.5940    2.4080 ha        1 6IP      0.140000
     22 H4          4.1230   -0.0700    2.2080 ha        1 6IP      0.133000
     23 H5          5.1300   -0.3650   -0.0790 ha        1 6IP      0.140000
     24 H71         4.8020    0.5830   -2.4940 hc        1 6IP      0.062700
     25 H72         3.1880    0.2930   -3.2660 hc        1 6IP      0.062700
     26 H81         5.0170   -1.5100   -3.5690 hc        1 6IP      0.048700
     27 H82         4.7980   -1.9200   -1.8200 hc        1 6IP      0.048700
     28 H10         2.8030   -1.3110   -4.9610 ha        1 6IP      0.128000
     29 H11         0.8950   -2.7390   -5.6940 ha        1 6IP      0.133000
     30 H13        -0.7580   -5.0970   -4.8380 ha        1 6IP      0.155000
     31 H14        -0.5880   -6.6200   -2.5690 h4        1 6IP      0.162000
     32 HN15        1.3080   -5.6850   -1.1720 hn        1 6IP      0.296700
     33 H17         3.2440   -3.5870   -1.3030 ha        1 6IP      0.131000
@<TRIPOS>BOND
     1    1    2 1   
     2    1   19 1   
     3    1   20 1   
     4    2    3 ar  
     5    2   18 ar  
     6    3    4 ar  
     7    3   21 1   
     8    4    5 ar  
     9    4   22 1   
    10    5    6 ar  
    11    5   23 1   
    12    6    7 1   
    13    6   18 ar  
    14    7    8 1   
    15    7   24 1   
    16    7   25 1   
    17    8    9 1   
    18    8   26 1   
    19    8   27 1   
    20    9   10 ar  
    21    9   17 ar  
    22   10   11 ar  
    23   10   28 1   
    24   11   12 ar  
    25   11   29 1   
    26   12   13 1   
    27   12   16 ar  
    28   13   14 2   
    29   13   30 1   
    30   14   15 1   
    31   14   31 1   
    32   15   16 1   
    33   15   32 1   
    34   16   17 ar  
    35   17   33 1   
@<TRIPOS>SUBSTRUCTURE
     1 6IP         1 TEMP              0 ****  ****    0 ROOT
