@<TRIPOS>MOLECULE
6J0
   44    46     1     0     0
SMALL
bcc


@<TRIPOS>ATOM
      1 N01        -0.1440    0.5660    0.9780 nc        1 6J0     -0.643000
      2 C02         1.1630    0.7350    0.7770 cd        1 6J0      0.441400
      3 N03         1.9170   -0.2540    1.4740 na        1 6J0     -0.272700
      4 C04         0.9760   -1.0740    2.1430 cd        1 6J0     -0.208600
      5 C05        -0.2780   -0.5520    1.8240 cc        1 6J0      0.310200
      6 C1'        13.1810   -0.0440   -1.8190 ca        1 6J0     -0.101300
      7 N11         3.8520   -1.4410    2.2400 nb        1 6J0     -0.719000
      8 C12         3.3130   -0.3910    1.4980 ca        1 6J0      0.811500
      9 N13         4.0490    0.5350    0.7850 nb        1 6J0     -0.775000
     10 C14         5.4100    0.3840    0.8020 ca        1 6J0      0.696200
     11 C15         6.0350   -0.6600    1.5380 ca        1 6J0     -0.464600
     12 C16         5.1850   -1.5360    2.2360 ca        1 6J0      0.496200
     13 N17         6.1600    1.2750    0.0120 nu        1 6J0     -0.868900
     14 C18         7.5100    1.5810    0.3590 c3        1 6J0      0.207800
     15 C19         8.4950    0.7800   -0.5420 c3        1 6J0      0.064800
     16 C2'        13.2800    0.3560   -3.1540 ca        1 6J0     -0.168000
     17 N20         9.9150    1.1420   -0.2750 ny        1 6J0     -0.760000
     18 C21        10.8580    0.3680   -1.1410 c3        1 6J0      0.101800
     19 C22        12.3200    0.7320   -0.8830 c3        1 6J0     -0.051100
     20 C3'        14.1090   -0.3640   -4.0330 ca        1 6J0      0.146900
     21 C4'        14.8380   -1.4780   -3.5700 ca        1 6J0     -0.135000
     22 C5'        14.7290   -1.8570   -2.2370 ca        1 6J0     -0.091000
     23 C6'        13.9050   -1.1480   -1.3600 ca        1 6J0     -0.129000
     24 F7'        14.2040    0.0190   -5.3260 f         1 6J0     -0.119900
     25 H02         1.6370    1.5130    0.1660 h5        1 6J0      0.080100
     26 H04         1.2750   -1.9210    2.7600 h4        1 6J0      0.204000
     27 H05        -1.2620   -0.8990    2.1410 h4        1 6J0      0.059100
     28 H15         7.1180   -0.8020    1.5620 ha        1 6J0      0.134000
     29 H16         5.6010   -2.3740    2.8300 h4        1 6J0      0.044100
     30 HN17        5.6520    2.0070   -0.4420 hn        1 6J0      0.456800
     31 H18         7.6960    2.6840    0.2030 h1        1 6J0      0.065700
     32 H18A        7.7280    1.3350    1.4390 h1        1 6J0      0.065700
     33 H19         8.2800    0.9850   -1.6300 hx        1 6J0      0.117700
     34 H19A        8.3710   -0.3250   -0.3550 hx        1 6J0      0.117700
     35 H2'        12.7330    1.2350   -3.5270 ha        1 6J0      0.145000
     36 HN20       10.0500    2.1460   -0.4430 hn        1 6J0      0.448300
     37 H21        10.6920   -0.7290   -0.9400 hx        1 6J0      0.113700
     38 H21A       10.5960    0.5800   -2.2180 hx        1 6J0      0.113700
     39 H22        12.4850    1.8320   -1.0490 hc        1 6J0      0.072700
     40 H22A       12.5990    0.4990    0.1800 hc        1 6J0      0.072700
     41 H4'        15.4870   -2.0310   -4.2670 ha        1 6J0      0.171000
     42 H5'        15.3020   -2.7230   -1.8680 ha        1 6J0      0.159000
     43 H6'        13.8400   -1.4570   -0.3060 ha        1 6J0      0.140000
     44 H202       10.1360    0.9600    0.7110 hn        1 6J0      0.448300
@<TRIPOS>BOND
     1    1    2 2   
     2    1    5 1   
     3    2    3 1   
     4    2   25 1   
     5    3    4 1   
     6    3    8 1   
     7    4    5 2   
     8    4   26 1   
     9    5   27 1   
    10    6   16 ar  
    11    6   19 1   
    12    6   23 ar  
    13    7    8 ar  
    14    7   12 ar  
    15    8    9 ar  
    16    9   10 ar  
    17   10   11 ar  
    18   10   13 1   
    19   11   12 ar  
    20   11   28 1   
    21   12   29 1   
    22   13   14 1   
    23   13   30 1   
    24   14   15 1   
    25   14   31 1   
    26   14   32 1   
    27   15   17 1   
    28   15   33 1   
    29   15   34 1   
    30   16   20 ar  
    31   16   35 1   
    32   17   18 1   
    33   17   36 1   
    34   17   44 1   
    35   18   19 1   
    36   18   37 1   
    37   18   38 1   
    38   19   39 1   
    39   19   40 1   
    40   20   21 ar  
    41   20   24 1   
    42   21   22 ar  
    43   21   41 1   
    44   22   23 ar  
    45   22   42 1   
    46   23   43 1   
@<TRIPOS>SUBSTRUCTURE
     1 6J0         1 TEMP              0 ****  ****    0 ROOT
