@<TRIPOS>MOLECULE
6J0
   44    46     1     0     0
SMALL
bcc


@<TRIPOS>ATOM
      1 N01        -0.1360    0.6230    1.0120 nc        1 6J0     -0.643000
      2 C02         1.1730    0.7820    0.8110 cd        1 6J0      0.441400
      3 N03         1.9170   -0.2320    1.4820 na        1 6J0     -0.272700
      4 C04         0.9680   -1.0580    2.1320 cd        1 6J0     -0.208600
      5 C05        -0.2800   -0.5140    1.8300 cc        1 6J0      0.310200
      6 C1'        13.1780   -0.0550   -1.8310 ca        1 6J0     -0.101300
      7 N11         3.8400   -1.4590    2.2130 nb        1 6J0     -0.719000
      8 C12         3.3120   -0.3860    1.4990 ca        1 6J0      0.810500
      9 N13         4.0560    0.5500    0.8070 nb        1 6J0     -0.775000
     10 C14         5.4150    0.3820    0.8170 ca        1 6J0      0.696200
     11 C15         6.0300   -0.6860    1.5250 ca        1 6J0     -0.464600
     12 C16         5.1720   -1.5700    2.2040 ca        1 6J0      0.496200
     13 N17         6.1740    1.2840    0.0470 nh        1 6J0     -0.868900
     14 C18         7.5270    1.5680    0.4000 c3        1 6J0      0.207800
     15 C19         8.5030    0.7800   -0.5230 c3        1 6J0      0.064800
     16 C2'        13.2800    0.3810   -3.1550 ca        1 6J0     -0.168000
     17 N20         9.9270    1.1210   -0.2490 n4        1 6J0     -0.760000
     18 C21        10.8610    0.3610   -1.1370 c3        1 6J0      0.101800
     19 C22        12.3270    0.7040   -0.8730 c3        1 6J0     -0.051100
     20 C3'        14.1000   -0.3240   -4.0540 ca        1 6J0      0.146900
     21 C4'        14.8180   -1.4580   -3.6240 ca        1 6J0     -0.135000
     22 C5'        14.7060   -1.8720   -2.3010 ca        1 6J0     -0.091000
     23 C6'        13.8900   -1.1790   -1.4040 ca        1 6J0     -0.129000
     24 F7'        14.1980    0.0940   -5.3360 f         1 6J0     -0.119900
     25 H02         1.6540    1.5690    0.2180 h5        1 6J0      0.080100
     26 H04         1.2590   -1.9230    2.7280 h4        1 6J0      0.204000
     27 H05        -1.2680   -0.8580    2.1400 h4        1 6J0      0.059100
     28 H15         7.1120   -0.8420    1.5430 ha        1 6J0      0.134000
     29 H16         5.5800   -2.4260    2.7760 h4        1 6J0      0.044100
     30 HN17        5.6730    2.0320   -0.3880 hn        1 6J0      0.456800
     31 H18         7.7240    2.6720    0.2720 h1        1 6J0      0.065700
     32 H18A        7.7440    1.2920    1.4730 h1        1 6J0      0.065700
     33 H19         8.2880    1.0140   -1.6050 hx        1 6J0      0.117700
     34 H19A        8.3680   -0.3290   -0.3640 hx        1 6J0      0.117700
     35 H2'        12.7430    1.2750   -3.5020 ha        1 6J0      0.145000
     36 HN20       10.0710    2.1280   -0.3920 hn        1 6J0      0.448300
     37 H21        10.5990    0.6040   -2.2080 hx        1 6J0      0.113700
     38 H21A       10.6850   -0.7390   -0.9660 hx        1 6J0      0.113700
     39 H22        12.6050    0.4400    0.1830 hc        1 6J0      0.072700
     40 H22A       12.5020    1.8060   -1.0100 hc        1 6J0      0.072700
     41 H4'        15.4600   -1.9980   -4.3360 ha        1 6J0      0.171000
     42 H5'        15.2700   -2.7540   -1.9570 ha        1 6J0      0.159000
     43 H6'        13.8230   -1.5170   -0.3590 ha        1 6J0      0.140000
     44 H202       10.1480    0.9110    0.7310 hn        1 6J0      0.448300
@<TRIPOS>BOND
     1    1    2 2   
     2    1    5 1   
     3    2    3 1   
     4    2   25 1   
     5    3    4 1   
     6    3    8 1   
     7    4    5 2   
     8    4   26 1   
     9    5   27 1   
    10    6   16 ar  
    11    6   19 1   
    12    6   23 ar  
    13    7    8 ar  
    14    7   12 ar  
    15    8    9 ar  
    16    9   10 ar  
    17   10   11 ar  
    18   10   13 1   
    19   11   12 ar  
    20   11   28 1   
    21   12   29 1   
    22   13   14 1   
    23   13   30 1   
    24   14   15 1   
    25   14   31 1   
    26   14   32 1   
    27   15   17 1   
    28   15   33 1   
    29   15   34 1   
    30   16   20 ar  
    31   16   35 1   
    32   17   18 1   
    33   17   36 1   
    34   17   44 1   
    35   18   19 1   
    36   18   37 1   
    37   18   38 1   
    38   19   39 1   
    39   19   40 1   
    40   20   21 ar  
    41   20   24 1   
    42   21   22 ar  
    43   21   41 1   
    44   22   23 ar  
    45   22   42 1   
    46   23   43 1   
@<TRIPOS>SUBSTRUCTURE
     1 6J0         1 TEMP              0 ****  ****    0 ROOT
