@<TRIPOS>MOLECULE
6JZ
   43    42     1     0     0
SMALL
bcc


@<TRIPOS>ATOM
      1 C1         -0.8660    2.0190    0.5550 c3        1 6JZ     -0.097100
      2 C2         -0.2870    0.6530    0.2690 c3        1 6JZ      0.131400
      3 O1          1.0250    0.6340    0.8270 os        1 6JZ     -0.428600
      4 C3          1.6890   -0.6080    0.6040 c3        1 6JZ      0.126400
      5 C4          3.0000   -0.5430    1.3800 c3        1 6JZ      0.127400
      6 O2          2.8880   -1.4890    2.4420 os        1 6JZ     -0.429600
      7 C5          3.9860   -1.4150    3.3490 c3        1 6JZ      0.127400
      8 C6          3.8300   -2.5840    4.3150 c3        1 6JZ      0.127400
      9 O3          4.8370   -3.5330    3.9690 os        1 6JZ     -0.429600
     10 C7          4.7020   -4.7530    4.6940 c3        1 6JZ      0.127400
     11 C8          5.9300   -5.5940    4.3610 c3        1 6JZ      0.127400
     12 O4          6.7550   -5.5850    5.5240 os        1 6JZ     -0.429600
     13 C9          8.0190   -6.2040    5.2940 c3        1 6JZ      0.127400
     14 C10         8.7130   -6.2870    6.6500 c3        1 6JZ      0.126400
     15 O5          8.7800   -7.6710    6.9850 os        1 6JZ     -0.428600
     16 C11         9.2830   -7.8850    8.3030 c3        1 6JZ      0.131400
     17 C12         9.3230   -9.3790    8.5200 c3        1 6JZ     -0.097100
     18 H1         -1.8980    2.0790    0.1370 hc        1 6JZ      0.045033
     19 H1A        -0.9040    2.2020    1.6560 hc        1 6JZ      0.045033
     20 H1B        -0.2350    2.8140    0.0900 hc        1 6JZ      0.045033
     21 H2         -0.9070   -0.1550    0.7410 h1        1 6JZ      0.024700
     22 H2A        -0.2260    0.4640   -0.8370 h1        1 6JZ      0.024700
     23 H3          1.0540   -1.4600    0.9660 h1        1 6JZ      0.041700
     24 H3A         1.8880   -0.7290   -0.4940 h1        1 6JZ      0.041700
     25 H4          3.1680    0.4870    1.7940 h1        1 6JZ      0.043200
     26 H4A         3.8620   -0.8300    0.7220 h1        1 6JZ      0.043200
     27 H5          4.9570   -1.4850    2.7910 h1        1 6JZ      0.043200
     28 H5A         3.9390   -0.4400    3.9040 h1        1 6JZ      0.043200
     29 H6          3.9930   -2.2440    5.3720 h1        1 6JZ      0.043700
     30 H6A         2.8120   -3.0470    4.2200 h1        1 6JZ      0.043700
     31 H7          3.7670   -5.2770    4.3620 h1        1 6JZ      0.043700
     32 H7A         4.6480   -4.5460    5.7960 h1        1 6JZ      0.043700
     33 H8          5.6300   -6.6500    4.1300 h1        1 6JZ      0.043200
     34 H8A         6.4850   -5.1600    3.4870 h1        1 6JZ      0.043200
     35 H9          7.8770   -7.2280    4.8560 h1        1 6JZ      0.043200
     36 H9A         8.6150   -5.5710    4.5850 h1        1 6JZ      0.043200
     37 H10         8.1320   -5.7260    7.4290 h1        1 6JZ      0.041700
     38 H10A        9.7530   -5.8720    6.5850 h1        1 6JZ      0.041700
     39 H11        10.3100   -7.4360    8.3880 h1        1 6JZ      0.024700
     40 H11A        8.6070   -7.3850    9.0470 h1        1 6JZ      0.024700
     41 H12         9.9890   -9.8650    7.7680 hc        1 6JZ      0.045033
     42 H12A        9.7090   -9.5930    9.5450 hc        1 6JZ      0.045033
     43 H12B        8.3000   -9.8140    8.4150 hc        1 6JZ      0.045033
@<TRIPOS>BOND
     1    1    2 1   
     2    1   18 1   
     3    1   19 1   
     4    1   20 1   
     5    2    3 1   
     6    2   21 1   
     7    2   22 1   
     8    3    4 1   
     9    4    5 1   
    10    4   23 1   
    11    4   24 1   
    12    5    6 1   
    13    5   25 1   
    14    5   26 1   
    15    6    7 1   
    16    7    8 1   
    17    7   27 1   
    18    7   28 1   
    19    8    9 1   
    20    8   29 1   
    21    8   30 1   
    22    9   10 1   
    23   10   11 1   
    24   10   31 1   
    25   10   32 1   
    26   11   12 1   
    27   11   33 1   
    28   11   34 1   
    29   12   13 1   
    30   13   14 1   
    31   13   35 1   
    32   13   36 1   
    33   14   15 1   
    34   14   37 1   
    35   14   38 1   
    36   15   16 1   
    37   16   17 1   
    38   16   39 1   
    39   16   40 1   
    40   17   41 1   
    41   17   42 1   
    42   17   43 1   
@<TRIPOS>SUBSTRUCTURE
     1 6JZ         1 TEMP              0 ****  ****    0 ROOT
