@<TRIPOS>MOLECULE
6JZ
   43    42     1     0     0
SMALL
bcc


@<TRIPOS>ATOM
      1 C1         -8.6120    0.0530    0.7090 c3        1 6JZ     -0.097100
      2 C2         -7.5090   -0.9070    0.3300 c3        1 6JZ      0.131400
      3 O1         -6.4600   -0.1280   -0.2410 os        1 6JZ     -0.428600
      4 C3         -5.3580   -0.9290   -0.6610 c3        1 6JZ      0.126400
      5 C4         -4.2620    0.0370   -1.0980 c3        1 6JZ      0.127400
      6 O2         -3.2100   -0.0860   -0.1420 os        1 6JZ     -0.429600
      7 C5         -2.1860    0.8870   -0.3390 c3        1 6JZ      0.127400
      8 C6         -1.0590    0.5310    0.6250 c3        1 6JZ      0.127400
      9 O3         -0.0000   -0.0000   -0.1690 os        1 6JZ     -0.429600
     10 C7          1.0600   -0.5260    0.6280 c3        1 6JZ      0.127400
     11 C8          2.1860   -0.8890   -0.3340 c3        1 6JZ      0.127400
     12 O4          3.2100    0.0850   -0.1450 os        1 6JZ     -0.429600
     13 C9          4.2610   -0.0440   -1.1010 c3        1 6JZ      0.127400
     14 C10         5.3570    0.9250   -0.6710 c3        1 6JZ      0.126400
     15 O5          6.4590    0.1260   -0.2470 os        1 6JZ     -0.428600
     16 C11         7.5090    0.9100    0.3180 c3        1 6JZ      0.131400
     17 C12         8.6120   -0.0480    0.7040 c3        1 6JZ     -0.097100
     18 H1         -8.9820    0.5970   -0.1920 hc        1 6JZ      0.045033
     19 H1A        -9.4560   -0.5150    1.1660 hc        1 6JZ      0.045033
     20 H1B        -8.2370    0.8060    1.4430 hc        1 6JZ      0.045033
     21 H2         -7.1210   -1.4540    1.2310 h1        1 6JZ      0.024700
     22 H2A        -7.8690   -1.6590   -0.4220 h1        1 6JZ      0.024700
     23 H3         -5.0030   -1.5770    0.1850 h1        1 6JZ      0.041700
     24 H3A        -5.6780   -1.5760   -1.5200 h1        1 6JZ      0.041700
     25 H4         -3.8710   -0.2430   -2.1120 h1        1 6JZ      0.043200
     26 H4A        -4.6460    1.0910   -1.1200 h1        1 6JZ      0.043200
     27 H5         -1.8250    0.8620   -1.4010 h1        1 6JZ      0.043200
     28 H5A        -2.5950    1.9050   -0.1040 h1        1 6JZ      0.043200
     29 H6         -0.6950    1.4480    1.1580 h1        1 6JZ      0.043700
     30 H6A        -1.4020   -0.2300    1.3750 h1        1 6JZ      0.043700
     31 H7          1.4030    0.2400    1.3720 h1        1 6JZ      0.043700
     32 H7A         0.6960   -1.4400    1.1680 h1        1 6JZ      0.043700
     33 H8          2.5950   -1.9050   -0.0920 h1        1 6JZ      0.043200
     34 H8A         1.8240   -0.8710   -1.3960 h1        1 6JZ      0.043200
     35 H9          4.6450   -1.0990   -1.1160 h1        1 6JZ      0.043200
     36 H9A         3.8700    0.2280   -2.1160 h1        1 6JZ      0.043200
     37 H10         5.6770    1.5650   -1.5350 h1        1 6JZ      0.041700
     38 H10A        5.0040    1.5790    0.1700 h1        1 6JZ      0.041700
     39 H11         7.8680    1.6560   -0.4400 h1        1 6JZ      0.024700
     40 H11A        7.1220    1.4630    1.2160 h1        1 6JZ      0.024700
     41 H12         8.9810   -0.5990   -0.1940 hc        1 6JZ      0.045033
     42 H12A        9.4570    0.5240    1.1560 hc        1 6JZ      0.045033
     43 H12B        8.2380   -0.7950    1.4430 hc        1 6JZ      0.045033
@<TRIPOS>BOND
     1    1    2 1   
     2    1   18 1   
     3    1   19 1   
     4    1   20 1   
     5    2    3 1   
     6    2   21 1   
     7    2   22 1   
     8    3    4 1   
     9    4    5 1   
    10    4   23 1   
    11    4   24 1   
    12    5    6 1   
    13    5   25 1   
    14    5   26 1   
    15    6    7 1   
    16    7    8 1   
    17    7   27 1   
    18    7   28 1   
    19    8    9 1   
    20    8   29 1   
    21    8   30 1   
    22    9   10 1   
    23   10   11 1   
    24   10   31 1   
    25   10   32 1   
    26   11   12 1   
    27   11   33 1   
    28   11   34 1   
    29   12   13 1   
    30   13   14 1   
    31   13   35 1   
    32   13   36 1   
    33   14   15 1   
    34   14   37 1   
    35   14   38 1   
    36   15   16 1   
    37   16   17 1   
    38   16   39 1   
    39   16   40 1   
    40   17   41 1   
    41   17   42 1   
    42   17   43 1   
@<TRIPOS>SUBSTRUCTURE
     1 6JZ         1 TEMP              0 ****  ****    0 ROOT
