@<TRIPOS>MOLECULE
6JZ
   43    42     1     0     0
SMALL
bcc


@<TRIPOS>ATOM
      1 C1          0.4800    2.0130   -1.2620 c3        1 6JZ     -0.097100
      2 C2          0.2430    0.8410   -0.3380 c3        1 6JZ      0.132400
      3 O1          1.3920    0.7390    0.5020 os        1 6JZ     -0.428600
      4 C3          1.2840   -0.3400    1.4260 c3        1 6JZ      0.128400
      5 C4          2.5790   -0.3270    2.2330 c3        1 6JZ      0.129400
      6 O2          2.4320   -1.3470    3.2180 os        1 6JZ     -0.430600
      7 C5          3.5780   -1.4440    4.0630 c3        1 6JZ      0.128400
      8 C6          3.3520   -2.6570    4.9590 c3        1 6JZ      0.127400
      9 O3          4.2630   -3.6610    4.5170 os        1 6JZ     -0.427600
     10 C7          4.0430   -4.9130    5.1640 c3        1 6JZ      0.127400
     11 C8          5.1890   -5.8250    4.7410 c3        1 6JZ      0.128400
     12 O4          6.0180   -5.9910    5.8910 os        1 6JZ     -0.430600
     13 C9          7.2070   -6.7190    5.5920 c3        1 6JZ      0.129400
     14 C10         7.9720   -6.8210    6.9080 c3        1 6JZ      0.128400
     15 O5          9.1130   -7.6280    6.6310 os        1 6JZ     -0.428600
     16 C11         9.9390   -7.8000    7.7830 c3        1 6JZ      0.132400
     17 C12        11.1020   -8.6660    7.3610 c3        1 6JZ     -0.097100
     18 H1         -0.3970    2.1310   -1.9410 hc        1 6JZ      0.045367
     19 H1A         0.6170    2.9510   -0.6740 hc        1 6JZ      0.045367
     20 H1B         1.3980    1.8460   -1.8740 hc        1 6JZ      0.045367
     21 H2         -0.6700    1.0030    0.2950 h1        1 6JZ      0.025700
     22 H2A         0.1180   -0.1130   -0.9180 h1        1 6JZ      0.025700
     23 H3          0.3980   -0.1880    2.0960 h1        1 6JZ      0.038700
     24 H3A         1.1690   -1.3110    0.8760 h1        1 6JZ      0.038700
     25 H4          2.7280    0.6680    2.7280 h1        1 6JZ      0.040700
     26 H4A         3.4590   -0.5500    1.5750 h1        1 6JZ      0.040700
     27 H5          4.5060   -1.5710    3.4450 h1        1 6JZ      0.044700
     28 H5A         3.6600   -0.5100    4.6790 h1        1 6JZ      0.044700
     29 H6          3.5750   -2.4020    6.0280 h1        1 6JZ      0.043700
     30 H6A         2.2950   -3.0260    4.8710 h1        1 6JZ      0.043700
     31 H7          3.0600   -5.3340    4.8240 h1        1 6JZ      0.043700
     32 H7A         4.0310   -4.7780    6.2780 h1        1 6JZ      0.043700
     33 H8          4.7970   -6.8270    4.4230 h1        1 6JZ      0.044700
     34 H8A         5.7770   -5.3660    3.9020 h1        1 6JZ      0.044700
     35 H9          6.9480   -7.7380    5.2040 h1        1 6JZ      0.040700
     36 H9A         7.8110   -6.1710    4.8230 h1        1 6JZ      0.040700
     37 H10         7.3390   -7.3050    7.6980 h1        1 6JZ      0.038700
     38 H10A        8.2910   -5.8060    7.2610 h1        1 6JZ      0.038700
     39 H11        10.2910   -6.7970    8.1440 h1        1 6JZ      0.025700
     40 H11A        9.3440   -8.2910    8.5990 h1        1 6JZ      0.025700
     41 H12        11.6760   -8.1750    6.5390 hc        1 6JZ      0.045367
     42 H12A       11.7780   -8.8280    8.2340 hc        1 6JZ      0.045367
     43 H12B       10.7380   -9.6550    6.9910 hc        1 6JZ      0.045367
@<TRIPOS>BOND
     1    1    2 1   
     2    1   18 1   
     3    1   19 1   
     4    1   20 1   
     5    2    3 1   
     6    2   21 1   
     7    2   22 1   
     8    3    4 1   
     9    4    5 1   
    10    4   23 1   
    11    4   24 1   
    12    5    6 1   
    13    5   25 1   
    14    5   26 1   
    15    6    7 1   
    16    7    8 1   
    17    7   27 1   
    18    7   28 1   
    19    8    9 1   
    20    8   29 1   
    21    8   30 1   
    22    9   10 1   
    23   10   11 1   
    24   10   31 1   
    25   10   32 1   
    26   11   12 1   
    27   11   33 1   
    28   11   34 1   
    29   12   13 1   
    30   13   14 1   
    31   13   35 1   
    32   13   36 1   
    33   14   15 1   
    34   14   37 1   
    35   14   38 1   
    36   15   16 1   
    37   16   17 1   
    38   16   39 1   
    39   16   40 1   
    40   17   41 1   
    41   17   42 1   
    42   17   43 1   
@<TRIPOS>SUBSTRUCTURE
     1 6JZ         1 TEMP              0 ****  ****    0 ROOT
