@<TRIPOS>MOLECULE
6JZ
   43    42     1     0     0
SMALL
bcc


@<TRIPOS>ATOM
      1 C1         -8.3980    2.7090   -3.6650 c3        1 6JZ     -0.097100
      2 C2         -7.5420    1.4960   -3.4190 c3        1 6JZ      0.132400
      3 O1         -6.2570    1.9070   -3.0270 os        1 6JZ     -0.428600
      4 C3         -5.4530    0.8690   -2.5230 c3        1 6JZ      0.127400
      5 C4         -3.9960    1.3710   -2.3790 c3        1 6JZ      0.130400
      6 O2         -3.2760    0.5230   -1.4460 os        1 6JZ     -0.430600
      7 C5         -1.8450    0.7180   -1.4660 c3        1 6JZ      0.130400
      8 C6         -1.2200    0.0980   -0.1930 c3        1 6JZ      0.129400
      9 O3          0.1890   -0.0360   -0.3710 os        1 6JZ     -0.429600
     10 C7          0.9000   -0.2880    0.8300 c3        1 6JZ      0.129400
     11 C8          2.3470   -0.5960    0.5040 c3        1 6JZ      0.130400
     12 O4          3.1180   -0.5960    1.7030 os        1 6JZ     -0.430600
     13 C9          4.4220   -1.2280    1.5620 c3        1 6JZ      0.130400
     14 C10         5.2640   -0.9440    2.8040 c3        1 6JZ      0.127400
     15 O5          6.3430   -1.8230    2.8420 os        1 6JZ     -0.428600
     16 C11         7.2970   -1.5290    3.8710 c3        1 6JZ      0.132400
     17 C12         8.2520   -2.6840    4.0170 c3        1 6JZ     -0.097100
     18 H1         -8.4790    3.2240   -2.8350 hc        1 6JZ      0.045367
     19 H1A        -9.2790    2.4300   -3.9600 hc        1 6JZ      0.045367
     20 H1B        -7.9810    3.2690   -4.3610 hc        1 6JZ      0.045367
     21 H2         -7.4800    0.9700   -4.2380 h1        1 6JZ      0.025700
     22 H2A        -7.9390    0.9570   -2.7180 h1        1 6JZ      0.025700
     23 H3         -5.7920    0.5900   -1.6450 h1        1 6JZ      0.039700
     24 H3A        -5.4760    0.1040   -3.1430 h1        1 6JZ      0.039700
     25 H4         -4.0000    2.2880   -2.0490 h1        1 6JZ      0.042700
     26 H4A        -3.5570    1.3430   -3.2480 h1        1 6JZ      0.042700
     27 H5         -1.4660    0.2840   -2.2630 h1        1 6JZ      0.042700
     28 H5A        -1.6480    1.6740   -1.4920 h1        1 6JZ      0.042700
     29 H6         -1.3970    0.6770    0.5720 h1        1 6JZ      0.041700
     30 H6A        -1.6130   -0.7830   -0.0320 h1        1 6JZ      0.041700
     31 H7          0.8560    0.5060    1.4100 h1        1 6JZ      0.041700
     32 H7A         0.4970   -1.0570    1.2950 h1        1 6JZ      0.041700
     33 H8          2.6910    0.0780   -0.1020 h1        1 6JZ      0.042700
     34 H8A         2.4030   -1.4630    0.0860 h1        1 6JZ      0.042700
     35 H9          4.3050   -2.2000    1.4610 h1        1 6JZ      0.042700
     36 H9A         4.8840   -0.8630    0.7560 h1        1 6JZ      0.042700
     37 H10         4.7190   -1.0640    3.6010 h1        1 6JZ      0.039700
     38 H10A        5.5960   -0.0180    2.7700 h1        1 6JZ      0.039700
     39 H11         6.8320   -1.3860    4.7120 h1        1 6JZ      0.025700
     40 H11A        7.7940   -0.7240    3.6330 h1        1 6JZ      0.025700
     41 H12         7.7820   -3.4470    4.4040 hc        1 6JZ      0.045367
     42 H12A        8.6040   -2.9310    3.1340 hc        1 6JZ      0.045367
     43 H12B        8.9980   -2.4220    4.6070 hc        1 6JZ      0.045367
@<TRIPOS>BOND
     1    1    2 1   
     2    1   18 1   
     3    1   19 1   
     4    1   20 1   
     5    2    3 1   
     6    2   21 1   
     7    2   22 1   
     8    3    4 1   
     9    4    5 1   
    10    4   23 1   
    11    4   24 1   
    12    5    6 1   
    13    5   25 1   
    14    5   26 1   
    15    6    7 1   
    16    7    8 1   
    17    7   27 1   
    18    7   28 1   
    19    8    9 1   
    20    8   29 1   
    21    8   30 1   
    22    9   10 1   
    23   10   11 1   
    24   10   31 1   
    25   10   32 1   
    26   11   12 1   
    27   11   33 1   
    28   11   34 1   
    29   12   13 1   
    30   13   14 1   
    31   13   35 1   
    32   13   36 1   
    33   14   15 1   
    34   14   37 1   
    35   14   38 1   
    36   15   16 1   
    37   16   17 1   
    38   16   39 1   
    39   16   40 1   
    40   17   41 1   
    41   17   42 1   
    42   17   43 1   
@<TRIPOS>SUBSTRUCTURE
     1 6JZ         1 TEMP              0 ****  ****    0 ROOT
