@<TRIPOS>MOLECULE
6K6
   45    48     1     0     0
SMALL
bcc


@<TRIPOS>ATOM
      1 C66         0.2450   -1.3960    0.3200 cc        1 6K6     -0.251300
      2 C65         1.6180   -0.9690    0.1640 cc        1 6K6     -0.259300
      3 C64         1.7640    0.1780    0.9150 cd        1 6K6      0.218600
      4 O63         0.5600    0.5020    1.5440 os        1 6K6     -0.369800
      5 C62        -0.3620   -0.4820    1.1590 cd        1 6K6      0.242000
      6 C61        -1.7290   -0.3180    1.7150 c3        1 6K6      0.169500
      7 N6         -2.4960   -1.5390    1.6430 nu        1 6K6     -0.836900
      8 C6         -3.7650   -1.5760    2.2380 ca        1 6K6      0.699200
      9 N1         -4.4660   -0.4330    2.5070 nb        1 6K6     -0.797000
     10 C2         -5.7360   -0.5800    2.9870 ca        1 6K6      0.639900
     11 N3         -6.4410   -1.6950    3.2650 nb        1 6K6     -0.700000
     12 C4         -5.7400   -2.8450    3.0190 ca        1 6K6      0.434800
     13 C5         -4.3660   -2.8450    2.5020 ca        1 6K6     -0.198200
     14 N7         -3.9070   -4.1620    2.3780 nc        1 6K6     -0.590100
     15 C8         -4.9340   -4.9300    2.7870 cd        1 6K6      0.460700
     16 N9         -6.0780   -4.1940    3.1700 na        1 6K6     -0.253000
     17 C1'        -7.3230   -4.7220    3.7220 c3        1 6K6      0.215800
     18 O4'        -7.0320   -5.6950    4.7080 os        1 6K6     -0.432600
     19 C2'        -8.2460   -5.3860    2.6430 c3        1 6K6      0.102100
     20 O2'        -9.5520   -4.8820    2.8180 oh        1 6K6     -0.615800
     21 C3'        -8.0880   -6.9030    2.8930 c3        1 6K6      0.128100
     22 O3'        -9.3640   -7.4950    2.9250 oh        1 6K6     -0.682800
     23 C4'        -7.3860   -7.0290    4.2590 c3        1 6K6      0.049100
     24 C5'        -6.1300   -7.9330    4.2320 c3        1 6K6      0.228400
     25 O5'        -6.4510   -9.2110    4.5910 os        1 6K6     -0.553200
     26 PA         -6.5690  -10.3100    3.2360 p5        1 6K6      1.333900
     27 O2         -6.8370  -11.6350    3.8740 o         1 6K6     -0.928833
     28 O3         -7.7320   -9.6330    2.5350 o         1 6K6     -0.928833
     29 O1         -5.2460  -10.0840    2.5640 o         1 6K6     -0.928833
     30 H1         -0.2090   -2.2700   -0.1410 ha        1 6K6      0.177000
     31 H2          2.3720   -1.4730   -0.4330 ha        1 6K6      0.155000
     32 H3          2.5750    0.8670    1.1270 h4        1 6K6      0.042100
     33 H4         -1.6420    0.0680    2.7760 h1        1 6K6      0.066700
     34 H5         -2.2680    0.4740    1.1140 h1        1 6K6      0.066700
     35 H6         -1.9710   -2.3810    1.7650 hn        1 6K6      0.435800
     36 H7         -6.2650    0.3760    3.1800 h5        1 6K6      0.031100
     37 H8         -4.9350   -6.0370    2.8470 h5        1 6K6      0.127800
     38 H9         -7.8520   -3.8700    4.2400 h2        1 6K6      0.093700
     39 H10        -7.9510   -5.1050    1.5990 h1        1 6K6      0.067700
     40 H11       -10.0640   -5.5480    3.3000 ho        1 6K6      0.431000
     41 H12        -7.4700   -7.3760    2.0780 h1        1 6K6      0.117700
     42 H13        -9.2010   -8.4650    2.8170 ho        1 6K6      0.516000
     43 H14        -8.1020   -7.4160    5.0330 h1        1 6K6      0.080700
     44 H15        -5.3990   -7.4970    4.9750 h1        1 6K6     -0.002800
     45 H16        -5.6640   -7.9100    3.2040 h1        1 6K6     -0.002800
@<TRIPOS>BOND
     1    1    2 1   
     2    1    5 2   
     3    1   30 1   
     4    2    3 2   
     5    2   31 1   
     6    3    4 1   
     7    3   32 1   
     8    4    5 1   
     9    5    6 1   
    10    6    7 1   
    11    6   33 1   
    12    6   34 1   
    13    7    8 1   
    14    7   35 1   
    15    8    9 ar  
    16    8   13 ar  
    17    9   10 ar  
    18   10   11 ar  
    19   10   36 1   
    20   11   12 ar  
    21   12   13 ar  
    22   12   16 1   
    23   13   14 1   
    24   14   15 2   
    25   15   16 1   
    26   15   37 1   
    27   16   17 1   
    28   17   18 1   
    29   17   19 1   
    30   17   38 1   
    31   18   23 1   
    32   19   20 1   
    33   19   21 1   
    34   19   39 1   
    35   20   40 1   
    36   21   22 1   
    37   21   23 1   
    38   21   41 1   
    39   22   42 1   
    40   23   24 1   
    41   23   43 1   
    42   24   25 1   
    43   24   44 1   
    44   24   45 1   
    45   25   26 1   
    46   26   27 1   
    47   26   28 1   
    48   26   29 1   
@<TRIPOS>SUBSTRUCTURE
     1 6K6         1 TEMP              0 ****  ****    0 ROOT
