@<TRIPOS>MOLECULE
6K6
   45    48     1     0     0
SMALL
bcc


@<TRIPOS>ATOM
      1 C66         0.2770   -1.4150    0.3690 cc        1 6K6     -0.251300
      2 C65         1.6500   -0.9790    0.2370 cc        1 6K6     -0.259300
      3 C64         1.7650    0.1920    0.9570 cd        1 6K6      0.218600
      4 O63         0.5430    0.5220    1.5440 os        1 6K6     -0.369800
      5 C62        -0.3590   -0.4830    1.1660 cd        1 6K6      0.242000
      6 C61        -1.7420   -0.3160    1.6810 c3        1 6K6      0.169500
      7 N6         -2.4960   -1.5450    1.6250 nh        1 6K6     -0.836900
      8 C6         -3.7800   -1.5770    2.1880 ca        1 6K6      0.699200
      9 N1         -4.4980   -0.4340    2.4060 nb        1 6K6     -0.797000
     10 C2         -5.7790   -0.5790    2.8580 ca        1 6K6      0.639900
     11 N3         -6.4800   -1.6930    3.1500 nb        1 6K6     -0.700000
     12 C4         -5.7630   -2.8430    2.9550 ca        1 6K6      0.434800
     13 C5         -4.3760   -2.8450    2.4740 ca        1 6K6     -0.198200
     14 N7         -3.9020   -4.1600    2.3980 nc        1 6K6     -0.590100
     15 C8         -4.9330   -4.9260    2.8030 cd        1 6K6      0.460700
     16 N9         -6.0930   -4.1900    3.1360 na        1 6K6     -0.253000
     17 C1'        -7.3470   -4.7140    3.6700 c3        1 6K6      0.215800
     18 O4'        -7.0730   -5.6560    4.6910 os        1 6K6     -0.432600
     19 C2'        -8.2360   -5.4170    2.5880 c3        1 6K6      0.102100
     20 O2'        -9.5510   -4.9200    2.7150 oh        1 6K6     -0.615800
     21 C3'        -8.0710   -6.9240    2.8840 c3        1 6K6      0.128100
     22 O3'        -9.3430   -7.5270    2.9000 oh        1 6K6     -0.682800
     23 C4'        -7.4040   -7.0050    4.2700 c3        1 6K6      0.049100
     24 C5'        -6.1400   -7.8990    4.3010 c3        1 6K6      0.228400
     25 O5'        -6.4580   -9.1690    4.6880 os        1 6K6     -0.553200
     26 PA         -6.5320  -10.3060    3.3620 p5        1 6K6      1.333900
     27 O2         -6.8050  -11.6150    4.0290 o         1 6K6     -0.928833
     28 O3         -7.6830   -9.6590    2.6120 o         1 6K6     -0.928833
     29 O1         -5.1950  -10.0860    2.7180 o         1 6K6     -0.928833
     30 H1         -0.1570   -2.3070   -0.0760 ha        1 6K6      0.177000
     31 H2          2.4240   -1.4930   -0.3250 ha        1 6K6      0.155000
     32 H3          2.5640    0.8940    1.1670 h4        1 6K6      0.042100
     33 H4         -1.6860    0.1010    2.7320 h1        1 6K6      0.066700
     34 H5         -2.2720    0.4540    1.0440 h1        1 6K6      0.066700
     35 H6         -1.9670   -2.3790    1.7840 hn        1 6K6      0.435800
     36 H7         -6.3210    0.3770    3.0100 h5        1 6K6      0.031100
     37 H8         -4.9260   -6.0310    2.8950 h5        1 6K6      0.127800
     38 H9         -7.8960   -3.8520    4.1510 h2        1 6K6      0.093700
     39 H10        -7.9170   -5.1620    1.5440 h1        1 6K6      0.067700
     40 H11       -10.0690   -5.5770    3.2020 ho        1 6K6      0.431000
     41 H12        -7.4290   -7.4140    2.0990 h1        1 6K6      0.117700
     42 H13        -9.1680   -8.4980    2.8240 ho        1 6K6      0.516000
     43 H14        -8.1370   -7.3770    5.0370 h1        1 6K6      0.080700
     44 H15        -5.4320   -7.4340    5.0500 h1        1 6K6     -0.002800
     45 H16        -5.6480   -7.9000    3.2840 h1        1 6K6     -0.002800
@<TRIPOS>BOND
     1    1    2 1   
     2    1    5 2   
     3    1   30 1   
     4    2    3 2   
     5    2   31 1   
     6    3    4 1   
     7    3   32 1   
     8    4    5 1   
     9    5    6 1   
    10    6    7 1   
    11    6   33 1   
    12    6   34 1   
    13    7    8 1   
    14    7   35 1   
    15    8    9 ar  
    16    8   13 ar  
    17    9   10 ar  
    18   10   11 ar  
    19   10   36 1   
    20   11   12 ar  
    21   12   13 ar  
    22   12   16 1   
    23   13   14 1   
    24   14   15 2   
    25   15   16 1   
    26   15   37 1   
    27   16   17 1   
    28   17   18 1   
    29   17   19 1   
    30   17   38 1   
    31   18   23 1   
    32   19   20 1   
    33   19   21 1   
    34   19   39 1   
    35   20   40 1   
    36   21   22 1   
    37   21   23 1   
    38   21   41 1   
    39   22   42 1   
    40   23   24 1   
    41   23   43 1   
    42   24   25 1   
    43   24   44 1   
    44   24   45 1   
    45   25   26 1   
    46   26   27 1   
    47   26   28 1   
    48   26   29 1   
@<TRIPOS>SUBSTRUCTURE
     1 6K6         1 TEMP              0 ****  ****    0 ROOT
