@<TRIPOS>MOLECULE
6KJ
   36    31     1     0     0
SMALL
bcc


@<TRIPOS>ATOM
      1 OA2        -0.1580    5.8780   -0.7540 o         1 6KJ     -0.577500
      2 C          -1.2950    5.3810   -0.9700 c1        1 6KJ      0.304000
      3 OA1        -2.0720    5.9220   -1.8060 o         1 6KJ     -0.577500
      4 CA         -1.7570    4.2030   -0.1770 c2        1 6KJ     -0.129000
      5 N          -2.9570    4.5280    0.4870 n3        1 6KJ     -0.319000
      6 CB         -2.0010    3.0070   -1.1240 c3        1 6KJ     -0.124000
      7 CG         -0.9890    1.8640   -0.7950 c3        1 6KJ     -0.216000
      8 CD         -1.5050    0.5450   -1.3760 c2        1 6KJ      0.042000
      9 NE         -0.7310   -0.5230   -1.3780 n1        1 6KJ     -0.251000
     10 CZ          0.5760   -0.4500   -0.8440 c1        1 6KJ      0.089000
     11 NH2         1.4070    0.4450   -1.2840 n1        1 6KJ     -0.325000
     12 NH1         0.9850   -1.3640    0.1860 n2        1 6KJ     -0.089000
     13 OH          0.4590   -2.6560    0.2180 os        1 6KJ     -0.170000
     14 C1          1.3920   -3.5450    0.8420 c3        1 6KJ      0.027000
     15 C4          0.8670   -4.9630    0.7620 c3        1 6KJ     -0.224667
     16 C3          2.7220   -3.4600    0.1300 c3        1 6KJ     -0.224667
     17 C2          1.5740   -3.1500    2.3070 c3        1 6KJ     -0.224667
     18 H2         -1.0750    3.9650    0.4810 h4        1 6KJ      0.085000
     19 H3         -3.0320    4.0220    1.2480 hn        1 6KJ      0.126000
     20 H4         -2.9520    5.4370    0.7150 hn        1 6KJ      0.126000
     21 H6         -2.9250    2.6750   -1.0040 hc        1 6KJ      0.069500
     22 H7         -1.8760    3.2970   -2.0570 hc        1 6KJ      0.069500
     23 H8         -0.1280    2.0730   -1.1840 hc        1 6KJ      0.143000
     24 H9         -0.8970    1.7800    0.1680 hc        1 6KJ      0.143000
     25 H10        -2.4210    0.4940   -1.7500 h4        1 6KJ      0.142000
     26 H11         1.1500    1.0210   -1.9330 DU        1 6KJ      0.157000
     27 H12         1.5020   -1.0750    0.8610 hn        1 6KJ      0.166000
     28 H13         0.7930   -5.2310   -0.1780 hc        1 6KJ      0.084778
     29 H14         1.4890   -5.5700    1.2280 hc        1 6KJ      0.084778
     30 H15        -0.0070   -5.0090    1.1820 hc        1 6KJ      0.084778
     31 H16         3.1880   -2.6530    0.4100 hc        1 6KJ      0.084778
     32 H17         3.2690   -4.2510    0.3580 hc        1 6KJ      0.084778
     33 H18         2.5740   -3.4340   -0.8340 hc        1 6KJ      0.084778
     34 H19         0.6980   -2.9160    2.6960 hc        1 6KJ      0.084778
     35 H20         2.1700   -2.3820    2.3650 hc        1 6KJ      0.084778
     36 H21         1.9630   -3.9060    2.8050 hc        1 6KJ      0.084778
@<TRIPOS>BOND
     1    1    2 1   
     2    2    3 1   
     3    4    5 1   
     4    4    6 1   
     5    4   18 1   
     6    5   19 1   
     7    5   20 1   
     8    6    7 1   
     9    6   21 1   
    10    6   22 1   
    11    7    8 1   
    12    7   23 1   
    13    7   24 1   
    14    8    9 1   
    15    8   25 1   
    16   10   11 1   
    17   12   13 1   
    18   12   27 1   
    19   13   14 1   
    20   14   15 1   
    21   14   16 1   
    22   14   17 1   
    23   15   28 1   
    24   15   29 1   
    25   15   30 1   
    26   16   31 1   
    27   16   32 1   
    28   16   33 1   
    29   17   34 1   
    30   17   35 1   
    31   17   36 1   
@<TRIPOS>SUBSTRUCTURE
     1 6KJ         1 TEMP              0 ****  ****    0 ROOT
