@<TRIPOS>MOLECULE
6KJ
   38    37     1     0     0
SMALL
bcc


@<TRIPOS>ATOM
      1 OA2         5.0850    2.2760   -2.0720 o         1 6KJ     -0.793800
      2 C           4.5740    1.7100   -3.0840 c         1 6KJ      0.884600
      3 OA1         4.9600    1.8830   -4.2630 o         1 6KJ     -0.793800
      4 CA          3.3760    0.7420   -2.8300 c3        1 6KJ     -0.007500
      5 N           3.8720   -0.3520   -1.9310 nz        1 6KJ     -0.827600
      6 CB          2.2000    1.4870   -2.1950 c3        1 6KJ     -0.092400
      7 CG          1.7710    2.6930   -3.0130 c3        1 6KJ     -0.137700
      8 CD          2.8430    3.7460   -2.9700 c2        1 6KJ      0.498200
      9 NE          3.1880    4.4170   -4.0140 ne        1 6KJ     -0.683000
     10 CZ          4.3170    5.3090   -3.9860 ce        1 6KJ      0.734200
     11 NH2         4.3590    6.5640   -4.2570 n2        1 6KJ     -0.690100
     12 NH1         5.6270    4.5400   -3.7470 ny        1 6KJ     -0.545500
     13 OH          6.7180    5.3400   -3.8180 os        1 6KJ     -0.216100
     14 C1          8.0310    4.6540   -3.6860 c3        1 6KJ      0.137800
     15 C4          8.9870    5.8280   -3.8420 c3        1 6KJ     -0.129433
     16 C3          8.1360    4.0200   -2.3130 c3        1 6KJ     -0.129433
     17 C2          8.1990    3.6400   -4.8000 c3        1 6KJ     -0.129433
     18 H2          3.0630    0.2770   -3.8100 hx        1 6KJ      0.123700
     19 H3          3.0980   -0.9100   -1.5690 hn        1 6KJ      0.459133
     20 H4          4.3820    0.0860   -1.1500 hn        1 6KJ      0.459133
     21 H6          2.4840    1.8270   -1.1610 hc        1 6KJ      0.069700
     22 H7          1.3190    0.7950   -2.1060 hc        1 6KJ      0.069700
     23 H8          1.5290    2.3840   -4.0650 hc        1 6KJ      0.099200
     24 H9          0.8350    3.1260   -2.5630 hc        1 6KJ      0.099200
     25 H10         3.3240    3.8490   -1.9670 h4        1 6KJ      0.013800
     26 H11         3.4900    7.0270   -4.4330 hn        1 6KJ      0.464400
     27 H12         5.5780    4.0850   -2.8030 hn        1 6KJ      0.490800
     28 H13        10.0330    5.4520   -3.7380 hc        1 6KJ      0.069033
     29 H14         8.8620    6.3000   -4.8460 hc        1 6KJ      0.069033
     30 H15         8.7910    6.5960   -3.0560 hc        1 6KJ      0.069033
     31 H16         7.8550    4.7570   -1.5220 hc        1 6KJ      0.069033
     32 H17         7.4780    3.1190   -2.2220 hc        1 6KJ      0.069033
     33 H18         9.1920    3.6990   -2.1400 hc        1 6KJ      0.069033
     34 H19         9.2720    3.3350   -4.8560 hc        1 6KJ      0.069033
     35 H20         7.9070    4.0880   -5.7810 hc        1 6KJ      0.069033
     36 H21         7.5870    2.7220   -4.6180 hc        1 6KJ      0.069033
     37 HN3         4.5170   -0.9500   -2.4540 hn        1 6KJ      0.459133
     38 HH13        5.6830    3.7770   -4.4670 hn        1 6KJ      0.490800
@<TRIPOS>BOND
     1    1    2 1   
     2    2    3 1   
     3    2    4 1   
     4    4    5 1   
     5    4    6 1   
     6    4   18 1   
     7    5   19 1   
     8    5   20 1   
     9    5   37 1   
    10    6    7 1   
    11    6   21 1   
    12    6   22 1   
    13    7    8 1   
    14    7   23 1   
    15    7   24 1   
    16    8    9 2   
    17    8   25 1   
    18    9   10 1   
    19   10   11 2   
    20   10   12 1   
    21   11   26 1   
    22   12   13 1   
    23   12   27 1   
    24   12   38 1   
    25   13   14 1   
    26   14   15 1   
    27   14   16 1   
    28   14   17 1   
    29   15   28 1   
    30   15   29 1   
    31   15   30 1   
    32   16   31 1   
    33   16   32 1   
    34   16   33 1   
    35   17   34 1   
    36   17   35 1   
    37   17   36 1   
@<TRIPOS>SUBSTRUCTURE
     1 6KJ         1 TEMP              0 ****  ****    0 ROOT
