@<TRIPOS>MOLECULE
6KJ
   36    35     1     0     0
SMALL
bcc


@<TRIPOS>ATOM
      1 OA2        -6.3680    0.1550    0.1440 o         1 6KJ     -0.839300
      2 C          -5.2550   -0.4420    0.1650 c         1 6KJ      0.889600
      3 OA1        -5.0160   -1.4970    0.8150 o         1 6KJ     -0.839300
      4 CA         -4.0880    0.1530   -0.6960 c3        1 6KJ      0.015500
      5 N          -4.4060    1.4160   -1.3510 n3        1 6KJ     -0.893800
      6 CB         -2.8420    0.2320    0.1860 c3        1 6KJ     -0.066400
      7 CG         -1.5920    0.4990   -0.6260 c3        1 6KJ     -0.145700
      8 CD         -0.3850    0.5460    0.2610 c2        1 6KJ      0.503200
      9 NE          0.7890    0.1910   -0.1310 ne        1 6KJ     -0.762000
     10 CZ          1.9130    0.2440    0.7810 ce        1 6KJ      0.712200
     11 NH2         2.0330   -0.4150    1.8990 n2        1 6KJ     -0.802100
     12 NH1         2.9770    1.1640    0.3320 nh        1 6KJ     -0.477700
     13 OH          4.2140    0.8180    0.6340 os        1 6KJ     -0.185100
     14 C1          4.9410   -0.1460   -0.2060 c3        1 6KJ      0.099800
     15 C4          6.3160   -0.1880    0.4470 c3        1 6KJ     -0.107433
     16 C3          4.2870   -1.5140   -0.1700 c3        1 6KJ     -0.107433
     17 C2          5.0400    0.3740   -1.6320 c3        1 6KJ     -0.107433
     18 H2         -3.8910   -0.5950   -1.5180 h1        1 6KJ      0.042700
     19 H3         -5.3110    1.3070   -1.7790 hn        1 6KJ      0.332800
     20 H4         -4.5180    2.1200   -0.6410 hn        1 6KJ      0.332800
     21 H6         -2.9710    1.0300    0.9630 hc        1 6KJ      0.052700
     22 H7         -2.7560   -0.7520    0.7210 hc        1 6KJ      0.052700
     23 H8         -1.4860   -0.2810   -1.4260 hc        1 6KJ      0.071200
     24 H9         -1.6740    1.4940   -1.1430 hc        1 6KJ      0.071200
     25 H10        -0.5980    0.9290    1.2860 h4        1 6KJ     -0.022200
     26 H11         1.2200   -0.9270    2.1730 hn        1 6KJ      0.393400
     27 H12         2.8670    1.3090   -0.6720 hn        1 6KJ      0.372800
     28 H13         6.2150   -0.4650    1.5240 hc        1 6KJ      0.046144
     29 H14         6.9500   -0.9440   -0.0720 hc        1 6KJ      0.046144
     30 H15         6.8030    0.8140    0.3810 hc        1 6KJ      0.046144
     31 H16         3.2630   -1.4770   -0.6140 hc        1 6KJ      0.046144
     32 H17         4.9030   -2.2370   -0.7560 hc        1 6KJ      0.046144
     33 H18         4.2070   -1.8710    0.8840 hc        1 6KJ      0.046144
     34 H19         5.2870    1.4620   -1.6270 hc        1 6KJ      0.046144
     35 H20         5.8440   -0.1770   -2.1760 hc        1 6KJ      0.046144
     36 H21         4.0800    0.2230   -2.1820 hc        1 6KJ      0.046144
@<TRIPOS>BOND
     1    1    2 1   
     2    2    3 1   
     3    2    4 1   
     4    4    5 1   
     5    4    6 1   
     6    4   18 1   
     7    5   19 1   
     8    5   20 1   
     9    6    7 1   
    10    6   21 1   
    11    6   22 1   
    12    7    8 1   
    13    7   23 1   
    14    7   24 1   
    15    8    9 2   
    16    8   25 1   
    17    9   10 1   
    18   10   11 2   
    19   10   12 1   
    20   11   26 1   
    21   12   13 1   
    22   12   27 1   
    23   13   14 1   
    24   14   15 1   
    25   14   16 1   
    26   14   17 1   
    27   15   28 1   
    28   15   29 1   
    29   15   30 1   
    30   16   31 1   
    31   16   32 1   
    32   16   33 1   
    33   17   34 1   
    34   17   35 1   
    35   17   36 1   
@<TRIPOS>SUBSTRUCTURE
     1 6KJ         1 TEMP              0 ****  ****    0 ROOT
