@<TRIPOS>MOLECULE
6KJ
   38    37     1     0     0
SMALL
bcc


@<TRIPOS>ATOM
      1 OA2         1.9480    1.3060    0.2500 o         1 6KJ     -0.777300
      2 C           2.4410    1.6450   -0.8480 c         1 6KJ      0.949600
      3 OA1         3.1880    2.6180   -1.1020 o         1 6KJ     -0.777300
      4 CA          2.0910    0.6920   -2.0830 c3        1 6KJ     -0.063500
      5 N           0.8880   -0.1210   -1.7160 n4        1 6KJ     -0.831600
      6 CB          1.8940    1.4780   -3.3740 c3        1 6KJ     -0.077400
      7 CG          3.2060    1.7150   -4.1040 c3        1 6KJ     -0.140700
      8 CD          4.0390    2.7330   -3.3780 c2        1 6KJ      0.586200
      9 NE          5.2840    2.5160   -3.0920 ne        1 6KJ     -0.743000
     10 CZ          5.9710    3.4410   -2.2540 ce        1 6KJ      0.764200
     11 NH2         5.7730    3.9290   -1.0860 n2        1 6KJ     -0.751100
     12 NH1         7.3530    3.8210   -2.8490 n4        1 6KJ     -0.521500
     13 OH          7.1310    4.7710   -3.7920 os        1 6KJ     -0.233100
     14 C1          8.3320    5.4120   -4.3920 c3        1 6KJ      0.134800
     15 C4          7.6860    6.3750   -5.3770 c3        1 6KJ     -0.128433
     16 C3          9.1080    6.1450   -3.3160 c3        1 6KJ     -0.128433
     17 C2          9.1680    4.3630   -5.0960 c3        1 6KJ     -0.128433
     18 H2          2.9570   -0.0230   -2.1830 hx        1 6KJ      0.099700
     19 H3          0.8800   -0.1800   -0.6720 hn        1 6KJ      0.456467
     20 H4          0.0360    0.3510   -2.0180 hn        1 6KJ      0.456467
     21 H6          1.4150    2.4640   -3.1290 hc        1 6KJ      0.066200
     22 H7          1.2140    0.9300   -4.0820 hc        1 6KJ      0.066200
     23 H8          2.9840    2.1320   -5.1250 hc        1 6KJ      0.081700
     24 H9          3.7510    0.7440   -4.2470 hc        1 6KJ      0.081700
     25 H10         3.4830    3.6600   -3.1030 h4        1 6KJ      0.026800
     26 H11         4.9210    3.7040   -0.5980 hn        1 6KJ      0.526400
     27 H12         7.9680    4.1900   -2.1010 hn        1 6KJ      0.461300
     28 H13         8.4930    6.9350   -5.9090 hc        1 6KJ      0.069922
     29 H14         7.0730    5.8160   -6.1230 hc        1 6KJ      0.069922
     30 H15         7.0300    7.1000   -4.8380 hc        1 6KJ      0.069922
     31 H16         9.7230    5.4460   -2.7000 hc        1 6KJ      0.069922
     32 H17         9.8030    6.8760   -3.8000 hc        1 6KJ      0.069922
     33 H18         8.4130    6.7120   -2.6490 hc        1 6KJ      0.069922
     34 H19         8.5220    3.7000   -5.7210 hc        1 6KJ      0.069922
     35 H20         9.9030    4.8720   -5.7680 hc        1 6KJ      0.069922
     36 H21         9.7440    3.7390   -4.3700 hc        1 6KJ      0.069922
     37 HN3         0.9270   -1.0520   -2.1220 hn        1 6KJ      0.456467
     38 HH13        7.7800    2.9850   -3.2810 hn        1 6KJ      0.461300
@<TRIPOS>BOND
     1    1    2 1   
     2    2    3 1   
     3    2    4 1   
     4    4    5 1   
     5    4    6 1   
     6    4   18 1   
     7    5   19 1   
     8    5   20 1   
     9    5   37 1   
    10    6    7 1   
    11    6   21 1   
    12    6   22 1   
    13    7    8 1   
    14    7   23 1   
    15    7   24 1   
    16    8    9 2   
    17    8   25 1   
    18    9   10 1   
    19   10   11 2   
    20   10   12 1   
    21   11   26 1   
    22   12   13 1   
    23   12   27 1   
    24   12   38 1   
    25   13   14 1   
    26   14   15 1   
    27   14   16 1   
    28   14   17 1   
    29   15   28 1   
    30   15   29 1   
    31   15   30 1   
    32   16   31 1   
    33   16   32 1   
    34   16   33 1   
    35   17   34 1   
    36   17   35 1   
    37   17   36 1   
@<TRIPOS>SUBSTRUCTURE
     1 6KJ         1 TEMP              0 ****  ****    0 ROOT
