@<TRIPOS>MOLECULE
6KJ
   38    37     1     0     0
SMALL
bcc


@<TRIPOS>ATOM
      1 OA2         2.0710    1.0650    0.2240 o         1 6KJ     -0.777300
      2 C           2.5140    1.5040   -0.8600 c         1 6KJ      0.949600
      3 OA1         3.2870    2.4710   -1.0540 o         1 6KJ     -0.777300
      4 CA          2.0510    0.7070   -2.1660 c3        1 6KJ     -0.064500
      5 N           0.8380   -0.0960   -1.8140 n4        1 6KJ     -0.831600
      6 CB          1.8150    1.6370   -3.3500 c3        1 6KJ     -0.077400
      7 CG          3.0920    1.9040   -4.1300 c3        1 6KJ     -0.140700
      8 CD          4.0090    2.8040   -3.3530 c2        1 6KJ      0.586200
      9 NE          5.2580    2.5110   -3.1700 ne        1 6KJ     -0.743000
     10 CZ          6.0330    3.3110   -2.2810 ce        1 6KJ      0.764200
     11 NH2         5.9250    3.6740   -1.0580 n2        1 6KJ     -0.751100
     12 NH1         7.3930    3.7020   -2.9170 n4        1 6KJ     -0.521500
     13 OH          7.1600    4.7570   -3.7370 os        1 6KJ     -0.233100
     14 C1          8.3510    5.4130   -4.3390 c3        1 6KJ      0.134800
     15 C4          7.6930    6.5040   -5.1710 c3        1 6KJ     -0.128433
     16 C3          9.2220    5.9920   -3.2420 c3        1 6KJ     -0.128433
     17 C2          9.0950    4.4160   -5.2050 c3        1 6KJ     -0.128433
     18 H2          2.8780   -0.0240   -2.3960 hx        1 6KJ      0.099700
     19 H3          0.8120   -0.9780   -2.3200 hn        1 6KJ      0.456467
     20 H4          0.8880   -0.2690   -0.7850 hn        1 6KJ      0.456467
     21 H6          1.3950    2.6080   -2.9700 hc        1 6KJ      0.066200
     22 H7          1.0710    1.1970   -4.0690 hc        1 6KJ      0.066200
     23 H8          2.8290    2.4400   -5.0850 hc        1 6KJ      0.081700
     24 H9          3.5840    0.9350   -4.4120 hc        1 6KJ      0.081700
     25 H10         3.5110    3.7150   -2.9440 h4        1 6KJ      0.026800
     26 H11         5.0930    3.4280   -0.5440 hn        1 6KJ      0.526400
     27 H12         8.0670    3.9620   -2.1740 hn        1 6KJ      0.461300
     28 H13         7.0110    6.0560   -5.9320 hc        1 6KJ      0.069922
     29 H14         8.4910    7.0880   -5.6900 hc        1 6KJ      0.069922
     30 H15         7.1040    7.1900   -4.5160 hc        1 6KJ      0.069922
     31 H16         8.5950    6.5090   -2.4750 hc        1 6KJ      0.069922
     32 H17         9.8400    5.2060   -2.7460 hc        1 6KJ      0.069922
     33 H18         9.9200    6.7440   -3.6890 hc        1 6KJ      0.069922
     34 H19         9.8110    4.9680   -5.8640 hc        1 6KJ      0.069922
     35 H20         8.3830    3.8520   -5.8540 hc        1 6KJ      0.069922
     36 H21         9.6830    3.6950   -4.5880 hc        1 6KJ      0.069922
     37 HN3        -0.0090    0.4380   -2.0100 hn        1 6KJ      0.456467
     38 HH13        7.7570    2.9020   -3.4630 hn        1 6KJ      0.461300
@<TRIPOS>BOND
     1    1    2 1   
     2    2    3 1   
     3    2    4 1   
     4    4    5 1   
     5    4    6 1   
     6    4   18 1   
     7    5   19 1   
     8    5   20 1   
     9    5   37 1   
    10    6    7 1   
    11    6   21 1   
    12    6   22 1   
    13    7    8 1   
    14    7   23 1   
    15    7   24 1   
    16    8    9 2   
    17    8   25 1   
    18    9   10 1   
    19   10   11 2   
    20   10   12 1   
    21   11   26 1   
    22   12   13 1   
    23   12   27 1   
    24   12   38 1   
    25   13   14 1   
    26   14   15 1   
    27   14   16 1   
    28   14   17 1   
    29   15   28 1   
    30   15   29 1   
    31   15   30 1   
    32   16   31 1   
    33   16   32 1   
    34   16   33 1   
    35   17   34 1   
    36   17   35 1   
    37   17   36 1   
@<TRIPOS>SUBSTRUCTURE
     1 6KJ         1 TEMP              0 ****  ****    0 ROOT
