@<TRIPOS>MOLECULE
6KV
   50    52     1     0     0
SMALL
bcc


@<TRIPOS>ATOM
      1 N1         -1.7810   -0.6930   -0.9310 n1        1 6KV     -0.232800
      2 C3         -0.9630   -0.9120   -0.1350 c1        1 6KV      0.150700
      3 C2          0.0290   -1.2040    0.8730 c3        1 6KV     -0.027300
      4 C1          1.3450   -0.5320    0.4660 c3        1 6KV      0.110800
      5 N           2.4220   -0.6790    1.5110 n4        1 6KV     -0.674100
      6 C           2.9850   -2.0600    1.5330 c3        1 6KV      0.086100
      7 C4          3.4960    0.3340    1.3010 ca        1 6KV      0.589200
      8 C9          3.7670    1.2740    2.3290 ca        1 6KV     -0.373700
      9 S           3.1420    1.5610    3.8380 ss        1 6KV      0.259500
     10 C8          4.1580    2.8540    4.1530 cc        1 6KV     -0.103400
     11 C7          5.0260    3.1380    3.1310 cd        1 6KV     -0.200800
     12 C6          4.8340    2.2280    2.0260 ca        1 6KV      0.469100
     13 N3          5.5170    2.2260    0.8570 nb        1 6KV     -0.566000
     14 C5          5.1530    1.2690   -0.0370 ca        1 6KV      0.725900
     15 N2          4.1640    0.3090    0.1320 nb        1 6KV     -0.681000
     16 N4          5.8750    1.2270   -1.3490 n4        1 6KV     -0.663100
     17 C10         5.7020    2.5090   -2.0840 c3        1 6KV      0.087100
     18 C11         7.3420    0.8230   -1.1610 c3        1 6KV      0.145500
     19 C16         8.2870    2.0060   -0.9540 c3        1 6KV     -0.106400
     20 C15         9.7120    1.4690   -0.7580 c3        1 6KV      0.173800
     21 N5         10.1450    0.6530   -1.8790 n3        1 6KV     -0.742600
     22 C14        11.5400    0.2760   -1.8150 c3        1 6KV      0.155100
     23 C13         9.2530   -0.4660   -2.1230 c3        1 6KV      0.173800
     24 C12         7.8070   -0.0110   -2.3610 c3        1 6KV     -0.106400
     25 H21C        0.1530   -2.3210    0.9540 hc        1 6KV      0.100700
     26 H22C       -0.3360   -0.8200    1.8680 hc        1 6KV      0.100700
     27 H11C        1.1700    0.5720    0.3060 hx        1 6KV      0.122700
     28 H12C        1.7270   -0.9830   -0.4950 hx        1 6KV      0.122700
     29 HC1         3.8100   -2.1150    2.2940 hx        1 6KV      0.118367
     30 HC2         2.1630   -2.7760    1.8120 hx        1 6KV      0.118367
     31 HC3         3.3870   -2.3280    0.5190 hx        1 6KV      0.118367
     32 H8          4.1080    3.4060    5.1030 h4        1 6KV      0.237000
     33 H7          5.7770    3.9400    3.1220 ha        1 6KV      0.223000
     34 H101        6.1380    3.3650   -1.5000 hx        1 6KV      0.116367
     35 H102        6.2400    2.4200   -3.0680 hx        1 6KV      0.116367
     36 H103        4.6090    2.6910   -2.2600 hx        1 6KV      0.116367
     37 H11         7.3620    0.1720   -0.2350 hx        1 6KV      0.095700
     38 H161        8.2750    2.6840   -1.8480 hc        1 6KV      0.076450
     39 H162        8.0080    2.6020   -0.0490 hc        1 6KV      0.076450
     40 H121        7.1720   -0.9260   -2.4890 hc        1 6KV      0.076450
     41 H122        7.7580    0.5950   -3.3040 hc        1 6KV      0.076450
     42 H151       10.4080    2.3530   -0.6800 h1        1 6KV      0.060700
     43 H152        9.7530    0.9080    0.2230 h1        1 6KV      0.060700
     44 H141       11.7740   -0.3940   -0.9430 h1        1 6KV      0.055700
     45 H142       12.1600    1.2080   -1.7340 h1        1 6KV      0.055700
     46 H143       11.8120   -0.2550   -2.7650 h1        1 6KV      0.055700
     47 H131        9.2570   -1.2110   -1.2730 h1        1 6KV      0.060700
     48 H132        9.6070   -0.9980   -3.0510 h1        1 6KV      0.060700
     49 HN1         2.0020   -0.4860    2.4330 hn        1 6KV      0.460800
     50 H41         5.4390    0.4810   -1.9200 hn        1 6KV      0.468800
@<TRIPOS>BOND
     1    1    2 3   
     2    2    3 1   
     3    3    4 1   
     4    3   25 1   
     5    3   26 1   
     6    4    5 1   
     7    4   27 1   
     8    4   28 1   
     9    5    6 1   
    10    5    7 1   
    11    5   49 1   
    12    6   29 1   
    13    6   30 1   
    14    6   31 1   
    15    7    8 ar  
    16    7   15 ar  
    17    8    9 1   
    18    8   12 ar  
    19    9   10 1   
    20   10   11 2   
    21   10   32 1   
    22   11   12 1   
    23   11   33 1   
    24   12   13 ar  
    25   13   14 ar  
    26   14   15 ar  
    27   14   16 1   
    28   16   17 1   
    29   16   18 1   
    30   16   50 1   
    31   17   34 1   
    32   17   35 1   
    33   17   36 1   
    34   18   19 1   
    35   18   24 1   
    36   18   37 1   
    37   19   20 1   
    38   19   38 1   
    39   19   39 1   
    40   20   21 1   
    41   20   42 1   
    42   20   43 1   
    43   21   22 1   
    44   21   23 1   
    45   22   44 1   
    46   22   45 1   
    47   22   46 1   
    48   23   24 1   
    49   23   47 1   
    50   23   48 1   
    51   24   40 1   
    52   24   41 1   
@<TRIPOS>SUBSTRUCTURE
     1 6KV         1 TEMP              0 ****  ****    0 ROOT
