@<TRIPOS>MOLECULE
6KV
   48    50     1     0     0
SMALL
bcc


@<TRIPOS>ATOM
      1 N1         -1.4180    0.7210   -1.8350 n1        1 6KV     -0.367800
      2 C3         -0.8620    0.3450   -0.8850 c1        1 6KV      0.209700
      3 C2         -0.1870   -0.1250    0.3040 c3        1 6KV     -0.030300
      4 C1          1.3350   -0.0720    0.0980 c3        1 6KV      0.186800
      5 N           2.0680   -0.3530    1.3260 nh        1 6KV     -0.740300
      6 C           1.8450   -1.6820    1.8560 c3        1 6KV      0.158100
      7 C4          3.4410    0.0540    1.3380 ca        1 6KV      0.723200
      8 C9          4.0810    0.2080    2.6070 ca        1 6KV     -0.385700
      9 S           3.5420   -0.0400    4.1760 ss        1 6KV      0.079500
     10 C8          5.0070    0.4170    4.8610 cc        1 6KV     -0.141400
     11 C7          5.9520    0.7810    3.9430 cd        1 6KV     -0.259800
     12 C6          5.4360    0.6750    2.5870 ca        1 6KV      0.497100
     13 N3          6.1140    0.9740    1.4570 nb        1 6KV     -0.735000
     14 C5          5.4130    0.8140    0.2790 ca        1 6KV      0.898900
     15 N2          4.1010    0.3280    0.1940 nb        1 6KV     -0.789000
     16 N4          6.0200    1.2300   -0.9320 nh        1 6KV     -0.733300
     17 C10         5.3480    0.8990   -2.1670 c3        1 6KV      0.192100
     18 C11         7.4790    1.3060   -0.9960 c3        1 6KV      0.208500
     19 C16         7.9570    2.5130   -1.8220 c3        1 6KV     -0.091900
     20 C15         9.4810    2.5990   -1.7660 c3        1 6KV      0.169800
     21 N5         10.1430    1.3820   -2.2180 n3        1 6KV     -0.734600
     22 C14        11.5840    1.4950   -2.1810 c3        1 6KV      0.158100
     23 C13         9.6640    0.1900   -1.5320 c3        1 6KV      0.169800
     24 C12         8.1450    0.0410   -1.5630 c3        1 6KV     -0.091900
     25 H21C       -0.5210   -1.1770    0.5170 hc        1 6KV      0.080200
     26 H22C       -0.4880    0.5180    1.1770 hc        1 6KV      0.080200
     27 H11C        1.6050    0.9670   -0.2450 h1        1 6KV      0.063200
     28 H12C        1.6110   -0.7940   -0.7240 h1        1 6KV      0.063200
     29 HC1         0.7670   -1.7580    2.1580 h1        1 6KV      0.046700
     30 HC2         2.0700   -2.4900    1.1080 h1        1 6KV      0.046700
     31 HC3         2.4820   -1.8450    2.7670 h1        1 6KV      0.046700
     32 H8          5.1520    0.4150    5.9420 h4        1 6KV      0.173000
     33 H7          6.9690    1.1150    4.1560 ha        1 6KV      0.171000
     34 H101        5.2280   -0.2100   -2.3040 h1        1 6KV      0.046033
     35 H102        5.9440    1.3020   -3.0280 h1        1 6KV      0.046033
     36 H103        4.3340    1.3790   -2.1820 h1        1 6KV      0.046033
     37 H11         7.8850    1.4610    0.0500 h1        1 6KV      0.094700
     38 H161        7.6260    2.4260   -2.8880 hc        1 6KV      0.053950
     39 H162        7.5320    3.4600   -1.4030 hc        1 6KV      0.053950
     40 H121        7.8670   -0.8530   -0.9490 hc        1 6KV      0.053950
     41 H122        7.8000   -0.1380   -2.6140 hc        1 6KV      0.053950
     42 H151        9.7870    2.8700   -0.7120 h1        1 6KV      0.033450
     43 H152        9.8150    3.4350   -2.4420 h1        1 6KV      0.033450
     44 H141       11.9950    1.6280   -1.1420 h1        1 6KV      0.031700
     45 H142       11.8930    2.3760   -2.8010 h1        1 6KV      0.031700
     46 H143       12.0300    0.5670   -2.6240 h1        1 6KV      0.031700
     47 H131       10.1210   -0.7010   -2.0470 h1        1 6KV      0.033450
     48 H132       10.0020    0.1700   -0.4530 h1        1 6KV      0.033450
@<TRIPOS>BOND
     1    1    2 3   
     2    2    3 1   
     3    3    4 1   
     4    3   25 1   
     5    3   26 1   
     6    4    5 1   
     7    4   27 1   
     8    4   28 1   
     9    5    6 1   
    10    5    7 1   
    11    6   29 1   
    12    6   30 1   
    13    6   31 1   
    14    7    8 ar  
    15    7   15 ar  
    16    8    9 1   
    17    8   12 ar  
    18    9   10 1   
    19   10   11 2   
    20   10   32 1   
    21   11   12 1   
    22   11   33 1   
    23   12   13 ar  
    24   13   14 ar  
    25   14   15 ar  
    26   14   16 1   
    27   16   17 1   
    28   16   18 1   
    29   17   34 1   
    30   17   35 1   
    31   17   36 1   
    32   18   19 1   
    33   18   24 1   
    34   18   37 1   
    35   19   20 1   
    36   19   38 1   
    37   19   39 1   
    38   20   21 1   
    39   20   42 1   
    40   20   43 1   
    41   21   22 1   
    42   21   23 1   
    43   22   44 1   
    44   22   45 1   
    45   22   46 1   
    46   23   24 1   
    47   23   47 1   
    48   23   48 1   
    49   24   40 1   
    50   24   41 1   
@<TRIPOS>SUBSTRUCTURE
     1 6KV         1 TEMP              0 ****  ****    0 ROOT
