@<TRIPOS>MOLECULE
6KZ
   68    70     1     0     0
SMALL
bcc


@<TRIPOS>ATOM
      1 C3         -1.6820    0.1370    1.4360 c3        1 6KZ      0.031000
      2 C2         -1.2820    1.4770    0.8000 c3        1 6KZ      0.114400
      3 O1          0.1290    1.6310    0.8050 os        1 6KZ     -0.363600
      4 C6          0.7670    0.6330    0.0310 c3        1 6KZ      0.114400
      5 C5          0.4810   -0.7770    0.5950 c3        1 6KZ      0.031000
      6 N4         -0.9330   -0.9970    0.8680 n         1 6KZ     -0.372800
      7 C7         -1.5280   -2.2120    0.9090 c         1 6KZ      0.642100
      8 O28        -2.7050   -2.4760    1.2260 o         1 6KZ     -0.600100
      9 N8         -0.7360   -3.4670    0.4850 n4        1 6KZ     -0.670800
     10 C9         -1.6410   -4.6540    0.2960 c3        1 6KZ      0.080500
     11 C27        -0.8820   -5.8830   -0.2240 c3        1 6KZ     -0.117400
     12 C31        -0.0990   -5.6370   -1.5070 c3        1 6KZ     -0.077700
     13 C33         0.4790   -6.9610   -1.9780 c3        1 6KZ     -0.106600
     14 C32        -0.9520   -5.0260   -2.5970 c3        1 6KZ     -0.106600
     15 C10        -2.2870   -5.0180    1.6470 c         1 6KZ      0.551100
     16 O29        -1.6410   -5.1520    2.6760 o         1 6KZ     -0.391100
     17 N11        -3.7680   -5.1550    1.6480 n4        1 6KZ     -0.647800
     18 C12        -4.3680   -5.7530    2.9100 c3        1 6KZ      0.136500
     19 C13        -5.4820   -4.8580    3.4620 c3        1 6KZ     -0.113400
     20 C14        -4.9900   -3.5050    3.9020 c3        1 6KZ     -0.122100
     21 C15        -4.9340   -7.1720    2.6330 c3        1 6KZ      0.114800
     22 O30        -5.7690   -7.0650    1.4940 oh        1 6KZ     -0.623800
     23 C16        -3.8300   -8.1580    2.3660 cc        1 6KZ      0.488300
     24 N20        -3.9280   -9.5220    2.7100 nc        1 6KZ     -0.681000
     25 N17        -2.6490   -7.8850    1.7520 nd        1 6KZ     -0.488300
     26 O18        -1.9730   -9.0070    1.6890 os        1 6KZ     -0.131100
     27 C19        -2.7660  -10.0490    2.2880 cd        1 6KZ      0.655900
     28 C21        -2.2190  -11.3810    2.3320 ca        1 6KZ     -0.211500
     29 C22        -0.9400  -11.6430    1.8090 ca        1 6KZ     -0.062000
     30 C23        -0.4250  -12.9330    1.8590 ca        1 6KZ     -0.134500
     31 C24        -1.1750  -13.9670    2.4280 ca        1 6KZ     -0.057000
     32 C25        -2.4440  -13.7090    2.9480 ca        1 6KZ     -0.134500
     33 C26        -2.9730  -12.4210    2.9040 ca        1 6KZ     -0.062000
     34 H15        -5.5220   -7.4960    3.5420 h1        1 6KZ      0.130700
     35 H31C       -1.4620    0.1680    2.5420 h1        1 6KZ      0.084700
     36 H32C       -2.7850   -0.0330    1.2820 h1        1 6KZ      0.084700
     37 H21C       -1.6860    1.5670   -0.2420 h1        1 6KZ      0.096450
     38 H22C       -1.6650    2.3180    1.4420 h1        1 6KZ      0.096450
     39 H61C        0.4440    0.6970   -1.0420 h1        1 6KZ      0.096450
     40 H62C        1.8660    0.8520    0.1260 h1        1 6KZ      0.096450
     41 H51C        1.0520   -0.9000    1.5620 h1        1 6KZ      0.084700
     42 H52C        0.8660   -1.5150   -0.1610 h1        1 6KZ      0.084700
     43 H8         -0.0350   -3.6820    1.2070 hn        1 6KZ      0.480300
     44 H9         -2.4220   -4.3430   -0.4650 hx        1 6KZ      0.139700
     45 H271       -1.6520   -6.6810   -0.4200 hc        1 6KZ      0.110700
     46 H272       -0.1930   -6.2740    0.5730 hc        1 6KZ      0.110700
     47 H31         0.7700   -4.9520   -1.2900 hc        1 6KZ      0.034700
     48 H331       -0.3380   -7.6690   -2.2630 hc        1 6KZ      0.058200
     49 H332        1.1270   -6.7940   -2.8730 hc        1 6KZ      0.058200
     50 H333        1.0970   -7.4290   -1.1750 hc        1 6KZ      0.058200
     51 H321       -1.8670   -5.6400   -2.7780 hc        1 6KZ      0.058200
     52 H322       -1.2630   -3.9840   -2.3400 hc        1 6KZ      0.058200
     53 H323       -0.3730   -4.9850   -3.5540 hc        1 6KZ      0.058200
     54 H11        -4.0590   -5.7360    0.8450 hn        1 6KZ      0.489800
     55 H12        -3.5430   -5.8440    3.6820 hx        1 6KZ      0.139700
     56 H131       -5.9160   -5.3970    4.3510 hc        1 6KZ      0.099700
     57 H132       -6.3080   -4.7610    2.7060 hc        1 6KZ      0.099700
     58 H141       -5.8230   -2.9600    4.4170 hc        1 6KZ      0.059367
     59 H142       -4.1440   -3.6010    4.6260 hc        1 6KZ      0.059367
     60 H143       -4.6580   -2.8730    3.0430 hc        1 6KZ      0.059367
     61 H30        -6.2850   -7.8830    1.4240 ho        1 6KZ      0.471000
     62 H22        -0.3500  -10.8270    1.3630 ha        1 6KZ      0.151000
     63 H26        -3.9750  -12.2240    3.3170 ha        1 6KZ      0.151000
     64 H23         0.5770  -13.1410    1.4510 ha        1 6KZ      0.161000
     65 H24        -0.7610  -14.9890    2.4660 ha        1 6KZ      0.163000
     66 H25        -3.0330  -14.5260    3.3960 ha        1 6KZ      0.161000
     67 H82        -0.2500   -3.3070   -0.4110 hn        1 6KZ      0.480300
     68 H112       -4.1600   -4.2040    1.5220 hn        1 6KZ      0.489800
@<TRIPOS>BOND
     1    1    2 1   
     2    1    6 1   
     3    1   35 1   
     4    1   36 1   
     5    2    3 1   
     6    2   37 1   
     7    2   38 1   
     8    3    4 1   
     9    4    5 1   
    10    4   39 1   
    11    4   40 1   
    12    5    6 1   
    13    5   41 1   
    14    5   42 1   
    15    6    7 1   
    16    7    8 2   
    17    7    9 1   
    18    9   10 1   
    19    9   43 1   
    20    9   67 1   
    21   10   11 1   
    22   10   15 1   
    23   10   44 1   
    24   11   12 1   
    25   11   45 1   
    26   11   46 1   
    27   12   13 1   
    28   12   14 1   
    29   12   47 1   
    30   13   48 1   
    31   13   49 1   
    32   13   50 1   
    33   14   51 1   
    34   14   52 1   
    35   14   53 1   
    36   15   16 2   
    37   15   17 1   
    38   17   18 1   
    39   17   54 1   
    40   17   68 1   
    41   18   19 1   
    42   18   21 1   
    43   18   55 1   
    44   19   20 1   
    45   19   56 1   
    46   19   57 1   
    47   20   58 1   
    48   20   59 1   
    49   20   60 1   
    50   21   22 1   
    51   21   23 1   
    52   21   34 1   
    53   22   61 1   
    54   23   24 1   
    55   23   25 2   
    56   24   27 2   
    57   25   26 1   
    58   26   27 1   
    59   27   28 1   
    60   28   29 ar  
    61   28   33 ar  
    62   29   30 ar  
    63   29   62 1   
    64   30   31 ar  
    65   30   64 1   
    66   31   32 ar  
    67   31   65 1   
    68   32   33 ar  
    69   32   66 1   
    70   33   63 1   
@<TRIPOS>SUBSTRUCTURE
     1 6KZ         1 TEMP              0 ****  ****    0 ROOT
