@<TRIPOS>MOLECULE
6KZ
   68    70     1     0     0
SMALL
bcc


@<TRIPOS>ATOM
      1 C3         -1.7550    0.1370    1.4850 c3        1 6KZ      0.031000
      2 C2         -1.3470    1.4860    0.8750 c3        1 6KZ      0.114400
      3 O1          0.0620    1.6550    0.9310 os        1 6KZ     -0.363600
      4 C6          0.7370    0.6690    0.1730 c3        1 6KZ      0.114400
      5 C5          0.4460   -0.7470    0.7150 c3        1 6KZ      0.031000
      6 N4         -0.9740   -0.9840    0.9360 n         1 6KZ     -0.372800
      7 C7         -1.5570   -2.2060    0.9460 c         1 6KZ      0.642100
      8 O28        -2.7420   -2.4850    1.2200 o         1 6KZ     -0.600100
      9 N8         -0.7370   -3.4490    0.5420 ny        1 6KZ     -0.670800
     10 C9         -1.6220   -4.6450    0.3130 c3        1 6KZ      0.080500
     11 C27        -0.8310   -5.8610   -0.1880 c3        1 6KZ     -0.117400
     12 C31        -0.0070   -5.5980   -1.4410 c3        1 6KZ     -0.077700
     13 C33         0.6020   -6.9130   -1.9010 c3        1 6KZ     -0.106600
     14 C32        -0.8280   -4.9880   -2.5560 c3        1 6KZ     -0.106600
     15 C10        -2.3110   -5.0250    1.6380 c         1 6KZ      0.551100
     16 O29        -1.7010   -5.1590    2.6890 o         1 6KZ     -0.391100
     17 N11        -3.7890   -5.1780    1.5860 ny        1 6KZ     -0.647800
     18 C12        -4.4270   -5.7910    2.8220 c3        1 6KZ      0.136500
     19 C13        -5.5700   -4.9120    3.3390 c3        1 6KZ     -0.113400
     20 C14        -5.1100   -3.5570    3.8050 c3        1 6KZ     -0.122100
     21 C15        -4.9660   -7.2140    2.5160 c3        1 6KZ      0.114800
     22 O30        -5.7610   -7.1090    1.3490 oh        1 6KZ     -0.623800
     23 C16        -3.8430   -8.1860    2.2830 cc        1 6KZ      0.488300
     24 N20        -3.9370   -9.5530    2.6160 nc        1 6KZ     -0.681000
     25 N17        -2.6440   -7.8960    1.7120 nd        1 6KZ     -0.488300
     26 O18        -1.9540   -9.0100    1.6670 os        1 6KZ     -0.131100
     27 C19        -2.7550  -10.0640    2.2320 cd        1 6KZ      0.655900
     28 C21        -2.1940  -11.3900    2.2880 ca        1 6KZ     -0.211500
     29 C22        -0.8950  -11.6340    1.8090 ca        1 6KZ     -0.062000
     30 C23        -0.3670  -12.9190    1.8710 ca        1 6KZ     -0.134500
     31 C24        -1.1240  -13.9650    2.4080 ca        1 6KZ     -0.057000
     32 C25        -2.4140  -13.7240    2.8840 ca        1 6KZ     -0.134500
     33 C26        -2.9550  -12.4420    2.8280 ca        1 6KZ     -0.062000
     34 H15        -5.5830   -7.5510    3.4010 h1        1 6KZ      0.130700
     35 H31C       -2.8500   -0.0430    1.2900 h1        1 6KZ      0.084700
     36 H32C       -1.5750    0.1620    2.5990 h1        1 6KZ      0.084700
     37 H21C       -1.7610    2.3190    1.5090 h1        1 6KZ      0.096450
     38 H22C       -1.7140    1.5810   -0.1800 h1        1 6KZ      0.096450
     39 H61C        0.4520    0.7400   -0.9100 h1        1 6KZ      0.096450
     40 H62C        1.8300    0.8990    0.3090 h1        1 6KZ      0.096450
     41 H51C        0.9840   -0.8730    1.7010 h1        1 6KZ      0.084700
     42 H52C        0.8660   -1.4750   -0.0320 h1        1 6KZ      0.084700
     43 H8         -0.0590   -3.6620    1.2870 hn        1 6KZ      0.480300
     44 H9         -2.3790   -4.3360   -0.4730 hx        1 6KZ      0.139700
     45 H271       -0.1670   -6.2510    0.6300 hc        1 6KZ      0.110700
     46 H272       -1.5860   -6.6660   -0.4160 hc        1 6KZ      0.110700
     47 H31         0.8470   -4.9050   -1.1890 hc        1 6KZ      0.034700
     48 H331        1.2790   -6.7320   -2.7710 hc        1 6KZ      0.058200
     49 H332        1.1960   -7.3800   -1.0790 hc        1 6KZ      0.058200
     50 H333       -0.1960   -7.6270   -2.2180 hc        1 6KZ      0.058200
     51 H321       -0.2160   -4.9340   -3.4920 hc        1 6KZ      0.058200
     52 H322       -1.7290   -5.6110   -2.7740 hc        1 6KZ      0.058200
     53 H323       -1.1590   -3.9520   -2.3030 hc        1 6KZ      0.058200
     54 H11        -4.1870   -4.2310    1.4510 hn        1 6KZ      0.489800
     55 H12        -3.6290   -5.8780    3.6220 hx        1 6KZ      0.139700
     56 H131       -6.3700   -4.8190    2.5550 hc        1 6KZ      0.099700
     57 H132       -6.0290   -5.4620    4.2080 hc        1 6KZ      0.099700
     58 H141       -5.9670   -3.0250    4.2930 hc        1 6KZ      0.059367
     59 H142       -4.2890   -3.6480    4.5580 hc        1 6KZ      0.059367
     60 H143       -4.7540   -2.9150    2.9620 hc        1 6KZ      0.059367
     61 H30        -6.2660   -7.9320    1.2550 ho        1 6KZ      0.471000
     62 H22        -0.2990  -10.8100    1.3890 ha        1 6KZ      0.151000
     63 H26        -3.9740  -12.2580    3.2070 ha        1 6KZ      0.151000
     64 H23         0.6510  -13.1140    1.4970 ha        1 6KZ      0.161000
     65 H24        -0.7000  -14.9820    2.4540 ha        1 6KZ      0.163000
     66 H25        -3.0080  -14.5500    3.3070 ha        1 6KZ      0.161000
     67 H82        -0.2220   -3.2770   -0.3350 hn        1 6KZ      0.480300
     68 H112       -4.0460   -5.7570    0.7690 hn        1 6KZ      0.489800
@<TRIPOS>BOND
     1    1    2 1   
     2    1    6 1   
     3    1   35 1   
     4    1   36 1   
     5    2    3 1   
     6    2   37 1   
     7    2   38 1   
     8    3    4 1   
     9    4    5 1   
    10    4   39 1   
    11    4   40 1   
    12    5    6 1   
    13    5   41 1   
    14    5   42 1   
    15    6    7 1   
    16    7    8 2   
    17    7    9 1   
    18    9   10 1   
    19    9   43 1   
    20    9   67 1   
    21   10   11 1   
    22   10   15 1   
    23   10   44 1   
    24   11   12 1   
    25   11   45 1   
    26   11   46 1   
    27   12   13 1   
    28   12   14 1   
    29   12   47 1   
    30   13   48 1   
    31   13   49 1   
    32   13   50 1   
    33   14   51 1   
    34   14   52 1   
    35   14   53 1   
    36   15   16 2   
    37   15   17 1   
    38   17   18 1   
    39   17   54 1   
    40   17   68 1   
    41   18   19 1   
    42   18   21 1   
    43   18   55 1   
    44   19   20 1   
    45   19   56 1   
    46   19   57 1   
    47   20   58 1   
    48   20   59 1   
    49   20   60 1   
    50   21   22 1   
    51   21   23 1   
    52   21   34 1   
    53   22   61 1   
    54   23   24 1   
    55   23   25 2   
    56   24   27 2   
    57   25   26 1   
    58   26   27 1   
    59   27   28 1   
    60   28   29 ar  
    61   28   33 ar  
    62   29   30 ar  
    63   29   62 1   
    64   30   31 ar  
    65   30   64 1   
    66   31   32 ar  
    67   31   65 1   
    68   32   33 ar  
    69   32   66 1   
    70   33   63 1   
@<TRIPOS>SUBSTRUCTURE
     1 6KZ         1 TEMP              0 ****  ****    0 ROOT
