@<TRIPOS>MOLECULE
6LQ
   73    77     1     0     0
SMALL
bcc


@<TRIPOS>ATOM
      1 C1         -0.9530   -0.3850   -0.8590 c3        1 6LQ      0.159100
      2 N2          0.4680   -0.1370   -0.9070 n3        1 6LQ     -0.730600
      3 C3          1.0460    0.1270    0.3990 c3        1 6LQ      0.160800
      4 C4          2.5630    0.4020    0.3360 c3        1 6LQ      0.218300
      5 N5          3.2920   -0.5880   -0.4230 n3        1 6LQ     -0.827500
      6 C6          2.7130   -0.8620   -1.7180 c3        1 6LQ      0.218300
      7 C7          1.1970   -1.1440   -1.6590 c3        1 6LQ      0.160800
      8 S8          4.6500   -1.2680    0.0920 sy        1 6LQ      1.494200
      9 O9          5.3740   -1.8250   -0.9740 o         1 6LQ     -0.630300
     10 O10         5.3320   -0.4360    1.0020 o         1 6LQ     -0.630300
     11 C11         4.1030   -2.6210    1.0450 ca        1 6LQ     -0.279500
     12 C12         3.2920   -3.6250    0.5150 ca        1 6LQ     -0.021500
     13 C13         2.9660   -4.7550    1.2650 ca        1 6LQ     -0.122000
     14 C14         3.4550   -4.8940    2.5730 cp        1 6LQ     -0.066000
     15 C15         4.2530   -3.8750    3.1180 ca        1 6LQ     -0.122000
     16 C16         4.5680   -2.7530    2.3570 ca        1 6LQ     -0.021500
     17 C17         3.1640   -6.0900    3.3470 cp        1 6LQ     -0.050300
     18 C18         3.0070   -6.0540    4.7400 ca        1 6LQ     -0.075000
     19 C19         2.7480   -7.2290    5.4620 ca        1 6LQ     -0.227900
     20 C20         2.6720   -8.4370    4.7180 ca        1 6LQ      0.482200
     21 N21         2.8090   -8.4940    3.3650 nb        1 6LQ     -0.633000
     22 C22         3.0480   -7.3560    2.7070 ca        1 6LQ      0.463200
     23 N23         2.4360   -9.7320    5.3880 n4        1 6LQ     -0.822300
     24 C24         2.5830   -7.2250    6.9460 c         1 6LQ      0.666700
     25 O25         2.8910   -8.2390    7.6140 o         1 6LQ     -0.623100
     26 N26         2.1480   -6.0580    7.5680 n         1 6LQ     -0.442100
     27 C27         1.4830   -6.0920    8.8230 ca        1 6LQ     -0.106700
     28 C28         0.0740   -5.8560    8.8630 ca        1 6LQ      0.399200
     29 N29        -0.6500   -5.8530    9.9900 nb        1 6LQ     -0.596000
     30 C30        -0.0130   -6.0900   11.1520 ca        1 6LQ      0.435200
     31 C31         1.3730   -6.3160   11.2290 ca        1 6LQ     -0.217300
     32 C32         2.1390   -6.3110   10.0560 ca        1 6LQ     -0.094300
     33 C33         3.6040   -6.5890   10.1670 c3        1 6LQ      0.161100
     34 N34         4.4340   -5.3430   10.1790 n4        1 6LQ     -0.690400
     35 C35         5.9090   -5.6550   10.0980 c3        1 6LQ      0.113300
     36 C36         6.6520   -4.6430   10.9720 c3        1 6LQ     -0.102900
     37 C37         5.6060   -3.9460   11.8310 c3        1 6LQ     -0.102900
     38 C38         4.2420   -4.5010   11.4180 c3        1 6LQ      0.113300
     39 H11C       -1.4550    0.4870   -0.3630 h1        1 6LQ      0.039700
     40 H12C       -1.2210   -1.3210   -0.2950 h1        1 6LQ      0.039700
     41 H13C       -1.3400   -0.4740   -1.9080 h1        1 6LQ      0.039700
     42 H31C        0.8580   -0.7220    1.1210 h1        1 6LQ      0.037200
     43 H32C        0.5500    1.0490    0.8150 h1        1 6LQ      0.037200
     44 H71C        0.8070   -1.1360   -2.7150 h1        1 6LQ      0.037200
     45 H72C        1.0360   -2.1810   -1.2380 h1        1 6LQ      0.037200
     46 H41C        2.9660    0.4360    1.3870 h1        1 6LQ      0.070700
     47 H42C        2.7260    1.4150   -0.1370 h1        1 6LQ      0.070700
     48 H61C        3.2270   -1.7540   -2.1780 h1        1 6LQ      0.070700
     49 H62C        2.8870    0.0300   -2.3900 h1        1 6LQ      0.070700
     50 H12         2.9100   -3.5360   -0.5180 ha        1 6LQ      0.172500
     51 H16         5.2080   -1.9580    2.7880 ha        1 6LQ      0.172500
     52 H13         2.3200   -5.5300    0.8250 ha        1 6LQ      0.135000
     53 H15         4.6600   -3.9710    4.1350 ha        1 6LQ      0.135000
     54 H18         3.1040   -5.0830    5.2550 ha        1 6LQ      0.171000
     55 H22         3.1670   -7.4580    1.6060 h4        1 6LQ      0.086100
     56 H231        1.4610   -9.7760    5.7030 hn        1 6LQ      0.484133
     57 H232        3.0590   -9.7980    6.2100 hn        1 6LQ      0.484133
     58 H26         4.1720   -4.7770    9.3660 hn        1 6LQ      0.443800
     59 H28        -0.5000   -5.6530    7.9370 h4        1 6LQ      0.047100
     60 H30        -0.6490   -6.0970   12.0620 h4        1 6LQ      0.071100
     61 H31         1.8390   -6.5100   12.2070 ha        1 6LQ      0.166000
     62 H331        3.9510   -7.2280    9.3010 hx        1 6LQ      0.119200
     63 H332        3.8180   -7.1560   11.1220 hx        1 6LQ      0.119200
     64 H351        6.0800   -6.7020   10.4740 hx        1 6LQ      0.103950
     65 H352        6.2320   -5.5980    9.0240 hx        1 6LQ      0.103950
     66 H381        3.8080   -5.1470   12.2310 hx        1 6LQ      0.103950
     67 H382        3.5110   -3.6790   11.1870 hx        1 6LQ      0.103950
     68 H361        7.4110   -5.1710   11.6050 hc        1 6LQ      0.100950
     69 H362        7.2040   -3.9040   10.3340 hc        1 6LQ      0.100950
     70 H371        5.7820   -4.1400   12.9200 hc        1 6LQ      0.100950
     71 H372        5.6390   -2.8360   11.6800 hc        1 6LQ      0.100950
     72 H233        2.6200  -10.5170    4.7460 hn        1 6LQ      0.484133
     73 H262        1.7920   -5.3460    6.9580 hn        1 6LQ      0.329500
@<TRIPOS>BOND
     1    1    2 1   
     2    1   39 1   
     3    1   40 1   
     4    1   41 1   
     5    2    3 1   
     6    2    7 1   
     7    3    4 1   
     8    3   42 1   
     9    3   43 1   
    10    4    5 1   
    11    4   46 1   
    12    4   47 1   
    13    5    6 1   
    14    5    8 1   
    15    6    7 1   
    16    6   48 1   
    17    6   49 1   
    18    7   44 1   
    19    7   45 1   
    20    8    9 2   
    21    8   10 2   
    22    8   11 1   
    23   11   12 ar  
    24   11   16 ar  
    25   12   13 ar  
    26   12   50 1   
    27   13   14 ar  
    28   13   52 1   
    29   14   15 ar  
    30   14   17 1   
    31   15   16 ar  
    32   15   53 1   
    33   16   51 1   
    34   17   18 ar  
    35   17   22 ar  
    36   18   19 ar  
    37   18   54 1   
    38   19   20 ar  
    39   19   24 1   
    40   20   21 ar  
    41   20   23 1   
    42   21   22 ar  
    43   22   55 1   
    44   23   56 1   
    45   23   57 1   
    46   23   72 1   
    47   24   25 2   
    48   24   26 1   
    49   26   27 1   
    50   26   73 1   
    51   27   28 ar  
    52   27   32 ar  
    53   28   29 ar  
    54   28   59 1   
    55   29   30 ar  
    56   30   31 ar  
    57   30   60 1   
    58   31   32 ar  
    59   31   61 1   
    60   32   33 1   
    61   33   34 1   
    62   33   62 1   
    63   33   63 1   
    64   34   35 1   
    65   34   38 1   
    66   34   58 1   
    67   35   36 1   
    68   35   64 1   
    69   35   65 1   
    70   36   37 1   
    71   36   68 1   
    72   36   69 1   
    73   37   38 1   
    74   37   70 1   
    75   37   71 1   
    76   38   66 1   
    77   38   67 1   
@<TRIPOS>SUBSTRUCTURE
     1 6LQ         1 TEMP              0 ****  ****    0 ROOT
