@<TRIPOS>MOLECULE
6LQ
   71    75     1     0     0
SMALL
bcc


@<TRIPOS>ATOM
      1 C1         -0.2480   -0.3220    1.2480 c3        1 6LQ      0.156100
      2 N2          1.1430   -0.1270    0.9090 n3        1 6LQ     -0.728600
      3 C3          2.0020   -0.0960    2.0830 c3        1 6LQ      0.152800
      4 C4          3.4960    0.0720    1.7310 c3        1 6LQ      0.227300
      5 N5          3.9520   -0.8410    0.7150 n3        1 6LQ     -0.814500
      6 C6          3.1010   -0.8920   -0.4450 c3        1 6LQ      0.227300
      7 C7          1.6050   -1.0640   -0.1050 c3        1 6LQ      0.152800
      8 S8          5.2770   -1.7670    0.8850 sy        1 6LQ      1.508200
      9 O9          5.7700   -2.1250   -0.3890 o         1 6LQ     -0.651300
     10 O10         6.1810   -1.1420    1.7740 o         1 6LQ     -0.651300
     11 C11         4.6950   -3.1660    1.6350 ca        1 6LQ     -0.384500
     12 C12         4.2040   -4.2370    0.8780 ca        1 6LQ     -0.012500
     13 C13         3.7510   -5.4010    1.4880 ca        1 6LQ     -0.159000
     14 C14         3.7830   -5.5260    2.8860 cp        1 6LQ      0.052000
     15 C15         4.2840   -4.4600    3.6510 ca        1 6LQ     -0.159000
     16 C16         4.7310   -3.3000    3.0280 ca        1 6LQ     -0.012500
     17 C17         3.3090   -6.7400    3.5320 cp        1 6LQ     -0.253300
     18 C18         2.6610   -6.7110    4.7700 ca        1 6LQ     -0.002000
     19 C19         2.2210   -7.8950    5.3640 ca        1 6LQ     -0.350900
     20 C20         2.4340   -9.1400    4.6750 ca        1 6LQ      0.726200
     21 N21         3.0760   -9.1630    3.4470 nb        1 6LQ     -0.741000
     22 C22         3.4870   -8.0100    2.9270 ca        1 6LQ      0.492200
     23 N23         2.0690  -10.3380    5.2430 nh        1 6LQ     -0.941500
     24 C24         1.5120   -7.8670    6.6720 c         1 6LQ      0.697700
     25 O25         0.5000   -8.5670    6.8850 o         1 6LQ     -0.614100
     26 N26         2.0620   -7.0300    7.6330 n         1 6LQ     -0.453100
     27 C27         1.5670   -6.7710    8.9150 ca        1 6LQ     -0.023700
     28 C28         0.2810   -7.2170    9.3510 ca        1 6LQ      0.370200
     29 N29        -0.2180   -6.9690   10.5690 nb        1 6LQ     -0.641000
     30 C30         0.5340   -6.2580   11.4310 ca        1 6LQ      0.363200
     31 C31         1.8090   -5.7720   11.1090 ca        1 6LQ     -0.220300
     32 C32         2.3450   -6.0290    9.8440 ca        1 6LQ     -0.103300
     33 C33         3.7320   -5.5450    9.5350 c3        1 6LQ      0.200100
     34 N34         3.7860   -4.5520    8.4670 n3        1 6LQ     -0.734600
     35 C35         5.1590   -4.1710    8.1140 c3        1 6LQ      0.152300
     36 C36         5.3540   -2.6630    8.3440 c3        1 6LQ     -0.098400
     37 C37         3.9930   -2.1210    8.7580 c3        1 6LQ     -0.098400
     38 C38         3.0360   -3.3250    8.7510 c3        1 6LQ      0.152300
     39 H11C       -0.4560   -1.3190    1.7260 h1        1 6LQ      0.034700
     40 H12C       -0.5630    0.4870    1.9570 h1        1 6LQ      0.034700
     41 H13C       -0.8610   -0.2420    0.3120 h1        1 6LQ      0.034700
     42 H31C        1.6960    0.7910    2.7060 h1        1 6LQ      0.037950
     43 H32C        1.8780   -1.0220    2.7170 h1        1 6LQ      0.037950
     44 H71C        1.0160   -0.8690   -1.0440 h1        1 6LQ      0.037950
     45 H72C        1.4210   -2.1350    0.2020 h1        1 6LQ      0.037950
     46 H41C        4.1010   -0.0840    2.6690 h1        1 6LQ      0.060200
     47 H42C        3.6650    1.1290    1.3750 h1        1 6LQ      0.060200
     48 H61C        3.2290    0.0620   -1.0340 h1        1 6LQ      0.060200
     49 H62C        3.4170   -1.7540   -1.1000 h1        1 6LQ      0.060200
     50 H12         4.1930   -4.1560   -0.2240 ha        1 6LQ      0.151500
     51 H16         5.1410   -2.4740    3.6360 ha        1 6LQ      0.151500
     52 H13         3.3590   -6.2240    0.8710 ha        1 6LQ      0.142000
     53 H15         4.3350   -4.5470    4.7470 ha        1 6LQ      0.142000
     54 H18         2.4790   -5.7400    5.2630 ha        1 6LQ      0.151000
     55 H22         4.0030   -8.0950    1.9500 h4        1 6LQ      0.031100
     56 H231        1.3980  -10.3160    5.9780 hn        1 6LQ      0.447300
     57 H232        2.1240  -11.1650    4.6960 hn        1 6LQ      0.447300
     58 H26         2.8960   -6.5440    7.3760 hn        1 6LQ      0.341500
     59 H28        -0.3760   -7.8070    8.6820 h4        1 6LQ      0.062100
     60 H30         0.0880   -6.0740   12.4240 h4        1 6LQ      0.024100
     61 H31         2.3830   -5.1970   11.8490 ha        1 6LQ      0.142000
     62 H331        4.1970   -5.1570   10.4900 h1        1 6LQ      0.045200
     63 H332        4.3550   -6.4270    9.2030 h1        1 6LQ      0.045200
     64 H351        5.2890   -4.4150    7.0240 h1        1 6LQ      0.048950
     65 H352        5.9250   -4.7560    8.6900 h1        1 6LQ      0.048950
     66 H381        2.4790   -3.3930    9.7250 h1        1 6LQ      0.048950
     67 H382        2.2780   -3.2090    7.9290 h1        1 6LQ      0.048950
     68 H361        6.1170   -2.4850    9.1410 hc        1 6LQ      0.050450
     69 H362        5.7190   -2.1720    7.4100 hc        1 6LQ      0.050450
     70 H371        4.0370   -1.6620    9.7760 hc        1 6LQ      0.050450
     71 H372        3.6360   -1.3370    8.0470 hc        1 6LQ      0.050450
@<TRIPOS>BOND
     1    1    2 1   
     2    1   39 1   
     3    1   40 1   
     4    1   41 1   
     5    2    3 1   
     6    2    7 1   
     7    3    4 1   
     8    3   42 1   
     9    3   43 1   
    10    4    5 1   
    11    4   46 1   
    12    4   47 1   
    13    5    6 1   
    14    5    8 1   
    15    6    7 1   
    16    6   48 1   
    17    6   49 1   
    18    7   44 1   
    19    7   45 1   
    20    8    9 2   
    21    8   10 2   
    22    8   11 1   
    23   11   12 ar  
    24   11   16 ar  
    25   12   13 ar  
    26   12   50 1   
    27   13   14 ar  
    28   13   52 1   
    29   14   15 ar  
    30   14   17 1   
    31   15   16 ar  
    32   15   53 1   
    33   16   51 1   
    34   17   18 ar  
    35   17   22 ar  
    36   18   19 ar  
    37   18   54 1   
    38   19   20 ar  
    39   19   24 1   
    40   20   21 ar  
    41   20   23 1   
    42   21   22 ar  
    43   22   55 1   
    44   23   56 1   
    45   23   57 1   
    46   24   25 2   
    47   24   26 1   
    48   26   27 1   
    49   26   58 1   
    50   27   28 ar  
    51   27   32 ar  
    52   28   29 ar  
    53   28   59 1   
    54   29   30 ar  
    55   30   31 ar  
    56   30   60 1   
    57   31   32 ar  
    58   31   61 1   
    59   32   33 1   
    60   33   34 1   
    61   33   62 1   
    62   33   63 1   
    63   34   35 1   
    64   34   38 1   
    65   35   36 1   
    66   35   64 1   
    67   35   65 1   
    68   36   37 1   
    69   36   68 1   
    70   36   69 1   
    71   37   38 1   
    72   37   70 1   
    73   37   71 1   
    74   38   66 1   
    75   38   67 1   
@<TRIPOS>SUBSTRUCTURE
     1 6LQ         1 TEMP              0 ****  ****    0 ROOT
