@<TRIPOS>MOLECULE
6LQ
   71    75     1     0     0
SMALL
bcc


@<TRIPOS>ATOM
      1 C1          0.3060   -0.7690   -1.2430 c3        1 6LQ      0.156100
      2 N2          1.5930   -0.3440   -0.7410 n3        1 6LQ     -0.728600
      3 C3          1.5580   -0.0280    0.6800 c3        1 6LQ      0.152800
      4 C4          2.9350    0.3900    1.2360 c3        1 6LQ      0.227300
      5 N5          3.9980   -0.5140    0.8790 n3        1 6LQ     -0.814500
      6 C6          4.0320   -0.8470   -0.5220 c3        1 6LQ      0.227300
      7 C7          2.6590   -1.2710   -1.0870 c3        1 6LQ      0.152800
      8 S8          5.0290   -1.1430    1.9650 sy        1 6LQ      1.508200
      9 O9          6.2280   -1.5210    1.3170 o         1 6LQ     -0.651800
     10 O10         5.1440   -0.2710    3.0710 o         1 6LQ     -0.651800
     11 C11         4.2540   -2.5500    2.4920 ca        1 6LQ     -0.386500
     12 C12         4.4990   -3.7810    1.8730 ca        1 6LQ     -0.014000
     13 C13         3.8940   -4.9470    2.3290 ca        1 6LQ     -0.158500
     14 C14         3.0220   -4.9090    3.4290 cp        1 6LQ      0.052000
     15 C15         2.7740   -3.6770    4.0550 ca        1 6LQ     -0.158500
     16 C16         3.3850   -2.5190    3.5890 ca        1 6LQ     -0.014000
     17 C17         2.3910   -6.1250    3.9150 cp        1 6LQ     -0.255300
     18 C18         2.1820   -6.3540    5.2790 ca        1 6LQ     -0.003000
     19 C19         1.5730   -7.5330    5.7080 ca        1 6LQ     -0.348900
     20 C20         1.1530   -8.4980    4.7260 ca        1 6LQ      0.725200
     21 N21         1.3570   -8.2640    3.3770 nb        1 6LQ     -0.742000
     22 C22         1.9550   -7.1310    3.0170 ca        1 6LQ      0.490200
     23 N23         0.6000   -9.7000    5.1040 nv        1 6LQ     -0.941500
     24 C24         1.3200   -7.7700    7.1550 c         1 6LQ      0.696700
     25 O25         0.2370   -8.2410    7.5610 o         1 6LQ     -0.615100
     26 N26         2.3730   -7.4690    8.0090 ns        1 6LQ     -0.445100
     27 C27         2.3210   -7.4200    9.4070 ca        1 6LQ     -0.029700
     28 C28         1.3190   -8.1080   10.1600 ca        1 6LQ      0.375200
     29 N29         1.2630   -8.1100   11.4980 nb        1 6LQ     -0.643000
     30 C30         2.2070   -7.4240   12.1720 ca        1 6LQ      0.365200
     31 C31         3.2330   -6.7120   11.5370 ca        1 6LQ     -0.221300
     32 C32         3.3030   -6.7040   10.1400 ca        1 6LQ     -0.101300
     33 C33         4.4380   -5.9750    9.4800 c3        1 6LQ      0.199100
     34 N34         4.0160   -4.9200    8.5660 n3        1 6LQ     -0.733600
     35 C35         5.1450   -4.2830    7.8780 c3        1 6LQ      0.150800
     36 C36         5.1780   -2.7830    8.2110 c3        1 6LQ     -0.098400
     37 C37         3.9470   -2.5140    9.0660 c3        1 6LQ     -0.098400
     38 C38         3.2200   -3.8620    9.1980 c3        1 6LQ      0.150800
     39 H11C        0.3800   -0.9040   -2.3540 h1        1 6LQ      0.034367
     40 H12C       -0.4490    0.0310   -1.0250 h1        1 6LQ      0.034367
     41 H13C       -0.0540   -1.7340   -0.7890 h1        1 6LQ      0.034367
     42 H31C        0.8550    0.8410    0.8190 h1        1 6LQ      0.038450
     43 H32C        1.1640   -0.8920    1.2900 h1        1 6LQ      0.038450
     44 H71C        2.4300   -2.3210   -0.7400 h1        1 6LQ      0.038450
     45 H72C        2.7440   -1.2900   -2.2100 h1        1 6LQ      0.038450
     46 H41C        3.1840    1.4190    0.8460 h1        1 6LQ      0.060450
     47 H42C        2.8610    0.4500    2.3600 h1        1 6LQ      0.060450
     48 H61C        4.7600   -1.6920   -0.6860 h1        1 6LQ      0.060450
     49 H62C        4.3980    0.0500   -1.1010 h1        1 6LQ      0.060450
     50 H12         5.2020   -3.8250    1.0220 ha        1 6LQ      0.152000
     51 H16         3.1970   -1.5570    4.0990 ha        1 6LQ      0.152000
     52 H13         4.1120   -5.9070    1.8350 ha        1 6LQ      0.143000
     53 H15         2.0910   -3.6280    4.9170 ha        1 6LQ      0.143000
     54 H18         2.5010   -5.5910    6.0120 ha        1 6LQ      0.158000
     55 H22         2.0870   -6.9980    1.9250 h4        1 6LQ      0.028100
     56 H231        0.2180   -9.7660    6.0210 hn        1 6LQ      0.446800
     57 H232        0.2170  -10.2930    4.4040 hn        1 6LQ      0.446800
     58 H26         3.1840   -7.0660    7.5890 hn        1 6LQ      0.336500
     59 H28         0.5160   -8.6790    9.6510 h4        1 6LQ      0.060100
     60 H30         2.1290   -7.4510   13.2730 h4        1 6LQ      0.024100
     61 H31         3.9760   -6.1650   12.1340 ha        1 6LQ      0.142000
     62 H331        5.0370   -6.7190    8.8770 h1        1 6LQ      0.044200
     63 H332        5.1270   -5.5790   10.2860 h1        1 6LQ      0.044200
     64 H351        4.9730   -4.4310    6.7760 h1        1 6LQ      0.049450
     65 H352        6.1280   -4.7620    8.1380 h1        1 6LQ      0.049450
     66 H381        3.0040   -4.0900   10.2770 h1        1 6LQ      0.049450
     67 H382        2.2380   -3.8250    8.6520 h1        1 6LQ      0.049450
     68 H361        5.1610   -2.1760    7.2730 hc        1 6LQ      0.052200
     69 H362        6.1150   -2.5260    8.7640 hc        1 6LQ      0.052200
     70 H371        4.2350   -2.1240   10.0720 hc        1 6LQ      0.052200
     71 H372        3.2800   -1.7580    8.5870 hc        1 6LQ      0.052200
@<TRIPOS>BOND
     1    1    2 1   
     2    1   39 1   
     3    1   40 1   
     4    1   41 1   
     5    2    3 1   
     6    2    7 1   
     7    3    4 1   
     8    3   42 1   
     9    3   43 1   
    10    4    5 1   
    11    4   46 1   
    12    4   47 1   
    13    5    6 1   
    14    5    8 1   
    15    6    7 1   
    16    6   48 1   
    17    6   49 1   
    18    7   44 1   
    19    7   45 1   
    20    8    9 2   
    21    8   10 2   
    22    8   11 1   
    23   11   12 ar  
    24   11   16 ar  
    25   12   13 ar  
    26   12   50 1   
    27   13   14 ar  
    28   13   52 1   
    29   14   15 ar  
    30   14   17 1   
    31   15   16 ar  
    32   15   53 1   
    33   16   51 1   
    34   17   18 ar  
    35   17   22 ar  
    36   18   19 ar  
    37   18   54 1   
    38   19   20 ar  
    39   19   24 1   
    40   20   21 ar  
    41   20   23 1   
    42   21   22 ar  
    43   22   55 1   
    44   23   56 1   
    45   23   57 1   
    46   24   25 2   
    47   24   26 1   
    48   26   27 1   
    49   26   58 1   
    50   27   28 ar  
    51   27   32 ar  
    52   28   29 ar  
    53   28   59 1   
    54   29   30 ar  
    55   30   31 ar  
    56   30   60 1   
    57   31   32 ar  
    58   31   61 1   
    59   32   33 1   
    60   33   34 1   
    61   33   62 1   
    62   33   63 1   
    63   34   35 1   
    64   34   38 1   
    65   35   36 1   
    66   35   64 1   
    67   35   65 1   
    68   36   37 1   
    69   36   68 1   
    70   36   69 1   
    71   37   38 1   
    72   37   70 1   
    73   37   71 1   
    74   38   66 1   
    75   38   67 1   
@<TRIPOS>SUBSTRUCTURE
     1 6LQ         1 TEMP              0 ****  ****    0 ROOT
