@<TRIPOS>MOLECULE
6LQ
   71    75     1     0     0
SMALL
bcc


@<TRIPOS>ATOM
      1 C1         -4.6440    0.5980    4.3510 c3        1 6LQ      0.156100
      2 N2         -5.2450    0.9080    3.0740 n3        1 6LQ     -0.728600
      3 C3         -4.4160    1.7940    2.2700 c3        1 6LQ      0.152800
      4 C4         -5.0300    2.1000    0.8870 c3        1 6LQ      0.227300
      5 N5         -5.4610    0.9240    0.1770 n3        1 6LQ     -0.814500
      6 C6         -6.2680    0.0310    0.9680 c3        1 6LQ      0.227300
      7 C7         -5.6620   -0.2850    2.3520 c3        1 6LQ      0.152800
      8 S8         -5.0320    0.6070   -1.3580 sy        1 6LQ      1.508200
      9 O9         -5.9810   -0.2600   -1.9440 o         1 6LQ     -0.651300
     10 O10        -4.7610    1.8190   -2.0330 o         1 6LQ     -0.651300
     11 C11        -3.5760   -0.2380   -1.2020 ca        1 6LQ     -0.384500
     12 C12        -3.5650   -1.6300   -1.0530 ca        1 6LQ     -0.012500
     13 C13        -2.3690   -2.3330   -0.9530 ca        1 6LQ     -0.159000
     14 C14        -1.1420   -1.6530   -1.0060 cp        1 6LQ      0.052000
     15 C15        -1.1460   -0.2580   -1.1660 ca        1 6LQ     -0.159000
     16 C16        -2.3490    0.4330   -1.2610 ca        1 6LQ     -0.012500
     17 C17         0.1130   -2.3800   -0.9010 cp        1 6LQ     -0.253300
     18 C18         1.2290   -1.8360   -0.2590 ca        1 6LQ     -0.002000
     19 C19         2.4200   -2.5600   -0.1790 ca        1 6LQ     -0.350900
     20 C20         2.4720   -3.8780   -0.7540 ca        1 6LQ      0.726200
     21 N21         1.3630   -4.4140   -1.3880 nb        1 6LQ     -0.741000
     22 C22         0.2550   -3.6810   -1.4490 ca        1 6LQ      0.492200
     23 N23         3.6380   -4.6090   -0.7490 nh        1 6LQ     -0.941500
     24 C24         3.6040   -1.9940    0.5210 c         1 6LQ      0.697700
     25 O25         4.3070   -2.6850    1.2860 o         1 6LQ     -0.614100
     26 N26         3.8770   -0.6600    0.2510 n         1 6LQ     -0.453100
     27 C27         4.8840    0.1300    0.8140 ca        1 6LQ     -0.023700
     28 C28         5.6820   -0.3050    1.9170 ca        1 6LQ      0.370200
     29 N29         6.6430    0.4390    2.4790 nb        1 6LQ     -0.641000
     30 C30         6.8690    1.6690    1.9780 ca        1 6LQ      0.362200
     31 C31         6.1460    2.1970    0.8990 ca        1 6LQ     -0.220300
     32 C32         5.1460    1.4280    0.2980 ca        1 6LQ     -0.103300
     33 C33         4.4180    1.9900   -0.8890 c3        1 6LQ      0.200100
     34 N34         2.9930    2.2030   -0.6610 n3        1 6LQ     -0.734600
     35 C35         2.2860    2.6560   -1.8640 c3        1 6LQ      0.152300
     36 C36         1.6480    4.0300   -1.6050 c3        1 6LQ     -0.098400
     37 C37         1.9140    4.3480   -0.1400 c3        1 6LQ     -0.098400
     38 C38         2.6930    3.1470    0.4200 c3        1 6LQ      0.152300
     39 H11C       -4.4350    1.5570    4.8930 h1        1 6LQ      0.034700
     40 H12C       -5.3710   -0.0070    4.9540 h1        1 6LQ      0.034700
     41 H13C       -3.6830    0.0190    4.2640 h1        1 6LQ      0.034700
     42 H31C       -4.3220    2.7690    2.8250 h1        1 6LQ      0.038200
     43 H32C       -3.3770    1.3770    2.1250 h1        1 6LQ      0.038200
     44 H71C       -4.8090   -1.0130    2.2190 h1        1 6LQ      0.038200
     45 H72C       -6.4570   -0.7950    2.9650 h1        1 6LQ      0.038200
     46 H41C       -5.9150    2.7860    1.0300 h1        1 6LQ      0.060200
     47 H42C       -4.2590    2.6440    0.2700 h1        1 6LQ      0.060200
     48 H61C       -7.2860    0.4950    1.1180 h1        1 6LQ      0.060200
     49 H62C       -6.4040   -0.9400    0.4100 h1        1 6LQ      0.060200
     50 H12        -4.5240   -2.1760   -1.0300 ha        1 6LQ      0.151500
     51 H16        -2.3420    1.5280   -1.4060 ha        1 6LQ      0.151500
     52 H13        -2.3870   -3.4260   -0.8260 ha        1 6LQ      0.142000
     53 H15        -0.1940    0.2910   -1.2300 ha        1 6LQ      0.142000
     54 H18         1.1530   -0.8370    0.2030 ha        1 6LQ      0.151000
     55 H22        -0.5930   -4.1590   -1.9780 h4        1 6LQ      0.031100
     56 H231        4.3410   -4.3540   -0.0930 hn        1 6LQ      0.447300
     57 H232        3.6120   -5.5550   -1.0500 hn        1 6LQ      0.447300
     58 H26         3.2780   -0.2060   -0.4080 hn        1 6LQ      0.341500
     59 H28         5.5380   -1.3090    2.3650 h4        1 6LQ      0.062100
     60 H30         7.6670    2.2520    2.4700 h4        1 6LQ      0.024100
     61 H31         6.3700    3.2070    0.5270 ha        1 6LQ      0.142000
     62 H331        4.9370    2.9430   -1.2090 h1        1 6LQ      0.045200
     63 H332        4.5140    1.2620   -1.7470 h1        1 6LQ      0.045200
     64 H351        2.9590    2.7020   -2.7630 h1        1 6LQ      0.049200
     65 H352        1.4860    1.8930   -2.0740 h1        1 6LQ      0.049200
     66 H381        2.0630    2.5940    1.1690 h1        1 6LQ      0.049200
     67 H382        3.6260    3.4900    0.9440 h1        1 6LQ      0.049200
     68 H361        2.1000    4.8040   -2.2720 hc        1 6LQ      0.050450
     69 H362        0.5520    3.9970   -1.8200 hc        1 6LQ      0.050450
     70 H371        2.5110    5.2860   -0.0350 hc        1 6LQ      0.050450
     71 H372        0.9590    4.4880    0.4230 hc        1 6LQ      0.050450
@<TRIPOS>BOND
     1    1    2 1   
     2    1   39 1   
     3    1   40 1   
     4    1   41 1   
     5    2    3 1   
     6    2    7 1   
     7    3    4 1   
     8    3   42 1   
     9    3   43 1   
    10    4    5 1   
    11    4   46 1   
    12    4   47 1   
    13    5    6 1   
    14    5    8 1   
    15    6    7 1   
    16    6   48 1   
    17    6   49 1   
    18    7   44 1   
    19    7   45 1   
    20    8    9 2   
    21    8   10 2   
    22    8   11 1   
    23   11   12 ar  
    24   11   16 ar  
    25   12   13 ar  
    26   12   50 1   
    27   13   14 ar  
    28   13   52 1   
    29   14   15 ar  
    30   14   17 1   
    31   15   16 ar  
    32   15   53 1   
    33   16   51 1   
    34   17   18 ar  
    35   17   22 ar  
    36   18   19 ar  
    37   18   54 1   
    38   19   20 ar  
    39   19   24 1   
    40   20   21 ar  
    41   20   23 1   
    42   21   22 ar  
    43   22   55 1   
    44   23   56 1   
    45   23   57 1   
    46   24   25 2   
    47   24   26 1   
    48   26   27 1   
    49   26   58 1   
    50   27   28 ar  
    51   27   32 ar  
    52   28   29 ar  
    53   28   59 1   
    54   29   30 ar  
    55   30   31 ar  
    56   30   60 1   
    57   31   32 ar  
    58   31   61 1   
    59   32   33 1   
    60   33   34 1   
    61   33   62 1   
    62   33   63 1   
    63   34   35 1   
    64   34   38 1   
    65   35   36 1   
    66   35   64 1   
    67   35   65 1   
    68   36   37 1   
    69   36   68 1   
    70   36   69 1   
    71   37   38 1   
    72   37   70 1   
    73   37   71 1   
    74   38   66 1   
    75   38   67 1   
@<TRIPOS>SUBSTRUCTURE
     1 6LQ         1 TEMP              0 ****  ****    0 ROOT
