@<TRIPOS>MOLECULE
6LQ
   71    68     1     0     0
SMALL
bcc


@<TRIPOS>ATOM
      1 C1          6.3500    6.6150   -3.2100 c3        1 6LQ     -0.123000
      2 N2          5.3050    5.7180   -3.5550 n3        1 6LQ     -0.253000
      3 C3          5.8520    4.2830   -3.5840 c3        1 6LQ     -0.076500
      4 C4          4.7770    3.2440   -3.8260 c3        1 6LQ     -0.036000
      5 N5          3.6110    3.7030   -3.5620 n3        1 6LQ     -0.835000
      6 C6          3.3120    4.4700   -2.5810 c3        1 6LQ     -0.036000
      7 C7          4.3870    5.5090   -2.3400 c3        1 6LQ     -0.076500
      8 S8          2.3770    3.2510   -4.5690 s4        1 6LQ      2.064800
      9 O9          1.4230    4.3120   -4.7340 o         1 6LQ     -0.538400
     10 O10         2.8410    3.0790   -5.9190 o         1 6LQ     -0.538400
     11 C11         1.5990    1.7710   -3.9620 c1        1 6LQ     -0.822000
     12 C12         2.3770    0.6850   -3.5860 c2        1 6LQ     -0.015000
     13 C13         1.7820   -0.4300   -3.0110 c1        1 6LQ     -0.154000
     14 C14         0.4080   -0.4580   -2.8110 c1        1 6LQ      0.043000
     15 C15        -0.3700    0.6280   -3.1860 c1        1 6LQ     -0.153000
     16 C16         0.2260    1.7430   -3.7610 c1        1 6LQ     -0.013000
     17 C17        -0.2290   -1.6320   -2.0830 c2        1 6LQ     -0.163000
     18 C18        -0.4150   -1.5740   -0.7260 c2        1 6LQ      0.005000
     19 C19        -0.8470   -2.6800   -0.0460 c1        1 6LQ     -0.244000
     20 C20        -1.0960   -3.8640   -0.7320 c1        1 6LQ      0.154000
     21 N21        -0.9100   -3.9210   -2.0840 n1        1 6LQ     -0.199000
     22 C22        -0.4790   -2.8150   -2.7650 c1        1 6LQ      0.012000
     23 N23        -1.4060   -5.0510   -0.0080 n3        1 6LQ     -0.331000
     24 C24        -0.9490   -2.6460    1.4900 c2        1 6LQ      0.355000
     25 O25        -0.6460   -1.6360    2.0980 o         1 6LQ     -0.336000
     26 N26        -1.3850   -3.8050    2.2030 n         1 6LQ     -0.319000
     27 C27        -1.4650   -3.7790    3.6310 c2        1 6LQ      0.010000
     28 C28        -0.3740   -4.1760    4.3900 c2        1 6LQ     -0.089000
     29 N29        -0.4930   -4.3040    5.7430 n1        1 6LQ     -0.120000
     30 C30        -1.6840   -4.0420    6.3520 c1        1 6LQ     -0.120500
     31 C31        -2.7760   -3.6440    5.5970 c1        1 6LQ     -0.120500
     32 C32        -2.6600   -3.5150    4.2410 c1        1 6LQ     -0.080000
     33 C33        -3.8680   -3.1530    3.4100 c3        1 6LQ     -0.039000
     34 N34        -4.7090   -2.2830    4.1520 n3        1 6LQ     -0.241000
     35 C35        -5.7730   -1.6050    3.1690 c3        1 6LQ     -0.084000
     36 C36        -6.1380   -0.4650    3.7450 c3        1 6LQ     -0.178000
     37 C37        -4.9450   -0.0560    4.6070 c3        1 6LQ     -0.178000
     38 C38        -4.0010   -1.3120    4.6430 c3        1 6LQ     -0.084000
     39 H11C        6.9780    6.6900   -3.9590 h1        1 6LQ      0.073667
     40 H12C        5.9720    7.4980   -3.0120 h1        1 6LQ      0.073667
     41 H13C        6.8240    6.2780   -2.4180 h1        1 6LQ      0.073667
     42 H31C        6.5200    4.2160   -4.2960 h1        1 6LQ      0.094500
     43 H32C        6.2840    4.0940   -2.7280 h1        1 6LQ      0.094500
     44 H71C        3.9580    6.3610   -2.1200 h1        1 6LQ      0.094500
     45 H72C        4.9340    5.2250   -1.5780 h1        1 6LQ      0.094500
     46 H41C        4.8070    2.9660   -4.7650 h1        1 6LQ      0.093000
     47 H42C        4.9510    2.4660   -3.2560 h1        1 6LQ      0.093000
     48 H61C        3.2040    3.9290   -1.7730 h1        1 6LQ      0.093000
     49 H62C        2.4660    4.9250   -2.7770 h1        1 6LQ      0.093000
     50 H12         3.3460    0.7050   -3.7280 ha        1 6LQ      0.153000
     51 H16        -0.3250    2.5110   -4.0260 ha        1 6LQ      0.155000
     52 H13         2.3310   -1.1960   -2.7470 ha        1 6LQ      0.142000
     53 H15        -1.3400    0.6090   -3.0440 ha        1 6LQ      0.142000
     54 H18        -0.2400   -0.7440   -0.2450 ha        1 6LQ      0.160000
     55 H22        -0.3460   -2.8580   -3.7350 ha        1 6LQ      0.170000
     56 H231       -2.1760   -5.5120   -0.1920 hn        1 6LQ      0.218000
     57 H232       -0.8340   -5.3560    0.6390 hn        1 6LQ      0.218000
     58 H26        -1.6410   -4.5470    1.7490 hn        1 6LQ      0.242000
     59 H28         0.4770   -4.3640    3.9580 h4        1 6LQ      0.192000
     60 H30        -1.7670   -4.1340    7.3210 ha        1 6LQ      0.161000
     61 H31        -3.6280   -3.4570    6.0330 ha        1 6LQ      0.161000
     62 H331       -3.5770   -2.7050    2.5900 h1        1 6LQ      0.079000
     63 H332       -4.3620   -3.9670    3.1810 h1        1 6LQ      0.079000
     64 H351       -6.5490   -2.1900    3.0590 h1        1 6LQ      0.089000
     65 H352       -5.3600   -1.4250    2.2980 h1        1 6LQ      0.089000
     66 H381       -3.7400   -1.5150    5.5660 h1        1 6LQ      0.089000
     67 H382       -3.2070   -1.1570    4.0900 h1        1 6LQ      0.089000
     68 H361       -6.3160    0.2170    3.0660 hc        1 6LQ      0.088500
     69 H362       -6.9310   -0.6040    4.3050 hc        1 6LQ      0.088500
     70 H371       -5.2420    0.1690    5.5100 hc        1 6LQ      0.088500
     71 H372       -4.4800    0.7040    4.2030 hc        1 6LQ      0.088500
@<TRIPOS>BOND
     1    1    2 1   
     2    1   39 1   
     3    1   40 1   
     4    1   41 1   
     5    2    3 1   
     6    2    7 1   
     7    3    4 1   
     8    3   42 1   
     9    3   43 1   
    10    4    5 1   
    11    4   46 1   
    12    4   47 1   
    13    5    6 1   
    14    5    8 1   
    15    6    7 1   
    16    6   48 1   
    17    6   49 1   
    18    7   44 1   
    19    7   45 1   
    20    8    9 1   
    21    8   10 1   
    22   11   12 1   
    23   11   16 1   
    24   12   13 1   
    25   12   50 1   
    26   13   52 1   
    27   14   15 1   
    28   14   17 1   
    29   15   53 1   
    30   16   51 1   
    31   17   18 1   
    32   17   22 1   
    33   18   19 1   
    34   18   54 1   
    35   19   24 1   
    36   20   21 1   
    37   20   23 1   
    38   22   55 1   
    39   23   56 1   
    40   23   57 1   
    41   24   25 1   
    42   24   26 1   
    43   26   27 1   
    44   26   58 1   
    45   27   28 1   
    46   27   32 1   
    47   28   29 1   
    48   28   59 1   
    49   30   31 1   
    50   30   60 1   
    51   31   61 1   
    52   32   33 1   
    53   33   34 1   
    54   33   62 1   
    55   33   63 1   
    56   34   35 1   
    57   34   38 1   
    58   35   36 1   
    59   35   64 1   
    60   35   65 1   
    61   36   37 1   
    62   36   68 1   
    63   36   69 1   
    64   37   38 1   
    65   37   70 1   
    66   37   71 1   
    67   38   66 1   
    68   38   67 1   
@<TRIPOS>SUBSTRUCTURE
     1 6LQ         1 TEMP              0 ****  ****    0 ROOT
