@<TRIPOS>MOLECULE
6LV
   42    45     1     0     0
SMALL
bcc


@<TRIPOS>ATOM
      1 N1          0.0570   -0.1550    0.2100 nh        1 6LV     -0.845800
      2 C2          1.4430   -0.0350    0.0800 cc        1 6LV      0.688200
      3 N8          2.3330   -0.0170    1.1520 nd        1 6LV     -0.609100
      4 N9          3.5450   -0.0140    0.5660 na        1 6LV     -0.022800
      5 C4          3.4150   -0.0210   -0.8630 cd        1 6LV      0.028700
      6 N3          2.1030   -0.0270   -1.1950 nc        1 6LV     -0.405300
      7 C10         4.8340   -0.0130    1.1640 cc        1 6LV      0.586800
      8 N11         5.9310   -0.0090    0.4360 nd        1 6LV     -0.681000
      9 C12         5.8580   -0.0120   -0.9600 ca        1 6LV      0.411600
     10 C13         7.0580   -0.0080   -1.7190 ca        1 6LV     -0.170300
     11 C14         7.0050   -0.0130   -3.1010 ca        1 6LV     -0.110000
     12 C7          5.7750   -0.0220   -3.7790 ca        1 6LV     -0.138000
     13 C6          4.5870   -0.0250   -3.0670 ca        1 6LV     -0.078000
     14 C5          4.6190   -0.0190   -1.6640 ca        1 6LV     -0.131300
     15 C15         4.8690   -0.0160    2.6810 c3        1 6LV     -0.080400
     16 C16         6.2460   -0.0090    3.2480 ca        1 6LV     -0.014300
     17 C23         6.8730    1.2070    3.5290 ca        1 6LV     -0.173500
     18 C22         8.1580    1.2020    4.0960 ca        1 6LV      0.156600
     19 O24         8.6850    2.4570    4.3360 os        1 6LV     -0.325400
     20 C25         9.9970    2.4980    4.8840 c3        1 6LV      0.113700
     21 C21         8.8220    0.0050    4.3890 ca        1 6LV     -0.271000
     22 C18         8.1700   -1.1990    4.0980 ca        1 6LV      0.156600
     23 C17         6.8850   -1.2180    3.5300 ca        1 6LV     -0.173500
     24 O19         8.7090   -2.4480    4.3400 os        1 6LV     -0.325400
     25 C20        10.0210   -2.4760    4.8880 c3        1 6LV      0.113700
     26 H11        -0.3030    0.2060    1.0680 hn        1 6LV      0.409800
     27 H12        -0.4490    0.1410   -0.5970 hn        1 6LV      0.409800
     28 H151        4.3150   -0.9290    3.0380 hc        1 6LV      0.087700
     29 H152        4.3050    0.8890    3.0430 hc        1 6LV      0.087700
     30 H13         8.0280   -0.0020   -1.1970 ha        1 6LV      0.156000
     31 H14         7.9400   -0.0110   -3.6820 ha        1 6LV      0.138000
     32 H7          5.7600   -0.0270   -4.8790 ha        1 6LV      0.140000
     33 H6          3.6160   -0.0330   -3.5880 ha        1 6LV      0.158000
     34 H23         6.3830    2.1660    3.3080 ha        1 6LV      0.151500
     35 H17         6.4050   -2.1810    3.3110 ha        1 6LV      0.151500
     36 H21         9.8250    0.0100    4.8330 ha        1 6LV      0.142000
     37 H251       10.7290    2.0100    4.1950 h1        1 6LV      0.044033
     38 H252       10.0200    2.0120    5.8890 h1        1 6LV      0.044033
     39 H253       10.2070    3.5950    4.9710 h1        1 6LV      0.044033
     40 H201       10.0400   -1.9880    5.8930 h1        1 6LV      0.044033
     41 H202       10.7480   -1.9820    4.1990 h1        1 6LV      0.044033
     42 H203       10.2420   -3.5700    4.9770 h1        1 6LV      0.044033
@<TRIPOS>BOND
     1    1    2 1   
     2    1   26 1   
     3    1   27 1   
     4    2    3 2   
     5    2    6 1   
     6    3    4 1   
     7    4    5 1   
     8    4    7 1   
     9    5    6 2   
    10    5   14 1   
    11    7    8 2   
    12    7   15 1   
    13    8    9 1   
    14    9   10 ar  
    15    9   14 ar  
    16   10   11 ar  
    17   10   30 1   
    18   11   12 ar  
    19   11   31 1   
    20   12   13 ar  
    21   12   32 1   
    22   13   14 ar  
    23   13   33 1   
    24   15   16 1   
    25   15   28 1   
    26   15   29 1   
    27   16   17 ar  
    28   16   23 ar  
    29   17   18 ar  
    30   17   34 1   
    31   18   19 1   
    32   18   21 ar  
    33   19   20 1   
    34   20   37 1   
    35   20   38 1   
    36   20   39 1   
    37   21   22 ar  
    38   21   36 1   
    39   22   23 ar  
    40   22   24 1   
    41   23   35 1   
    42   24   25 1   
    43   25   40 1   
    44   25   41 1   
    45   25   42 1   
@<TRIPOS>SUBSTRUCTURE
     1 6LV         1 TEMP              0 ****  ****    0 ROOT
