@<TRIPOS>MOLECULE
6LV
   43    46     1     0     0
SMALL
bcc


@<TRIPOS>ATOM
      1 N1          0.0240   -0.0200    0.1620 n4        1 6LV     -0.730600
      2 C2          1.4750   -0.0150    0.0290 cc        1 6LV      0.464200
      3 N8          2.3520   -0.0160    1.1100 nd        1 6LV     -0.478100
      4 N9          3.5460   -0.0100    0.5380 na        1 6LV      0.006200
      5 C4          3.4280   -0.0050   -0.8970 cd        1 6LV      0.050700
      6 N3          2.1080   -0.0090   -1.2370 nc        1 6LV     -0.340300
      7 C10         4.8630   -0.0080    1.1490 cc        1 6LV      0.575800
      8 N11         5.9330   -0.0020    0.4050 nd        1 6LV     -0.612000
      9 C12         5.8700    0.0030   -0.9930 ca        1 6LV      0.405600
     10 C13         7.0710    0.0090   -1.7430 ca        1 6LV     -0.147300
     11 C14         7.0190    0.0130   -3.1290 ca        1 6LV     -0.086000
     12 C7          5.7930    0.0120   -3.8090 ca        1 6LV     -0.108000
     13 C6          4.5990    0.0060   -3.1020 ca        1 6LV     -0.076000
     14 C5          4.6290    0.0010   -1.7000 ca        1 6LV     -0.140300
     15 C15         4.8840   -0.0130    2.6660 c3        1 6LV     -0.072400
     16 C16         6.2630   -0.0100    3.2290 ca        1 6LV     -0.039300
     17 C23         6.8900    1.2040    3.5130 ca        1 6LV     -0.179000
     18 C22         8.1770    1.1950    4.0810 ca        1 6LV      0.169100
     19 O24         8.7050    2.4450    4.3180 os        1 6LV     -0.322900
     20 C25         9.9950    2.4880    4.9220 c3        1 6LV      0.110700
     21 C21         8.8370   -0.0060    4.3680 ca        1 6LV     -0.263000
     22 C18         8.1840   -1.2100    4.0730 ca        1 6LV      0.169100
     23 C17         6.8970   -1.2220    3.5050 ca        1 6LV     -0.179000
     24 O19         8.7190   -2.4580    4.3030 os        1 6LV     -0.322900
     25 C20        10.0090   -2.4980    4.9060 c3        1 6LV      0.110700
     26 H11        -0.3540    0.8210   -0.2960 hn        1 6LV      0.481133
     27 H12        -0.2410   -0.0250    1.1550 hn        1 6LV      0.481133
     28 H151        4.3260    0.8960    3.0260 hc        1 6LV      0.087700
     29 H152        4.3310   -0.9270    3.0200 hc        1 6LV      0.087700
     30 H13         8.0420    0.0110   -1.2200 ha        1 6LV      0.176000
     31 H14         7.9590    0.0180   -3.7070 ha        1 6LV      0.162000
     32 H7          5.7800    0.0150   -4.9110 ha        1 6LV      0.161000
     33 H6          3.6340    0.0040   -3.6320 ha        1 6LV      0.162000
     34 H23         6.4020    2.1660    3.3030 ha        1 6LV      0.150000
     35 H17         6.4150   -2.1860    3.2890 ha        1 6LV      0.150000
     36 H21         9.8400   -0.0050    4.8130 ha        1 6LV      0.153000
     37 H251        9.9770    1.9960    5.9240 h1        1 6LV      0.051367
     38 H252       10.1940    3.5860    5.0230 h1        1 6LV      0.051367
     39 H253       10.7550    2.0090    4.2590 h1        1 6LV      0.051367
     40 H201       10.7670   -2.0100    4.2460 h1        1 6LV      0.051367
     41 H202       10.2140   -3.5950    5.0000 h1        1 6LV      0.051367
     42 H203        9.9890   -2.0120    5.9110 h1        1 6LV      0.051367
     43 H131       -0.3480   -0.8600   -0.3020 hn        1 6LV      0.481133
@<TRIPOS>BOND
     1    1    2 1   
     2    1   26 1   
     3    1   27 1   
     4    1   43 1   
     5    2    3 2   
     6    2    6 1   
     7    3    4 1   
     8    4    5 1   
     9    4    7 1   
    10    5    6 2   
    11    5   14 1   
    12    7    8 2   
    13    7   15 1   
    14    8    9 1   
    15    9   10 ar  
    16    9   14 ar  
    17   10   11 ar  
    18   10   30 1   
    19   11   12 ar  
    20   11   31 1   
    21   12   13 ar  
    22   12   32 1   
    23   13   14 ar  
    24   13   33 1   
    25   15   16 1   
    26   15   28 1   
    27   15   29 1   
    28   16   17 ar  
    29   16   23 ar  
    30   17   18 ar  
    31   17   34 1   
    32   18   19 1   
    33   18   21 ar  
    34   19   20 1   
    35   20   37 1   
    36   20   38 1   
    37   20   39 1   
    38   21   22 ar  
    39   21   36 1   
    40   22   23 ar  
    41   22   24 1   
    42   23   35 1   
    43   24   25 1   
    44   25   40 1   
    45   25   41 1   
    46   25   42 1   
@<TRIPOS>SUBSTRUCTURE
     1 6LV         1 TEMP              0 ****  ****    0 ROOT
