@<TRIPOS>MOLECULE
6LV
   42    45     1     0     0
SMALL
bcc


@<TRIPOS>ATOM
      1 N1          0.0570    0.1470    0.2080 nv        1 6LV     -0.845800
      2 C2          1.4430    0.0280    0.0780 cc        1 6LV      0.688200
      3 N8          2.3340    0.0130    1.1500 nd        1 6LV     -0.609100
      4 N9          3.5450    0.0080    0.5650 na        1 6LV     -0.022800
      5 C4          3.4160    0.0110   -0.8650 cd        1 6LV      0.028700
      6 N3          2.1040    0.0150   -1.1970 nc        1 6LV     -0.405300
      7 C10         4.8340    0.0090    1.1630 cc        1 6LV      0.586800
      8 N11         5.9310    0.0040    0.4360 nd        1 6LV     -0.681000
      9 C12         5.8590    0.0020   -0.9600 ca        1 6LV      0.411600
     10 C13         7.0600   -0.0030   -1.7190 ca        1 6LV     -0.170300
     11 C14         7.0060   -0.0020   -3.1010 ca        1 6LV     -0.110000
     12 C7          5.7770    0.0040   -3.7790 ca        1 6LV     -0.138000
     13 C6          4.5890    0.0090   -3.0680 ca        1 6LV     -0.078000
     14 C5          4.6200    0.0070   -1.6650 ca        1 6LV     -0.131300
     15 C15         4.8680    0.0160    2.6800 c3        1 6LV     -0.080400
     16 C16         6.2460    0.0100    3.2480 ca        1 6LV     -0.014300
     17 C23         6.8860    1.2190    3.5240 ca        1 6LV     -0.173500
     18 C22         8.1710    1.2020    4.0920 ca        1 6LV      0.156600
     19 O24         8.7120    2.4510    4.3280 os        1 6LV     -0.325400
     20 C25        10.0240    2.4790    4.8770 c3        1 6LV      0.113700
     21 C21         8.8220   -0.0020    4.3900 ca        1 6LV     -0.272000
     22 C18         8.1550   -1.2000    4.1030 ca        1 6LV      0.156600
     23 C17         6.8700   -1.2060    3.5350 ca        1 6LV     -0.173500
     24 O19         8.6800   -2.4540    4.3510 os        1 6LV     -0.325400
     25 C20         9.9910   -2.4940    4.8990 c3        1 6LV      0.113700
     26 H11        -0.3020   -0.2110    1.0660 hn        1 6LV      0.409800
     27 H12        -0.4490   -0.1510   -0.5990 hn        1 6LV      0.409800
     28 H151        4.3160    0.9310    3.0340 hc        1 6LV      0.087700
     29 H152        4.3040   -0.8870    3.0450 hc        1 6LV      0.087700
     30 H13         8.0300   -0.0070   -1.1970 ha        1 6LV      0.156000
     31 H14         7.9420   -0.0060   -3.6820 ha        1 6LV      0.138000
     32 H7          5.7630    0.0060   -4.8790 ha        1 6LV      0.140000
     33 H6          3.6180    0.0150   -3.5890 ha        1 6LV      0.158000
     34 H23         6.4080    2.1830    3.2990 ha        1 6LV      0.151500
     35 H17         6.3790   -2.1640    3.3200 ha        1 6LV      0.151500
     36 H21         9.8240   -0.0070    4.8340 ha        1 6LV      0.142000
     37 H251       10.7510    1.9810    4.1910 h1        1 6LV      0.044033
     38 H252       10.2470    3.5730    4.9600 h1        1 6LV      0.044033
     39 H253       10.0410    1.9970    5.8840 h1        1 6LV      0.044033
     40 H201       10.7240   -2.0120    4.2080 h1        1 6LV      0.044033
     41 H202       10.0150   -2.0030    5.9020 h1        1 6LV      0.044033
     42 H203       10.2000   -3.5910    4.9920 h1        1 6LV      0.044033
@<TRIPOS>BOND
     1    1    2 1   
     2    1   26 1   
     3    1   27 1   
     4    2    3 2   
     5    2    6 1   
     6    3    4 1   
     7    4    5 1   
     8    4    7 1   
     9    5    6 2   
    10    5   14 1   
    11    7    8 2   
    12    7   15 1   
    13    8    9 1   
    14    9   10 ar  
    15    9   14 ar  
    16   10   11 ar  
    17   10   30 1   
    18   11   12 ar  
    19   11   31 1   
    20   12   13 ar  
    21   12   32 1   
    22   13   14 ar  
    23   13   33 1   
    24   15   16 1   
    25   15   28 1   
    26   15   29 1   
    27   16   17 ar  
    28   16   23 ar  
    29   17   18 ar  
    30   17   34 1   
    31   18   19 1   
    32   18   21 ar  
    33   19   20 1   
    34   20   37 1   
    35   20   38 1   
    36   20   39 1   
    37   21   22 ar  
    38   21   36 1   
    39   22   23 ar  
    40   22   24 1   
    41   23   35 1   
    42   24   25 1   
    43   25   40 1   
    44   25   41 1   
    45   25   42 1   
@<TRIPOS>SUBSTRUCTURE
     1 6LV         1 TEMP              0 ****  ****    0 ROOT
