@<TRIPOS>MOLECULE
6LX
   72    75     1     0     0
SMALL
bcc


@<TRIPOS>ATOM
      1 CAW        -0.1950    1.9560    0.4970 ca        1 6LX     -0.057500
      2 CAX         0.8750    2.7860    0.8090 ca        1 6LX     -0.133000
      3 CAY         1.6230    2.5800    1.9760 ca        1 6LX      0.037700
      4 CAZ         2.7670    3.4580    2.2990 c3        1 6LX     -0.091800
      5 CAO         1.2790    1.5130    2.8280 ca        1 6LX     -0.133000
      6 CAN         0.2110    0.6820    2.5280 ca        1 6LX     -0.057500
      7 CAM        -0.5450    0.8980    1.3620 ca        1 6LX     -0.232600
      8 CAL        -1.6710    0.0730    0.9520 c         1 6LX      0.597700
      9 OAV        -2.1420   -0.0900   -0.1660 o         1 6LX     -0.442100
     10 NAK        -2.3720   -0.7440    2.0650 n4        1 6LX     -0.600200
     11 CAU        -1.9090   -2.1600    1.9150 c3        1 6LX      0.088800
     12 CBC        -1.7270   -2.9380    3.2160 c3        1 6LX     -0.131400
     13 CBD        -1.4530   -4.4120    2.9340 c3        1 6LX      0.106800
     14 NBE        -2.6670   -5.2450    2.7250 n4        1 6LX     -0.852600
     15 CAJ        -3.8830   -0.6110    1.9660 c3        1 6LX      0.177700
     16 CAB        -4.4020    0.7930    2.3610 c3        1 6LX     -0.068700
     17 CAA        -3.8440    1.8870    1.4800 c3        1 6LX     -0.115600
     18 CAC        -5.9180    0.7810    2.2560 c3        1 6LX     -0.115600
     19 CAI        -4.5350   -1.6560    2.8410 cc        1 6LX      0.065900
     20 OAH        -4.3600   -1.3350    4.1790 os        1 6LX     -0.250200
     21 CAG        -5.2010   -1.9910    5.0810 ca        1 6LX      0.121100
     22 CAF        -5.3970   -1.3750    6.3190 ca        1 6LX     -0.143000
     23 CAE        -6.1960   -2.0380    7.2610 ca        1 6LX      0.083400
     24 CLA        -6.4640   -1.3230    8.7610 cl        1 6LX      0.004600
     25 CAP        -6.7760   -3.2830    6.9630 ca        1 6LX     -0.132000
     26 CAQ        -6.5600   -3.8810    5.7270 ca        1 6LX     -0.021000
     27 CAR        -5.7650   -3.2410    4.7660 ca        1 6LX     -0.246600
     28 CAS        -5.4950   -3.8060    3.4480 c         1 6LX      0.594900
     29 OBA        -5.4480   -5.0240    3.2080 o         1 6LX     -0.578100
     30 CAT        -5.1290   -2.8000    2.4180 cd        1 6LX     -0.236400
     31 CBB        -5.5530   -3.0630    1.0140 c3        1 6LX     -0.002900
     32 CBG        -4.6080   -3.8670    0.1850 ca        1 6LX     -0.128300
     33 CBF        -3.8000   -3.2460   -0.7770 ca        1 6LX     -0.167000
     34 CBI        -3.0190   -4.0130   -1.6430 ca        1 6LX     -0.123500
     35 CBJ        -3.0400   -5.4050   -1.5590 ca        1 6LX     -0.111000
     36 CBK        -3.8450   -6.0310   -0.6060 ca        1 6LX     -0.123500
     37 CBH        -4.6280   -5.2680    0.2600 ca        1 6LX     -0.167000
     38 HAN        -0.0050   -0.1560    3.2080 ha        1 6LX      0.142000
     39 HAO         1.8710    1.3400    3.7420 ha        1 6LX      0.174000
     40 HAZ1        3.6800    3.1030    1.7510 hc        1 6LX      0.080700
     41 HAZ2        2.9920    3.4510    3.3940 hc        1 6LX      0.080700
     42 HAZ3        2.5640    4.5130    1.9830 hc        1 6LX      0.080700
     43 HAX         1.1380    3.6150    0.1290 ha        1 6LX      0.174000
     44 HAW        -0.7750    2.1220   -0.4280 ha        1 6LX      0.142000
     45 HAU1       -2.6460   -2.6870    1.2360 hx        1 6LX      0.113700
     46 HAU2       -0.9110   -2.1370    1.3810 hx        1 6LX      0.113700
     47 HAJ        -4.1520   -0.8090    0.8810 hx        1 6LX      0.137700
     48 HBC1       -0.8300   -2.5370    3.7680 hc        1 6LX      0.103200
     49 HBC2       -2.6090   -2.8140    3.9010 hc        1 6LX      0.103200
     50 HBD1       -0.8020   -4.5180    2.0170 hx        1 6LX      0.123200
     51 HBD2       -0.8930   -4.8490    3.8160 hx        1 6LX      0.123200
     52 HBE1       -3.2510   -5.2760    3.5740 hn        1 6LX      0.476133
     53 HBE2       -2.3910   -6.2050    2.4870 hn        1 6LX      0.476133
     54 HAB        -4.1190    0.9920    3.4330 hc        1 6LX      0.080700
     55 HAA1       -2.7720    2.0980    1.7150 hc        1 6LX      0.063867
     56 HAA2       -3.9380    1.6230    0.3980 hc        1 6LX      0.063867
     57 HAA3       -4.4160    2.8340    1.6550 hc        1 6LX      0.063867
     58 HAC1       -6.2440    0.5540    1.2120 hc        1 6LX      0.063867
     59 HAC2       -6.3610    0.0260    2.9490 hc        1 6LX      0.063867
     60 HAC3       -6.3170    1.7880    2.5380 hc        1 6LX      0.063867
     61 HAF        -4.9440   -0.3960    6.5380 ha        1 6LX      0.181000
     62 HAP        -7.4110   -3.7870    7.7140 ha        1 6LX      0.188000
     63 HAQ        -7.0160   -4.8580    5.4880 ha        1 6LX      0.179000
     64 HBB1       -6.5370   -3.6180    1.0590 hc        1 6LX      0.094200
     65 HBB2       -5.7670   -2.0860    0.4970 hc        1 6LX      0.094200
     66 HBH        -5.3210   -5.7640    0.9630 ha        1 6LX      0.155000
     67 HBF        -3.8130   -2.1500   -0.8920 ha        1 6LX      0.155000
     68 HBK        -3.9020   -7.1310   -0.5710 ha        1 6LX      0.162500
     69 HBJ        -2.4480   -6.0100   -2.2660 ha        1 6LX      0.168000
     70 HBI        -2.4130   -3.5170   -2.4180 ha        1 6LX      0.162500
     71 HAK1       -2.0890   -0.3750    2.9800 hn        1 6LX      0.458800
     72 HBE3       -3.2630   -4.8760    1.9580 hn        1 6LX      0.476133
@<TRIPOS>BOND
     1    1    2 ar  
     2    1    7 ar  
     3    1   44 1   
     4    2    3 ar  
     5    2   43 1   
     6    3    4 1   
     7    3    5 ar  
     8    4   40 1   
     9    4   41 1   
    10    4   42 1   
    11    5    6 ar  
    12    5   39 1   
    13    6    7 ar  
    14    6   38 1   
    15    7    8 1   
    16    8    9 2   
    17    8   10 1   
    18   10   11 1   
    19   10   15 1   
    20   10   71 1   
    21   11   12 1   
    22   11   45 1   
    23   11   46 1   
    24   12   13 1   
    25   12   48 1   
    26   12   49 1   
    27   13   14 1   
    28   13   50 1   
    29   13   51 1   
    30   14   52 1   
    31   14   53 1   
    32   14   72 1   
    33   15   16 1   
    34   15   19 1   
    35   15   47 1   
    36   16   17 1   
    37   16   18 1   
    38   16   54 1   
    39   17   55 1   
    40   17   56 1   
    41   17   57 1   
    42   18   58 1   
    43   18   59 1   
    44   18   60 1   
    45   19   20 1   
    46   19   30 2   
    47   20   21 1   
    48   21   22 ar  
    49   21   27 ar  
    50   22   23 ar  
    51   22   61 1   
    52   23   24 1   
    53   23   25 ar  
    54   25   26 ar  
    55   25   62 1   
    56   26   27 ar  
    57   26   63 1   
    58   27   28 1   
    59   28   29 2   
    60   28   30 1   
    61   30   31 1   
    62   31   32 1   
    63   31   64 1   
    64   31   65 1   
    65   32   33 ar  
    66   32   37 ar  
    67   33   34 ar  
    68   33   67 1   
    69   34   35 ar  
    70   34   70 1   
    71   35   36 ar  
    72   35   69 1   
    73   36   37 ar  
    74   36   68 1   
    75   37   66 1   
@<TRIPOS>SUBSTRUCTURE
     1 6LX         1 TEMP              0 ****  ****    0 ROOT
