@<TRIPOS>MOLECULE
6LX
   72    75     1     0     0
SMALL
bcc


@<TRIPOS>ATOM
      1 CAW         0.2840    1.3860    0.4390 ca        1 6LX     -0.059000
      2 CAX         1.3550    2.2100    0.7610 ca        1 6LX     -0.135000
      3 CAY         1.4940    2.7280    2.0570 ca        1 6LX      0.036700
      4 CAZ         2.6200    3.6240    2.3920 c3        1 6LX     -0.091800
      5 CAO         0.5300    2.4010    3.0290 ca        1 6LX     -0.135000
      6 CAN        -0.5400    1.5750    2.7200 ca        1 6LX     -0.059000
      7 CAM        -0.6670    1.0460    1.4230 ca        1 6LX     -0.236600
      8 CAL        -1.7690    0.1970    0.9920 c         1 6LX      0.599700
      9 OAV        -2.2220    0.0280   -0.1320 o         1 6LX     -0.442100
     10 NAK        -2.4070   -0.7080    2.0740 n4        1 6LX     -0.600200
     11 CAU        -1.9040   -2.0980    1.8240 c3        1 6LX      0.093800
     12 CBC        -1.6420   -2.9360    3.0720 c3        1 6LX     -0.132400
     13 CBD        -1.3370   -4.3840    2.7020 c3        1 6LX      0.107800
     14 NBE        -2.5350   -5.2460    2.5150 n4        1 6LX     -0.852600
     15 CAJ        -3.9230   -0.6280    2.0290 c3        1 6LX      0.176700
     16 CAB        -4.4840    0.7420    2.4840 c3        1 6LX     -0.068700
     17 CAA        -4.0150    1.8780    1.6040 c3        1 6LX     -0.116100
     18 CAC        -6.0010    0.6660    2.4520 c3        1 6LX     -0.116100
     19 CAI        -4.5060   -1.7270    2.8870 cc        1 6LX      0.065900
     20 OAH        -4.2810   -1.4540    4.2280 os        1 6LX     -0.251200
     21 CAG        -5.0560   -2.1770    5.1380 ca        1 6LX      0.121100
     22 CAF        -5.2150   -1.6210    6.4090 ca        1 6LX     -0.143000
     23 CAE        -5.9460   -2.3500    7.3570 ca        1 6LX      0.083400
     24 CLA        -6.1680   -1.7080    8.8970 cl        1 6LX      0.004600
     25 CAP        -6.4980   -3.6010    7.0320 ca        1 6LX     -0.131000
     26 CAQ        -6.3210   -4.1390    5.7620 ca        1 6LX     -0.021000
     27 CAR        -5.5930   -3.4320    4.7940 ca        1 6LX     -0.245600
     28 CAS        -5.3670   -3.9320    3.4420 c         1 6LX      0.594900
     29 OBA        -5.2920   -5.1360    3.1480 o         1 6LX     -0.578100
     30 CAT        -5.0820   -2.8710    2.4420 cd        1 6LX     -0.236400
     31 CBB        -5.5630   -3.0880    1.0480 c3        1 6LX     -0.002900
     32 CBG        -4.6370   -3.8280    0.1430 ca        1 6LX     -0.128300
     33 CBF        -3.8900   -3.1440   -0.8250 ca        1 6LX     -0.166500
     34 CBI        -3.1310   -3.8500   -1.7580 ca        1 6LX     -0.123500
     35 CBJ        -3.1120   -5.2450   -1.7370 ca        1 6LX     -0.112000
     36 CBK        -3.8560   -5.9340   -0.7780 ca        1 6LX     -0.123500
     37 CBH        -4.6180   -5.2310    0.1560 ca        1 6LX     -0.166500
     38 HAN        -1.2970    1.3890    3.4970 ha        1 6LX      0.147500
     39 HAO         0.6230    2.8220    4.0450 ha        1 6LX      0.174500
     40 HAZ1        3.5270    3.3790    1.7840 hc        1 6LX      0.080700
     41 HAZ2        2.3320    4.6860    2.1700 hc        1 6LX      0.080700
     42 HAZ3        2.8860    3.5560    3.4760 hc        1 6LX      0.080700
     43 HAX         2.0970    2.4700   -0.0140 ha        1 6LX      0.174500
     44 HAW         0.1710    1.0020   -0.5900 ha        1 6LX      0.147500
     45 HAU1       -0.9310   -2.0110    1.2520 hx        1 6LX      0.112700
     46 HAU2       -2.6510   -2.6120    1.1470 hx        1 6LX      0.112700
     47 HAJ        -4.2190   -0.8000    0.9460 hx        1 6LX      0.137700
     48 HBC1       -0.7340   -2.5370    3.6080 hc        1 6LX      0.104200
     49 HBC2       -2.4960   -2.8750    3.8000 hc        1 6LX      0.104200
     50 HBD1       -0.7170   -4.8450    3.5290 hx        1 6LX      0.123200
     51 HBD2       -0.7350   -4.4230    1.7470 hx        1 6LX      0.123200
     52 HBE1       -3.1830   -4.8600    1.8020 hn        1 6LX      0.475800
     53 HBE2       -3.0700   -5.3390    3.3920 hn        1 6LX      0.475800
     54 HAB        -4.1560    0.9270    3.5470 hc        1 6LX      0.076700
     55 HAA1       -4.6380    2.7880    1.8030 hc        1 6LX      0.064533
     56 HAA2       -2.9520    2.1510    1.8190 hc        1 6LX      0.064533
     57 HAA3       -4.1180    1.6230    0.5210 hc        1 6LX      0.064533
     58 HAC1       -6.3670    0.4460    1.4200 hc        1 6LX      0.064533
     59 HAC2       -6.3770   -0.1210    3.1490 hc        1 6LX      0.064533
     60 HAC3       -6.4280    1.6490    2.7750 hc        1 6LX      0.064533
     61 HAF        -4.7850   -0.6360    6.6500 ha        1 6LX      0.181000
     62 HAP        -7.0800   -4.1580    7.7880 ha        1 6LX      0.188000
     63 HAQ        -6.7550   -5.1210    5.5020 ha        1 6LX      0.179000
     64 HBB1       -5.8280   -2.0970    0.5840 hc        1 6LX      0.094200
     65 HBB2       -6.5290   -3.6730    1.1140 hc        1 6LX      0.094200
     66 HBH        -5.2640   -5.7770    0.8670 ha        1 6LX      0.155000
     67 HBF        -3.9370   -2.0450   -0.8910 ha        1 6LX      0.155000
     68 HBK        -3.8830   -7.0360   -0.7900 ha        1 6LX      0.162500
     69 HBJ        -2.5380   -5.8020   -2.4970 ha        1 6LX      0.168000
     70 HBI        -2.5740   -3.3040   -2.5380 ha        1 6LX      0.162500
     71 HAK1       -2.1030   -0.3970    3.0030 hn        1 6LX      0.455800
     72 HBE3       -2.2430   -6.1830    2.2140 hn        1 6LX      0.475800
@<TRIPOS>BOND
     1    1    2 ar  
     2    1    7 ar  
     3    1   44 1   
     4    2    3 ar  
     5    2   43 1   
     6    3    4 1   
     7    3    5 ar  
     8    4   40 1   
     9    4   41 1   
    10    4   42 1   
    11    5    6 ar  
    12    5   39 1   
    13    6    7 ar  
    14    6   38 1   
    15    7    8 1   
    16    8    9 2   
    17    8   10 1   
    18   10   11 1   
    19   10   15 1   
    20   10   71 1   
    21   11   12 1   
    22   11   45 1   
    23   11   46 1   
    24   12   13 1   
    25   12   48 1   
    26   12   49 1   
    27   13   14 1   
    28   13   50 1   
    29   13   51 1   
    30   14   52 1   
    31   14   53 1   
    32   14   72 1   
    33   15   16 1   
    34   15   19 1   
    35   15   47 1   
    36   16   17 1   
    37   16   18 1   
    38   16   54 1   
    39   17   55 1   
    40   17   56 1   
    41   17   57 1   
    42   18   58 1   
    43   18   59 1   
    44   18   60 1   
    45   19   20 1   
    46   19   30 2   
    47   20   21 1   
    48   21   22 ar  
    49   21   27 ar  
    50   22   23 ar  
    51   22   61 1   
    52   23   24 1   
    53   23   25 ar  
    54   25   26 ar  
    55   25   62 1   
    56   26   27 ar  
    57   26   63 1   
    58   27   28 1   
    59   28   29 2   
    60   28   30 1   
    61   30   31 1   
    62   31   32 1   
    63   31   64 1   
    64   31   65 1   
    65   32   33 ar  
    66   32   37 ar  
    67   33   34 ar  
    68   33   67 1   
    69   34   35 ar  
    70   34   70 1   
    71   35   36 ar  
    72   35   69 1   
    73   36   37 ar  
    74   36   68 1   
    75   37   66 1   
@<TRIPOS>SUBSTRUCTURE
     1 6LX         1 TEMP              0 ****  ****    0 ROOT
