@<TRIPOS>MOLECULE
6LX
   72    75     1     0     0
SMALL
bcc


@<TRIPOS>ATOM
      1 CAW         0.4080    1.2430    0.4460 ca        1 6LX     -0.059000
      2 CAX         1.5120    2.0210    0.7710 ca        1 6LX     -0.135000
      3 CAY         1.6710    2.5310    2.0680 ca        1 6LX      0.036700
      4 CAZ         2.8340    3.3780    2.4050 c3        1 6LX     -0.091800
      5 CAO         0.6930    2.2450    3.0380 ca        1 6LX     -0.135000
      6 CAN        -0.4110    1.4650    2.7260 ca        1 6LX     -0.059000
      7 CAM        -0.5590    0.9430    1.4280 ca        1 6LX     -0.236600
      8 CAL        -1.6960    0.1430    0.9950 c         1 6LX      0.599700
      9 OAV        -2.1530   -0.0050   -0.1300 o         1 6LX     -0.442100
     10 NAK        -2.3720   -0.7360    2.0750 nx        1 6LX     -0.600200
     11 CAU        -1.9290   -2.1450    1.8230 c3        1 6LX      0.093800
     12 CBC        -1.7030   -2.9950    3.0710 c3        1 6LX     -0.132400
     13 CBD        -1.4610   -4.4550    2.6990 c3        1 6LX      0.107800
     14 NBE        -2.6950   -5.2650    2.5100 nz        1 6LX     -0.852600
     15 CAJ        -3.8840   -0.5910    2.0290 c3        1 6LX      0.176700
     16 CAB        -4.3850    0.8010    2.4850 c3        1 6LX     -0.068700
     17 CAA        -3.8680    1.9170    1.6070 c3        1 6LX     -0.116100
     18 CAC        -5.9040    0.7900    2.4530 c3        1 6LX     -0.116100
     19 CAI        -4.5130   -1.6650    2.8860 cc        1 6LX      0.065900
     20 OAH        -4.2780   -1.4030    4.2270 os        1 6LX     -0.251200
     21 CAG        -5.0840   -2.0940    5.1360 ca        1 6LX      0.121100
     22 CAF        -5.2190   -1.5330    6.4070 ca        1 6LX     -0.143000
     23 CAE        -5.9810   -2.2320    7.3540 ca        1 6LX      0.083400
     24 ClA        -6.1760   -1.5820    8.8950 cl        1 6LX      0.004600
     25 CAP        -6.5870   -3.4570    7.0270 ca        1 6LX     -0.131000
     26 CAQ        -6.4310   -4.0010    5.7570 ca        1 6LX     -0.021000
     27 CAR        -5.6730   -3.3240    4.7900 ca        1 6LX     -0.245600
     28 CAS        -5.4690   -3.8320    3.4380 c         1 6LX      0.594900
     29 OBA        -5.4450   -5.0380    3.1420 o         1 6LX     -0.578100
     30 CAT        -5.1380   -2.7830    2.4390 cd        1 6LX     -0.236400
     31 CBB        -5.6270   -2.9770    1.0450 c3        1 6LX     -0.002900
     32 CBG        -4.7330   -3.7550    0.1390 ca        1 6LX     -0.128300
     33 CBF        -3.9570   -3.1030   -0.8280 ca        1 6LX     -0.166500
     34 CBI        -3.2280   -3.8390   -1.7620 ca        1 6LX     -0.123500
     35 CBJ        -3.2680   -5.2340   -1.7420 ca        1 6LX     -0.112000
     36 CBK        -4.0420   -5.8910   -0.7840 ca        1 6LX     -0.123500
     37 CBH        -4.7730   -5.1570    0.1500 ca        1 6LX     -0.166500
     38 HAN        -1.1770    1.3110    3.5020 ha        1 6LX      0.147500
     39 HAO         0.8020    2.6600    4.0540 ha        1 6LX      0.174500
     40 HAZ1        2.5930    4.4510    2.1830 hc        1 6LX      0.080700
     41 HAZ2        3.0950    3.2980    3.4900 hc        1 6LX      0.080700
     42 HAZ3        3.7310    3.0930    1.8000 hc        1 6LX      0.080700
     43 HAX         2.2660    2.2490   -0.0030 ha        1 6LX      0.174500
     44 HAW         0.2800    0.8660   -0.5830 ha        1 6LX      0.147500
     45 HAU1       -0.9520   -2.0990    1.2520 hx        1 6LX      0.112700
     46 HAU2       -2.6970   -2.6270    1.1460 hx        1 6LX      0.112700
     47 HAJ        -4.1850   -0.7490    0.9460 hx        1 6LX      0.137700
     48 HBC1       -0.7790   -2.6370    3.6070 hc        1 6LX      0.104200
     49 HBC2       -2.5550   -2.9000    3.7980 hc        1 6LX      0.104200
     50 HBD1       -0.8610   -4.9440    3.5250 hx        1 6LX      0.123200
     51 HBD2       -0.8600   -4.5190    1.7440 hx        1 6LX      0.123200
     52 HBE1       -3.2330   -5.3360    3.3860 hn        1 6LX      0.475800
     53 HBE2       -3.3250   -4.8500    1.7970 hn        1 6LX      0.475800
     54 HAB        -4.0510    0.9710    3.5490 hc        1 6LX      0.076700
     55 HAA1       -2.7950    2.1440    1.8230 hc        1 6LX      0.064533
     56 HAA2       -3.9810    1.6680    0.5230 hc        1 6LX      0.064533
     57 HAA3       -4.4520    2.8520    1.8060 hc        1 6LX      0.064533
     58 HAC1       -6.2890    1.7900    2.7760 hc        1 6LX      0.064533
     59 HAC2       -6.3140    0.0190    3.1490 hc        1 6LX      0.064533
     60 HAC3       -6.2790    0.5870    1.4210 hc        1 6LX      0.064533
     61 HAF        -4.7470   -0.5680    6.6490 ha        1 6LX      0.181000
     62 HAP        -7.1920   -3.9900    7.7830 ha        1 6LX      0.188000
     63 HAQ        -6.9070   -4.9620    5.4960 ha        1 6LX      0.179000
     64 HBB1       -5.8490   -1.9750    0.5820 hc        1 6LX      0.094200
     65 HBB2       -6.6170   -3.5200    1.1090 hc        1 6LX      0.094200
     66 HBH        -5.4430   -5.6760    0.8600 ha        1 6LX      0.155000
     67 HBF        -3.9570   -2.0020   -0.8930 ha        1 6LX      0.155000
     68 HBK        -4.1170   -6.9910   -0.7970 ha        1 6LX      0.162500
     69 HBJ        -2.7190   -5.8140   -2.5020 ha        1 6LX      0.168000
     70 HBI        -2.6480   -3.3170   -2.5400 ha        1 6LX      0.162500
     71 HAK1       -2.0550   -0.4400    3.0050 hn        1 6LX      0.455800
     72 HBE3       -2.4430   -6.2130    2.2080 hn        1 6LX      0.475800
@<TRIPOS>BOND
     1    1    2 ar  
     2    1    7 ar  
     3    1   44 1   
     4    2    3 ar  
     5    2   43 1   
     6    3    4 1   
     7    3    5 ar  
     8    4   40 1   
     9    4   41 1   
    10    4   42 1   
    11    5    6 ar  
    12    5   39 1   
    13    6    7 ar  
    14    6   38 1   
    15    7    8 1   
    16    8    9 2   
    17    8   10 1   
    18   10   11 1   
    19   10   15 1   
    20   10   71 1   
    21   11   12 1   
    22   11   45 1   
    23   11   46 1   
    24   12   13 1   
    25   12   48 1   
    26   12   49 1   
    27   13   14 1   
    28   13   50 1   
    29   13   51 1   
    30   14   52 1   
    31   14   53 1   
    32   14   72 1   
    33   15   16 1   
    34   15   19 1   
    35   15   47 1   
    36   16   17 1   
    37   16   18 1   
    38   16   54 1   
    39   17   55 1   
    40   17   56 1   
    41   17   57 1   
    42   18   58 1   
    43   18   59 1   
    44   18   60 1   
    45   19   20 1   
    46   19   30 2   
    47   20   21 1   
    48   21   22 ar  
    49   21   27 ar  
    50   22   23 ar  
    51   22   61 1   
    52   23   24 1   
    53   23   25 ar  
    54   25   26 ar  
    55   25   62 1   
    56   26   27 ar  
    57   26   63 1   
    58   27   28 1   
    59   28   29 2   
    60   28   30 1   
    61   30   31 1   
    62   31   32 1   
    63   31   64 1   
    64   31   65 1   
    65   32   33 ar  
    66   32   37 ar  
    67   33   34 ar  
    68   33   67 1   
    69   34   35 ar  
    70   34   70 1   
    71   35   36 ar  
    72   35   69 1   
    73   36   37 ar  
    74   36   68 1   
    75   37   66 1   
@<TRIPOS>SUBSTRUCTURE
     1 6LX         1 TEMP              0 ****  ****    0 ROOT
