@<TRIPOS>MOLECULE
6LX
   70    66     1     0     0
SMALL
bcc


@<TRIPOS>ATOM
      1 CAW         3.1770    1.3910    2.3960 c1        1 6LX     -0.094000
      2 CAX         4.0000    2.3180    3.0510 c1        1 6LX     -0.135000
      3 CAY         4.0630    3.6390    2.5980 c1        1 6LX     -0.054000
      4 CAZ         5.1070    4.6270    3.2160 c3        1 6LX     -0.184000
      5 CAO         3.3060    4.0320    1.4940 c1        1 6LX     -0.123500
      6 CAN         2.4800    3.1000    0.8370 c1        1 6LX     -0.123500
      7 CAM         2.4170    1.7910    1.2860 c1        1 6LX     -0.115000
      8 CAL         1.5670    0.7600    0.5220 c2        1 6LX      0.349000
      9 OAV         1.5540   -0.4100    0.8820 o         1 6LX     -0.331000
     10 NAK         0.7160    1.1930   -0.5890 n         1 6LX     -0.327000
     11 CAU         1.2980    1.9090   -1.7070 c3        1 6LX     -0.025000
     12 CBC         2.2180    0.9670   -2.4930 c3        1 6LX     -0.197000
     13 CBD         2.8640    1.7430   -3.6680 c3        1 6LX     -0.073000
     14 NBE         3.8060    0.9010   -4.3400 n3        1 6LX     -0.347000
     15 CAJ        -0.6380    0.7820   -0.6400 c3        1 6LX      0.082000
     16 CAB        -1.5390    1.9190   -0.1390 c3        1 6LX     -0.115000
     17 CAA        -1.6690    3.0090   -1.2610 c3        1 6LX     -0.209500
     18 CAC        -2.9180    1.3690    0.2020 c3        1 6LX     -0.209500
     19 CAI        -0.8330   -0.4690    0.2490 c2        1 6LX      0.076000
     20 OAH        -0.2760   -0.4960    1.5780 os        1 6LX     -0.100000
     21 CAG        -0.6580   -1.5910    2.5310 c2        1 6LX      0.103000
     22 CAF        -0.0280   -1.6600    3.7890 c2        1 6LX     -0.152000
     23 CAE        -0.1910   -2.7970    4.5920 c1        1 6LX     -0.014000
     24 CLA         0.7050   -2.9430    6.0860 cl        1 6LX      0.000000
     25 CAP        -0.9870   -3.8740    4.1390 c2        1 6LX     -0.165000
     26 CAQ        -1.6060   -3.8070    2.9030 c1        1 6LX     -0.040000
     27 CAR        -1.4430   -2.6560    2.0860 c1        1 6LX     -0.201000
     28 CAS        -2.1280   -2.5770    0.7500 c2        1 6LX      0.315000
     29 OBA        -3.1070   -3.2710    0.5280 o         1 6LX     -0.314000
     30 CAT        -1.7590   -1.5420   -0.1800 c2        1 6LX     -0.236000
     31 CBB        -2.1890   -1.6540   -1.6840 c3        1 6LX     -0.074000
     32 CBG        -3.0950   -2.9530   -1.8870 c2        1 6LX     -0.072000
     33 CBF        -4.2740   -2.8740   -2.6390 c2        1 6LX     -0.137000
     34 CBI        -5.0150   -4.0260   -2.9010 c1        1 6LX     -0.132000
     35 CBJ        -4.5830   -5.2540   -2.4160 c1        1 6LX     -0.123500
     36 CBK        -3.4020   -5.3340   -1.6630 c1        1 6LX     -0.123500
     37 CBH        -2.6630   -4.1850   -1.4010 c1        1 6LX     -0.117000
     38 HAN         1.9570    3.3730    0.0750 ha        1 6LX      0.135250
     39 HAO         3.3480    4.9440    1.1800 ha        1 6LX      0.135250
     40 HAZ1        5.5760    5.1170    2.4840 hc        1 6LX      0.087667
     41 HAZ2        5.7470    4.1330    3.7330 hc        1 6LX      0.087667
     42 HAZ3        4.6420    5.2740    3.7990 hc        1 6LX      0.087667
     43 HAX         4.5290    2.0410    3.8220 ha        1 6LX      0.138000
     44 HAW         3.1330    0.4530    2.7180 ha        1 6LX      0.145000
     45 HAU1        1.8160    2.6670   -1.3740 h1        1 6LX      0.094500
     46 HAU2        0.5850    2.2340   -2.2950 h1        1 6LX      0.094500
     47 HAJ        -0.8760    0.5660   -1.5570 h1        1 6LX      0.119000
     48 HBC1        2.9230    0.6260   -1.8990 hc        1 6LX      0.099500
     49 HBC2        1.6870    0.2060   -2.8490 hc        1 6LX      0.099500
     50 HBD1        2.1650    2.0210   -4.2990 h1        1 6LX      0.063500
     51 HBD2        3.3240    2.5380   -3.3220 h1        1 6LX      0.063500
     52 HBE1        3.7230    1.0160   -5.2470 hn        1 6LX      0.146500
     53 HBE2        4.6680    1.1310   -4.0760 hn        1 6LX      0.146500
     54 HAB        -1.1430    2.3200    0.6620 hc        1 6LX      0.139000
     55 HAA1       -1.9930    2.5940   -2.0840 hc        1 6LX      0.077667
     56 HAA2       -2.3100    3.7130   -0.9680 hc        1 6LX      0.077667
     57 HAA3       -0.7920    3.4140   -1.4240 hc        1 6LX      0.077667
     58 HAC1       -2.8360    0.7020    0.9190 hc        1 6LX      0.077667
     59 HAC2       -3.3130    0.9450   -0.5980 hc        1 6LX      0.077667
     60 HAC3       -3.4990    2.1050    0.5040 hc        1 6LX      0.077667
     61 HAF         0.4850   -0.9080    4.1160 ha        1 6LX      0.179000
     62 HAP        -1.0980   -4.6570    4.6930 ha        1 6LX      0.154000
     63 HAQ        -2.1680   -4.5690    2.5840 ha        1 6LX      0.165000
     64 HBB1       -2.7120   -0.8370   -1.9440 hc        1 6LX      0.106500
     65 HBB2       -1.3790   -1.7240   -2.2550 hc        1 6LX      0.106500
     66 HBH        -1.8350   -4.2430   -0.8720 ha        1 6LX      0.155000
     67 HBF        -4.5710   -2.0340   -2.9710 ha        1 6LX      0.122000
     68 HBK        -3.0990   -6.1920   -1.3230 ha        1 6LX      0.135250
     69 HBJ        -5.1100   -6.0760   -2.6030 ha        1 6LX      0.135250
     70 HBI        -5.8530   -3.9680   -3.4350 ha        1 6LX      0.129000
@<TRIPOS>BOND
     1    1    7 1   
     2    1   44 1   
     3    2    3 1   
     4    2   43 1   
     5    3    4 1   
     6    4   40 1   
     7    4   41 1   
     8    4   42 1   
     9    5    6 1   
    10    5   39 1   
    11    6   38 1   
    12    7    8 1   
    13    8    9 1   
    14    8   10 1   
    15   10   11 1   
    16   10   15 1   
    17   11   12 1   
    18   11   45 1   
    19   11   46 1   
    20   12   13 1   
    21   12   48 1   
    22   12   49 1   
    23   13   14 1   
    24   13   50 1   
    25   13   51 1   
    26   14   52 1   
    27   14   53 1   
    28   15   16 1   
    29   15   19 1   
    30   15   47 1   
    31   16   17 1   
    32   16   18 1   
    33   16   54 1   
    34   17   55 1   
    35   17   56 1   
    36   17   57 1   
    37   18   58 1   
    38   18   59 1   
    39   18   60 1   
    40   19   20 1   
    41   19   30 1   
    42   20   21 1   
    43   21   22 1   
    44   21   27 1   
    45   22   23 1   
    46   22   61 1   
    47   23   25 1   
    48   25   26 1   
    49   25   62 1   
    50   26   63 1   
    51   27   28 1   
    52   28   29 1   
    53   28   30 1   
    54   30   31 1   
    55   31   32 1   
    56   31   64 1   
    57   31   65 1   
    58   32   33 1   
    59   32   37 1   
    60   33   34 1   
    61   33   67 1   
    62   34   70 1   
    63   35   36 1   
    64   35   69 1   
    65   36   68 1   
    66   37   66 1   
@<TRIPOS>SUBSTRUCTURE
     1 6LX         1 TEMP              0 ****  ****    0 ROOT
