@<TRIPOS>MOLECULE
6LX
   70    73     1     0     0
SMALL
bcc


@<TRIPOS>ATOM
      1 CAW         3.5640    0.1880   -1.1470 ca        1 6LX     -0.096000
      2 CAX         4.5500   -0.2960   -2.0030 ca        1 6LX     -0.133500
      3 CAY         5.4680   -1.2560   -1.5590 ca        1 6LX     -0.059300
      4 CAZ         6.5060   -1.7830   -2.4740 c3        1 6LX     -0.058800
      5 CAO         5.3910   -1.7190   -0.2390 ca        1 6LX     -0.133500
      6 CAN         4.4070   -1.2380    0.6220 ca        1 6LX     -0.096000
      7 CAM         3.4890   -0.2890    0.1650 ca        1 6LX     -0.136600
      8 CAL         2.4720    0.2760    1.1000 c         1 6LX      0.679700
      9 OAV         2.7760    1.1770    1.9080 o         1 6LX     -0.601100
     10 NAK         1.1600   -0.1970    1.0210 n         1 6LX     -0.460800
     11 CAU         0.8510   -1.3690    0.2370 c3        1 6LX      0.089000
     12 CBC         1.2140   -2.7110    0.8770 c3        1 6LX     -0.110400
     13 CBD         0.8960   -3.8330   -0.1100 c3        1 6LX      0.161800
     14 NBE         1.2340   -5.1430    0.3940 n3        1 6LX     -0.915800
     15 CAJ         0.1660    0.3700    1.9170 c3        1 6LX      0.147900
     16 CAB        -0.1510   -0.4870    3.1710 c3        1 6LX     -0.076700
     17 CAA         1.1200   -0.8310    3.9190 c3        1 6LX     -0.096600
     18 CAC        -1.0930    0.2760    4.0800 c3        1 6LX     -0.096600
     19 CAI        -1.1330    0.7180    1.1940 cc        1 6LX      0.122900
     20 OAH        -1.9190   -0.4200    1.0900 os        1 6LX     -0.226200
     21 CAG        -3.1590   -0.3010    0.4920 ca        1 6LX      0.150100
     22 CAF        -3.8920   -1.4960    0.3740 ca        1 6LX     -0.162000
     23 CAE        -5.1520   -1.4360   -0.2160 ca        1 6LX      0.067400
     24 CLA        -6.0630   -2.8590   -0.3760 cl        1 6LX     -0.076400
     25 CAP        -5.6800   -0.2210   -0.6820 ca        1 6LX     -0.163000
     26 CAQ        -4.9400    0.9460   -0.5540 ca        1 6LX     -0.036000
     27 CAR        -3.6660    0.9220    0.0350 ca        1 6LX     -0.218600
     28 CAS        -2.8630    2.1440    0.1820 c         1 6LX      0.590900
     29 OBA        -3.3020    3.2580   -0.1410 o         1 6LX     -0.546100
     30 CAT        -1.5170    1.9420    0.7540 cd        1 6LX     -0.234400
     31 CBB        -0.6660    3.1660    0.8420 c3        1 6LX      0.017100
     32 CBG         0.1110    3.4340   -0.4050 ca        1 6LX     -0.081300
     33 CBF         1.4980    3.2530   -0.4270 ca        1 6LX     -0.126000
     34 CBI         2.2250    3.5450   -1.5810 ca        1 6LX     -0.137500
     35 CBJ         1.5750    4.0200   -2.7190 ca        1 6LX     -0.132000
     36 CBK         0.1930    4.2060   -2.7000 ca        1 6LX     -0.137500
     37 CBH        -0.5370    3.9180   -1.5480 ca        1 6LX     -0.126000
     38 HAN         4.3590   -1.5980    1.6610 ha        1 6LX      0.146500
     39 HAO         6.1130   -2.4670    0.1200 ha        1 6LX      0.138000
     40 HAZ1        7.4520   -2.0040   -1.9200 hc        1 6LX      0.048033
     41 HAZ2        6.1490   -2.7320   -2.9470 hc        1 6LX      0.048033
     42 HAZ3        6.7350   -1.0510   -3.2870 hc        1 6LX      0.048033
     43 HAX         4.6100    0.0810   -3.0350 ha        1 6LX      0.138000
     44 HAW         2.8530    0.9570   -1.4950 ha        1 6LX      0.146500
     45 HAU1       -0.2530   -1.3690    0.0100 h1        1 6LX      0.062700
     46 HAU2        1.4000   -1.2830   -0.7470 h1        1 6LX      0.062700
     47 HAJ         0.5930    1.3510    2.3030 h1        1 6LX      0.110700
     48 HBC1        2.3050   -2.7290    1.1390 hc        1 6LX      0.055200
     49 HBC2        0.6340   -2.8560    1.8260 hc        1 6LX      0.055200
     50 HBD1       -0.1960   -3.7480   -0.3960 h1        1 6LX      0.026200
     51 HBD2        1.4960   -3.6720   -1.0510 h1        1 6LX      0.026200
     52 HBE1        0.8200   -5.3040    1.2900 hn        1 6LX      0.350300
     53 HBE2        0.9270   -5.8500   -0.2430 hn        1 6LX      0.350300
     54 HAB        -0.6570   -1.4370    2.8410 hc        1 6LX      0.059700
     55 HAA1        1.7530    0.0810    4.0560 hc        1 6LX      0.042200
     56 HAA2        0.8720   -1.2500    4.9230 hc        1 6LX      0.042200
     57 HAA3        1.7170   -1.5910    3.3590 hc        1 6LX      0.042200
     58 HAC1       -2.0430    0.5220    3.5470 hc        1 6LX      0.042200
     59 HAC2       -1.3430   -0.3460    4.9740 hc        1 6LX      0.042200
     60 HAC3       -0.6220    1.2250    4.4310 hc        1 6LX      0.042200
     61 HAF        -3.4670   -2.4390    0.7460 ha        1 6LX      0.166000
     62 HAP        -6.6780   -0.1950   -1.1450 ha        1 6LX      0.157000
     63 HAQ        -5.3380    1.9110   -0.9100 ha        1 6LX      0.167000
     64 HBB1       -1.3450    4.0470    1.0320 hc        1 6LX      0.069700
     65 HBB2        0.0350    3.1000    1.7170 hc        1 6LX      0.069700
     66 HBH        -1.6280    4.0750   -1.5270 ha        1 6LX      0.151000
     67 HBF         2.0200    2.8800    0.4700 ha        1 6LX      0.151000
     68 HBK        -0.3240    4.5860   -3.5940 ha        1 6LX      0.131000
     69 HBJ         2.1500    4.2530   -3.6270 ha        1 6LX      0.128000
     70 HBI         3.3170    3.4060   -1.5870 ha        1 6LX      0.131000
@<TRIPOS>BOND
     1    1    2 ar  
     2    1    7 ar  
     3    1   44 1   
     4    2    3 ar  
     5    2   43 1   
     6    3    4 1   
     7    3    5 ar  
     8    4   40 1   
     9    4   41 1   
    10    4   42 1   
    11    5    6 ar  
    12    5   39 1   
    13    6    7 ar  
    14    6   38 1   
    15    7    8 1   
    16    8    9 2   
    17    8   10 1   
    18   10   11 1   
    19   10   15 1   
    20   11   12 1   
    21   11   45 1   
    22   11   46 1   
    23   12   13 1   
    24   12   48 1   
    25   12   49 1   
    26   13   14 1   
    27   13   50 1   
    28   13   51 1   
    29   14   52 1   
    30   14   53 1   
    31   15   16 1   
    32   15   19 1   
    33   15   47 1   
    34   16   17 1   
    35   16   18 1   
    36   16   54 1   
    37   17   55 1   
    38   17   56 1   
    39   17   57 1   
    40   18   58 1   
    41   18   59 1   
    42   18   60 1   
    43   19   20 1   
    44   19   30 2   
    45   20   21 1   
    46   21   22 ar  
    47   21   27 ar  
    48   22   23 ar  
    49   22   61 1   
    50   23   24 1   
    51   23   25 ar  
    52   25   26 ar  
    53   25   62 1   
    54   26   27 ar  
    55   26   63 1   
    56   27   28 1   
    57   28   29 2   
    58   28   30 1   
    59   30   31 1   
    60   31   32 1   
    61   31   64 1   
    62   31   65 1   
    63   32   33 ar  
    64   32   37 ar  
    65   33   34 ar  
    66   33   67 1   
    67   34   35 ar  
    68   34   70 1   
    69   35   36 ar  
    70   35   69 1   
    71   36   37 ar  
    72   36   68 1   
    73   37   66 1   
@<TRIPOS>SUBSTRUCTURE
     1 6LX         1 TEMP              0 ****  ****    0 ROOT
