@<TRIPOS>MOLECULE
6M1
   19    19     1     0     0
SMALL
bcc


@<TRIPOS>ATOM
      1 OAC         0.1160   -0.6940    0.1270 o         1 6M1     -0.832300
      2 CAH         1.1980   -0.0440    0.0370 c         1 6M1      0.905200
      3 OAD         1.7290    0.5550    1.0150 o         1 6M1     -0.832300
      4 CAK         1.9220   -0.0200   -1.3030 ca        1 6M1     -0.151600
      5 CAI         2.3280    1.1910   -1.8770 ca        1 6M1     -0.036300
      6 CAA         1.9770    2.4810   -1.2360 c3        1 6M1     -0.059800
      7 CAF         3.0760    1.1940   -3.0620 ca        1 6M1     -0.181000
      8 CAE         3.4270   -0.0060   -3.6720 ca        1 6M1     -0.142000
      9 CAG         3.0100   -1.2170   -3.1310 ca        1 6M1     -0.178000
     10 CAJ         2.2270   -1.2410   -1.9560 ca        1 6M1      0.117600
     11 NAB         1.7230   -2.4840   -1.5040 nh        1 6M1     -0.815200
     12 H2          0.8900    2.6960   -1.3880 hc        1 6M1      0.044367
     13 H3          2.5690    3.3250   -1.6680 hc        1 6M1      0.044367
     14 H4          2.1670    2.4220   -0.1320 hc        1 6M1      0.044367
     15 H5          3.3940    2.1480   -3.5040 ha        1 6M1      0.104000
     16 H6          4.0310    0.0010   -4.5900 ha        1 6M1      0.099000
     17 H7          3.2830   -2.1570   -3.6310 ha        1 6M1      0.111000
     18 H8          1.0070   -2.3550   -0.8060 hn        1 6M1      0.378800
     19 H9          2.4610   -3.0580   -1.1480 hn        1 6M1      0.378800
@<TRIPOS>BOND
     1    1    2 1   
     2    2    3 1   
     3    2    4 1   
     4    4    5 ar  
     5    4   10 ar  
     6    5    6 1   
     7    5    7 ar  
     8    6   12 1   
     9    6   13 1   
    10    6   14 1   
    11    7    8 ar  
    12    7   15 1   
    13    8    9 ar  
    14    8   16 1   
    15    9   10 ar  
    16    9   17 1   
    17   10   11 1   
    18   11   18 1   
    19   11   19 1   
@<TRIPOS>SUBSTRUCTURE
     1 6M1         1 TEMP              0 ****  ****    0 ROOT
