@<TRIPOS>MOLECULE
6M1
   20    20     1     0     0
SMALL
bcc


@<TRIPOS>ATOM
      1 OAC        -0.0710    0.2400   -0.0460 o         1 6M1     -0.490000
      2 CAH         1.0700   -0.1980   -0.2040 c         1 6M1      0.645700
      3 OAD         1.5500   -0.8540    0.8980 oh        1 6M1     -0.589100
      4 CAK         1.9190   -0.1130   -1.4070 ca        1 6M1     -0.250600
      5 CAI         2.2730    1.1440   -1.9230 ca        1 6M1      0.019700
      6 CAA         1.8150    2.3850   -1.2530 c3        1 6M1     -0.077800
      7 CAF         3.0670    1.2220   -3.0690 ca        1 6M1     -0.184000
      8 CAE         3.4930    0.0570   -3.7070 ca        1 6M1     -0.061000
      9 CAG         3.1400   -1.1920   -3.2190 ca        1 6M1     -0.207000
     10 CAJ         2.3470   -1.3040   -2.0500 ca        1 6M1      0.185600
     11 NAB         2.0620   -2.5560   -1.5080 nh        1 6M1     -0.838200
     12 H2          2.3500    2.5150   -0.2790 hc        1 6M1      0.060033
     13 H3          2.0150    3.2830   -1.8870 hc        1 6M1      0.060033
     14 H4          0.7160    2.3320   -1.0430 hc        1 6M1      0.060033
     15 H5          3.3500    2.2050   -3.4730 ha        1 6M1      0.141000
     16 H6          4.1150    0.1290   -4.6130 ha        1 6M1      0.136000
     17 H7          3.4830   -2.0990   -3.7390 ha        1 6M1      0.138000
     18 H8          2.4700   -1.1190    0.7540 ho        1 6M1      0.437000
     19 H9          1.2570   -2.6000   -0.9230 hn        1 6M1      0.406800
     20 HAB3        2.1470   -3.3190   -2.1400 hn        1 6M1      0.406800
@<TRIPOS>BOND
     1    1    2 2   
     2    2    3 1   
     3    2    4 1   
     4    3   18 1   
     5    4    5 ar  
     6    4   10 ar  
     7    5    6 1   
     8    5    7 ar  
     9    6   12 1   
    10    6   13 1   
    11    6   14 1   
    12    7    8 ar  
    13    7   15 1   
    14    8    9 ar  
    15    8   16 1   
    16    9   10 ar  
    17    9   17 1   
    18   10   11 1   
    19   11   19 1   
    20   11   20 1   
@<TRIPOS>SUBSTRUCTURE
     1 6M1         1 TEMP              0 ****  ****    0 ROOT
