@<TRIPOS>MOLECULE
6M1
   19    19     1     0     0
SMALL
bcc


@<TRIPOS>ATOM
      1 OAC         0.0530    0.5180    0.0320 o         1 6M1     -0.832300
      2 CAH         1.1840   -0.0450    0.0290 c         1 6M1      0.905200
      3 OAD         1.6540   -0.6620    1.0290 o         1 6M1     -0.832300
      4 CAK         2.0000   -0.0190   -1.2570 ca        1 6M1     -0.151600
      5 CAI         2.2640    1.1900   -1.9140 ca        1 6M1     -0.036300
      6 CAA         1.8340    2.4780   -1.3190 c3        1 6M1     -0.059800
      7 CAF         2.9330    1.1910   -3.1450 ca        1 6M1     -0.181000
      8 CAE         3.3330   -0.0070   -3.7270 ca        1 6M1     -0.142000
      9 CAG         3.1030   -1.2140   -3.0770 ca        1 6M1     -0.178000
     10 CAJ         2.4610   -1.2360   -1.8200 ca        1 6M1      0.117600
     11 NAB         2.3520   -2.4700   -1.1360 nv        1 6M1     -0.815200
     12 H2          2.4870    2.7290   -0.4470 hc        1 6M1      0.044367
     13 H3          0.7790    2.3920   -0.9470 hc        1 6M1      0.044367
     14 H4          1.8970    3.3110   -2.0610 hc        1 6M1      0.044367
     15 H5          3.1330    2.1430   -3.6560 ha        1 6M1      0.104000
     16 H6          3.8390   -0.0020   -4.7020 ha        1 6M1      0.099000
     17 H7          3.4370   -2.1530   -3.5410 ha        1 6M1      0.111000
     18 H8          1.7000   -3.0740   -1.5960 hn        1 6M1      0.378800
     19 H9          2.0880   -2.3320   -0.1730 hn        1 6M1      0.378800
@<TRIPOS>BOND
     1    1    2 1   
     2    2    3 1   
     3    2    4 1   
     4    4    5 ar  
     5    4   10 ar  
     6    5    6 1   
     7    5    7 ar  
     8    6   12 1   
     9    6   13 1   
    10    6   14 1   
    11    7    8 ar  
    12    7   15 1   
    13    8    9 ar  
    14    8   16 1   
    15    9   10 ar  
    16    9   17 1   
    17   10   11 1   
    18   11   18 1   
    19   11   19 1   
@<TRIPOS>SUBSTRUCTURE
     1 6M1         1 TEMP              0 ****  ****    0 ROOT
