@<TRIPOS>MOLECULE
6M8
   48    50     1     0     0
SMALL
bcc


@<TRIPOS>ATOM
      1 C31         0.0000    0.0000    0.0000 c3        1 6M8      0.011600
      2 N29         1.4690    0.0000    0.0000 nx        1 6M8      0.030600
      3 C30         1.9950    0.0000    1.3720 c3        1 6M8      0.011600
      4 C28         1.9960   -1.1390   -0.7650 c3        1 6M8     -0.028200
      5 C27         3.5050   -0.9720   -0.9540 c3        1 6M8      0.033900
      6 C21         4.0450   -2.1400   -1.7390 ca        1 6M8     -0.100300
      7 C22         4.0990   -2.0780   -3.1190 ca        1 6M8     -0.139000
      8 C23         4.5930   -3.1480   -3.8420 ca        1 6M8     -0.034000
      9 C24         5.0350   -4.2810   -3.1870 ca        1 6M8     -0.185000
     10 C25         4.9820   -4.3450   -1.8020 ca        1 6M8      0.176100
     11 C26         4.4900   -3.2680   -1.0780 ca        1 6M8     -0.137000
     12 O12         5.4160   -5.4590   -1.1550 os        1 6M8     -0.296900
     13 C11         5.9130   -6.5260   -1.9640 c3        1 6M8      0.262700
     14 C10         5.8440   -9.7020    0.0760 ca        1 6M8      0.399600
     15 C09         5.4480   -8.6350   -0.7480 ca        1 6M8     -0.122300
     16 C08         6.3450   -7.6670   -1.0800 ca        1 6M8     -0.112300
     17 C07         7.6570   -7.7150   -0.6130 ca        1 6M8     -0.100000
     18 C06         8.0760   -8.7340    0.1880 ca        1 6M8     -0.063000
     19 C05         7.1770   -9.7480    0.5480 ca        1 6M8     -0.168300
     20 C04         7.5750  -10.8190    1.3770 ca        1 6M8     -0.033000
     21 C03         6.6520  -11.7700    1.6890 ca        1 6M8     -0.238300
     22 C02         5.3460  -11.6680    1.1890 ca        1 6M8      0.513200
     23 N02         4.4170  -12.6450    1.5160 nv        1 6M8     -0.598500
     24 N01         4.9790  -10.6640    0.4210 nb        1 6M8     -0.619000
     25 H311       -0.3610    0.0410   -1.0210 hx        1 6M8      0.073033
     26 H312       -0.3610    0.8630    0.5460 hx        1 6M8      0.073033
     27 H313       -0.3610   -0.9040    0.4750 hx        1 6M8      0.073033
     28 H301        1.3490    0.5960    2.0060 hx        1 6M8      0.073033
     29 H302        2.0290   -1.0160    1.7460 hx        1 6M8      0.073033
     30 H303        2.9930    0.4210    1.3760 hx        1 6M8      0.073033
     31 H281        1.5130   -1.1770   -1.7340 hx        1 6M8      0.084200
     32 H282        1.7980   -2.0580   -0.2270 hx        1 6M8      0.084200
     33 H271        3.7020   -0.0530   -1.4920 hc        1 6M8      0.033200
     34 H272        3.9880   -0.9350    0.0150 hc        1 6M8      0.033200
     35 H22         3.7450   -1.1940   -3.6350 ha        1 6M8      0.105000
     36 H26         4.4480   -3.3150    0.0040 ha        1 6M8      0.116000
     37 H23         4.6340   -3.0970   -4.9230 ha        1 6M8      0.114000
     38 H24         5.4200   -5.1190   -3.7540 ha        1 6M8      0.135000
     39 H111        5.1330   -6.8640   -2.6350 h1        1 6M8      0.009200
     40 H112        6.7610   -6.1770   -2.5420 h1        1 6M8      0.009200
     41 H07         8.3530   -6.9330   -0.8920 ha        1 6M8      0.106000
     42 H06         9.0990   -8.7600    0.5450 ha        1 6M8      0.110000
     43 H04         8.5880  -10.8820    1.7540 ha        1 6M8      0.113000
     44 H03         6.9460  -12.6410    2.2630 ha        1 6M8      0.120000
     45 H021        3.9420  -13.1460    0.7920 hn        1 6M8      0.277300
     46 H022        4.2510  -12.8750    2.4760 hn        1 6M8      0.277300
     47 H291        1.7770    0.8410   -0.4470 hn        1 6M8      0.252800
     48 H09         4.4110   -8.5380   -1.0480 ha        1 6M8      0.117000
@<TRIPOS>BOND
     1    1    2 1   
     2    1   25 1   
     3    1   26 1   
     4    1   27 1   
     5    2    3 1   
     6    2    4 1   
     7    2   47 1   
     8    3   28 1   
     9    3   29 1   
    10    3   30 1   
    11    4    5 1   
    12    4   31 1   
    13    4   32 1   
    14    5    6 1   
    15    5   33 1   
    16    5   34 1   
    17    6    7 ar  
    18    6   11 ar  
    19    7    8 ar  
    20    7   35 1   
    21    8    9 ar  
    22    8   37 1   
    23    9   10 ar  
    24    9   38 1   
    25   10   11 ar  
    26   10   12 1   
    27   11   36 1   
    28   12   13 1   
    29   13   16 1   
    30   13   39 1   
    31   13   40 1   
    32   14   15 ar  
    33   14   19 ar  
    34   14   24 ar  
    35   15   16 ar  
    36   15   48 1   
    37   16   17 ar  
    38   17   18 ar  
    39   17   41 1   
    40   18   19 ar  
    41   18   42 1   
    42   19   20 ar  
    43   20   21 ar  
    44   20   43 1   
    45   21   22 ar  
    46   21   44 1   
    47   22   23 1   
    48   22   24 ar  
    49   23   45 1   
    50   23   46 1   
@<TRIPOS>SUBSTRUCTURE
     1 6M8         1 TEMP              0 ****  ****    0 ROOT
