@<TRIPOS>MOLECULE
6MA
   37    35     1     0     0
SMALL
bcc


@<TRIPOS>ATOM
      1 OP3         2.2140   -2.1870    4.0780 o         1 6MA     -0.925167
      2 P           2.3220   -0.7000    4.2270 p5        1 6MA      1.343900
      3 OP1         0.9090   -0.0960    4.4750 o         1 6MA     -0.925167
      4 OP2         3.2400   -0.3710    5.4260 o         1 6MA     -0.925167
      5 O5'         2.9290   -0.0900    2.9210 os        1 6MA     -0.568200
      6 C5'         2.0790    0.1160    1.8130 c3        1 6MA      0.223400
      7 C4'         2.7080    1.1690    0.8670 c3        1 6MA      0.062100
      8 O4'         2.5050    0.7100   -0.6830 os        1 6MA     -0.439600
      9 C3'         2.1130    2.2770    0.9930 c3        1 6MA      0.108100
     10 O3'         3.0540    3.4040    0.7390 oh        1 6MA     -0.658800
     11 C2'         0.9570    2.2490   -0.1130 c3        1 6MA     -0.118400
     12 C1'         1.2830    1.0590   -1.0110 c3        1 6MA      0.255800
     13 N9          0.3620   -0.0310   -0.7480 n3        1 6MA     -0.120400
     14 C8          0.8190   -1.0570   -1.4870 c1        1 6MA      0.236400
     15 N7         -0.2380   -1.7020   -2.0020 ne        1 6MA     -0.453400
     16 C5         -1.3670   -1.0720   -1.5800 cg        1 6MA     -0.129000
     17 C6         -2.7240   -1.3440   -1.7920 c1        1 6MA      0.536600
     18 N1         -3.6510   -0.5770   -1.2260 n1        1 6MA     -0.608800
     19 C2         -3.2840    0.4710   -0.4410 c1        1 6MA      0.347300
     20 N3         -1.9580    0.7400   -0.2310 n1        1 6MA     -0.522800
     21 C4         -1.0040   -0.0450   -0.8100 c1        1 6MA     -0.027300
     22 N6         -3.8240   -2.3160   -1.9810 n3        1 6MA     -0.693800
     23 C1         -4.1610   -2.7690   -3.3010 c3        1 6MA      0.180100
     24 H5'         1.1690    0.4490    2.1390 h1        1 6MA     -0.002300
     25 H5''        1.9630   -0.7200    1.3330 h1        1 6MA     -0.002300
     26 H4'         3.6890    1.2790    1.0680 h1        1 6MA      0.048700
     27 H3'         1.7340    2.3510    1.8680 h1        1 6MA      0.151700
     28 HO3'        3.1260    3.8800    1.4480 ho        1 6MA      0.482000
     29 H2'         0.9660    3.0560   -0.6200 hc        1 6MA      0.050700
     30 H2''        0.0880    2.1240    0.3070 hc        1 6MA      0.050700
     31 H1'         1.2390    1.3380   -2.0090 h2        1 6MA      0.072700
     32 H8          1.7310   -1.2880   -1.6170 DU        1 6MA      0.347000
     33 H2         -3.9930    1.0540   -0.0100 ha        1 6MA      0.098500
     34 H61        -4.2510   -2.6990   -1.2270 hn        1 6MA      0.386800
     35 H11        -5.0870   -3.2390   -3.2820 h1        1 6MA      0.044367
     36 H12        -4.1990   -2.0040   -3.9070 h1        1 6MA      0.044367
     37 H13        -3.4580   -3.4200   -3.6240 h1        1 6MA      0.044367
@<TRIPOS>BOND
     1    1    2 1   
     2    2    3 1   
     3    2    4 1   
     4    2    5 1   
     5    5    6 1   
     6    6    7 1   
     7    6   24 1   
     8    6   25 1   
     9    7    8 1   
    10    7    9 1   
    11    7   26 1   
    12    8   12 1   
    13    9   10 1   
    14    9   11 1   
    15    9   27 1   
    16   10   28 1   
    17   11   12 1   
    18   11   29 1   
    19   11   30 1   
    20   12   13 1   
    21   12   31 1   
    22   13   14 2   
    23   13   21 1   
    24   14   15 2   
    25   15   16 1   
    26   16   21 3   
    27   17   18 3   
    28   17   22 1   
    29   19   20 3   
    30   19   33 1   
    31   22   23 1   
    32   22   34 1   
    33   23   35 1   
    34   23   36 1   
    35   23   37 1   
@<TRIPOS>SUBSTRUCTURE
     1 6MA         1 TEMP              0 ****  ****    0 ROOT
