@<TRIPOS>MOLECULE
6MC
   37    39     1     0     0
SMALL
bcc


@<TRIPOS>ATOM
      1 OP3         5.8250   -0.5350    0.8970 o         1 6MC     -0.929833
      2 P           4.3770   -0.3280    1.2100 p5        1 6MC      1.330900
      3 OP1         3.6600   -1.3790    2.0090 o         1 6MC     -0.929833
      4 OP2         3.9310    1.0880    1.5180 o         1 6MC     -0.929833
      5 O5'         3.5900   -0.4900   -0.3430 os        1 6MC     -0.553200
      6 C5'         2.2280   -0.4080   -0.2750 c3        1 6MC      0.227400
      7 C4'         1.7400    0.9830   -0.7470 c3        1 6MC      0.051100
      8 O4'         0.4930    0.8440   -1.4810 os        1 6MC     -0.434600
      9 C3'         1.5000    1.9830    0.4020 c3        1 6MC      0.156100
     10 O3'         2.4070    3.0590    0.3410 oh        1 6MC     -0.671800
     11 C2'         0.0800    2.5240    0.1780 c3        1 6MC     -0.130400
     12 C1'        -0.5520    1.5690   -0.8570 c3        1 6MC      0.252800
     13 N9         -1.5200    0.6320   -0.2800 na        1 6MC     -0.258000
     14 C8         -1.2410   -0.5680    0.4090 cc        1 6MC      0.462700
     15 N7         -2.3430   -1.2590    0.7610 nd        1 6MC     -0.593100
     16 C5         -3.4170   -0.4990    0.2800 ca        1 6MC     -0.201200
     17 C6         -4.8340   -0.6830    0.3210 ca        1 6MC      0.701200
     18 N1         -5.6450    0.2330   -0.2910 nb        1 6MC     -0.798000
     19 C2         -5.0400    1.3060   -0.8800 ca        1 6MC      0.639900
     20 N3         -3.7340    1.6250   -0.9820 nb        1 6MC     -0.713000
     21 C4         -2.9110    0.7010   -0.3940 ca        1 6MC      0.428800
     22 N6         -5.3590   -1.7630    1.0420 nh        1 6MC     -0.840900
     23 C1         -6.6930   -2.2150    0.7940 c3        1 6MC      0.196100
     24 H5'         1.7630   -1.1700   -0.9700 h1        1 6MC     -0.004800
     25 H5''        1.8650   -0.6040    0.7760 h1        1 6MC     -0.004800
     26 H4'         2.4710    1.4030   -1.4890 h1        1 6MC      0.081700
     27 H3'         1.5930    1.4710    1.4000 h1        1 6MC      0.103700
     28 HO3'        3.2510    2.7040    0.7080 ho        1 6MC      0.501000
     29 H2'        -0.4890    2.5700    1.1340 hc        1 6MC      0.054700
     30 H2''        0.1200    3.5520   -0.2590 hc        1 6MC      0.054700
     31 H1'        -1.0970    2.1240   -1.6750 h2        1 6MC      0.072700
     32 H8         -0.1920   -0.8670    0.6080 h5        1 6MC      0.128800
     33 H2         -5.7420    2.0240   -1.3510 h5        1 6MC      0.028100
     34 H61        -4.6890   -2.4850    1.2150 hn        1 6MC      0.431800
     35 H11        -6.9210   -3.0520    1.5060 h1        1 6MC      0.029700
     36 H12        -7.4190   -1.3780    0.9740 h1        1 6MC      0.029700
     37 H13        -6.8410   -2.5880   -0.2570 h1        1 6MC      0.029700
@<TRIPOS>BOND
     1    1    2 1   
     2    2    3 1   
     3    2    4 1   
     4    2    5 1   
     5    5    6 1   
     6    6    7 1   
     7    6   24 1   
     8    6   25 1   
     9    7    8 1   
    10    7    9 1   
    11    7   26 1   
    12    8   12 1   
    13    9   10 1   
    14    9   11 1   
    15    9   27 1   
    16   10   28 1   
    17   11   12 1   
    18   11   29 1   
    19   11   30 1   
    20   12   13 1   
    21   12   31 1   
    22   13   14 1   
    23   13   21 1   
    24   14   15 2   
    25   14   32 1   
    26   15   16 1   
    27   16   17 ar  
    28   16   21 ar  
    29   17   18 ar  
    30   17   22 1   
    31   18   19 ar  
    32   19   20 ar  
    33   19   33 1   
    34   20   21 ar  
    35   22   23 1   
    36   22   34 1   
    37   23   35 1   
    38   23   36 1   
    39   23   37 1   
@<TRIPOS>SUBSTRUCTURE
     1 6MC         1 TEMP              0 ****  ****    0 ROOT
