@<TRIPOS>MOLECULE
6MD
   36    38     1     0     0
SMALL
bcc


@<TRIPOS>ATOM
      1 O5'         0.6440   -1.9170    0.3920 oh        1 6MD     -0.602800
      2 C5'         1.9030   -1.3420    0.1120 c3        1 6MD      0.110400
      3 C4'         2.2870   -0.2980    1.1610 c3        1 6MD      0.082100
      4 O4'         1.7330   -0.6600    2.4400 os        1 6MD     -0.397600
      5 C3'         3.8100   -0.1660    1.3250 c3        1 6MD      0.088100
      6 O3'         4.1200    1.2100    1.2370 oh        1 6MD     -0.583800
      7 C2'         4.1290   -0.6950    2.7440 c3        1 6MD      0.088100
      8 O2'         4.7280    0.2840    3.5510 oh        1 6MD     -0.564800
      9 C1'         2.7410   -1.1100    3.3370 c3        1 6MD      0.215800
     10 N9          2.5910   -2.5450    3.5570 na        1 6MD     -0.275000
     11 C8          1.6680   -3.4220    2.9490 cc        1 6MD      0.517700
     12 N7          1.6750   -4.6680    3.4650 nd        1 6MD     -0.599100
     13 C5          2.6330   -4.6350    4.4810 ca        1 6MD     -0.128200
     14 C6          3.1200   -5.5710    5.4100 ca        1 6MD      0.518200
     15 N6          2.5670   -6.9440    5.4060 n4        1 6MD     -0.736700
     16 N1          4.0780   -5.2490    6.3170 nb        1 6MD     -0.685000
     17 C2          4.5450   -3.9690    6.2910 ca        1 6MD      0.665900
     18 N3          4.1850   -2.9470    5.4690 nb        1 6MD     -0.615000
     19 C4          3.2310   -3.2780    4.5670 ca        1 6MD      0.448800
     20 CZ          3.5580   -7.9420    4.9340 c3        1 6MD      0.087100
     21 H1         -0.0030   -1.2020    0.4470 ho        1 6MD      0.423000
     22 H2          1.9020   -0.8600   -0.9020 h1        1 6MD      0.064700
     23 H3          2.6130   -2.2120    0.1130 h1        1 6MD      0.064700
     24 H4          1.8170    0.6990    0.9260 h1        1 6MD      0.118700
     25 H5          4.3660   -0.7480    0.5430 h1        1 6MD      0.075700
     26 H6          5.0840    1.2880    1.2420 ho        1 6MD      0.431000
     27 H7          4.8650   -1.5420    2.7260 h1        1 6MD      0.107700
     28 H8          4.2160    1.1050    3.4660 ho        1 6MD      0.430000
     29 H9          2.5480   -0.5890    4.3250 h2        1 6MD      0.124700
     30 H10         1.0150   -3.0740    2.1190 h5        1 6MD      0.142800
     31 H11         1.7420   -6.9530    4.7890 hn        1 6MD      0.473800
     32 H12         5.3280   -3.7310    7.0490 h5        1 6MD      0.098100
     33 H13         4.4440   -7.9520    5.6270 hx        1 6MD      0.112367
     34 H14         3.8970   -7.6710    3.8980 hx        1 6MD      0.112367
     35 H15         3.0700   -8.9540    4.9240 hx        1 6MD      0.112367
     36 H62         2.2680   -7.1840    6.3620 hn        1 6MD      0.473800
@<TRIPOS>BOND
     1    1    2 1   
     2    1   21 1   
     3    2    3 1   
     4    2   22 1   
     5    2   23 1   
     6    3    4 1   
     7    3    5 1   
     8    3   24 1   
     9    4    9 1   
    10    5    6 1   
    11    5    7 1   
    12    5   25 1   
    13    6   26 1   
    14    7    8 1   
    15    7    9 1   
    16    7   27 1   
    17    8   28 1   
    18    9   10 1   
    19    9   29 1   
    20   10   11 1   
    21   10   19 1   
    22   11   12 2   
    23   11   30 1   
    24   12   13 1   
    25   13   14 ar  
    26   13   19 ar  
    27   14   15 1   
    28   14   16 ar  
    29   15   20 1   
    30   15   31 1   
    31   15   36 1   
    32   16   17 ar  
    33   17   18 ar  
    34   17   32 1   
    35   18   19 ar  
    36   20   33 1   
    37   20   34 1   
    38   20   35 1   
@<TRIPOS>SUBSTRUCTURE
     1 6MD         1 TEMP              0 ****  ****    0 ROOT
