@<TRIPOS>MOLECULE
6MD
   35    32     1     0     0
SMALL
bcc


@<TRIPOS>ATOM
      1 O5'        -2.5680    3.0390   -3.2770 oh        1 6MD     -0.317000
      2 C5'        -1.2070    2.7110   -3.2800 c3        1 6MD     -0.035000
      3 C4'        -0.6830    2.6950   -1.8390 c3        1 6MD     -0.060000
      4 O4'        -0.9970    1.5770   -1.2580 os        1 6MD     -0.275000
      5 C3'         0.8520    2.7320   -1.8340 c3        1 6MD      0.023000
      6 O3'         1.2860    3.9220   -1.3770 oh        1 6MD     -0.300000
      7 C2'         1.2940    1.5900   -0.8720 c3        1 6MD     -0.029000
      8 O2'         2.2880    2.1000    0.1050 oh        1 6MD     -0.321000
      9 C1'         0.2170    1.2320   -0.2650 c3        1 6MD      0.137000
     10 N9          0.2440   -0.1870    0.0060 n3        1 6MD     -0.212000
     11 C8         -0.0060   -1.1410   -0.9050 c1        1 6MD     -0.035000
     12 N7         -0.1610   -2.3240   -0.2450 n2        1 6MD     -0.116000
     13 C5         -0.0040   -2.0900    1.0800 c1        1 6MD     -0.233000
     14 C6         -0.0560   -2.9350    2.1920 c1        1 6MD      0.236000
     15 N6         -0.2280   -4.3830    2.1630 n2        1 6MD     -0.298000
     16 N1          0.1430   -2.4380    3.4240 n1        1 6MD     -0.261000
     17 C2          0.3980   -1.0980    3.5910 c1        1 6MD      0.026000
     18 N3          0.4490   -0.2700    2.5030 n1        1 6MD     -0.231000
     19 C4          0.2460   -0.7760    1.2450 c1        1 6MD      0.057000
     20 CZ         -0.9430   -5.0160    3.1710 c3        1 6MD     -0.071000
     21 H1         -2.8470    3.1630   -4.1180 ho        1 6MD      0.207000
     22 H2         -1.0860    1.8260   -3.6820 h1        1 6MD      0.096500
     23 H3         -0.7270    3.3570   -3.7850 h1        1 6MD      0.096500
     24 H4         -1.0490    3.4660   -1.3280 h1        1 6MD      0.141000
     25 H5          1.2090    2.5620   -2.7680 h1        1 6MD      0.134000
     26 H6          1.7080    4.3520   -2.0270 ho        1 6MD      0.225000
     27 H7          1.6630    0.8510   -1.3730 h1        1 6MD      0.126000
     28 H8          3.0950    1.8630   -0.1470 ho        1 6MD      0.233000
     29 H9          0.1240    1.7200    0.5500 h2        1 6MD      0.146000
     30 H10        -0.0110   -1.0220   -1.8570 DU        1 6MD      0.210000
     31 H11         0.1270   -4.8710    1.4810 hn        1 6MD      0.250000
     32 H12         0.5450   -0.7320    4.4970 ha        1 6MD      0.189000
     33 H13        -1.8670   -4.7510    3.1230 h1        1 6MD      0.087000
     34 H14        -0.8770   -5.9660    3.0620 h1        1 6MD      0.087000
     35 H15        -0.5740   -4.7610    4.0440 h1        1 6MD      0.087000
@<TRIPOS>BOND
     1    1    2 1   
     2    1   21 1   
     3    2    3 1   
     4    2   22 1   
     5    2   23 1   
     6    3    4 1   
     7    3    5 1   
     8    3   24 1   
     9    4    9 1   
    10    5    6 1   
    11    5    7 1   
    12    5   25 1   
    13    6   26 1   
    14    7    8 1   
    15    7    9 1   
    16    7   27 1   
    17    8   28 1   
    18    9   10 1   
    19    9   29 1   
    20   10   11 1   
    21   10   19 1   
    22   11   12 1   
    23   12   13 1   
    24   13   19 1   
    25   14   16 1   
    26   15   20 1   
    27   15   31 1   
    28   17   18 1   
    29   17   32 1   
    30   20   33 1   
    31   20   34 1   
    32   20   35 1   
@<TRIPOS>SUBSTRUCTURE
     1 6MD         1 TEMP              0 ****  ****    0 ROOT
