@<TRIPOS>MOLECULE
6MD
   35    37     1     0     0
SMALL
bcc


@<TRIPOS>ATOM
      1 O5'         0.4350   -1.4830    0.3350 oh        1 6MD     -0.590800
      2 C5'         1.8340   -1.2630    0.2850 c3        1 6MD      0.106400
      3 C4'         2.1610   -0.1520    1.2830 c3        1 6MD      0.092100
      4 O4'         1.6470   -0.4650    2.5840 os        1 6MD     -0.384600
      5 C3'         3.6900    0.0320    1.4130 c3        1 6MD      0.128100
      6 O3'         4.0640    1.3770    1.2600 oh        1 6MD     -0.573800
      7 C2'         4.0460   -0.5650    2.7950 c3        1 6MD      0.081100
      8 O2'         4.5990    0.4590    3.5920 oh        1 6MD     -0.591800
      9 C1'         2.6760   -1.0080    3.4120 c3        1 6MD      0.219800
     10 N9          2.5260   -2.4410    3.5260 na        1 6MD     -0.295000
     11 C8          1.4960   -3.2560    2.9950 cc        1 6MD      0.423700
     12 N7          1.5960   -4.5420    3.3610 nd        1 6MD     -0.554100
     13 C5          2.7330   -4.6060    4.1810 ca        1 6MD     -0.221200
     14 C6          3.3740   -5.6830    4.8840 ca        1 6MD      0.751200
     15 N6          2.8900   -6.9660    4.7500 nh        1 6MD     -0.851900
     16 N1          4.4890   -5.4050    5.6400 nb        1 6MD     -0.786000
     17 C2          4.9380   -4.1220    5.6570 ca        1 6MD      0.684900
     18 N3          4.4520   -3.0180    5.0430 nb        1 6MD     -0.754000
     19 C4          3.3330   -3.2840    4.3030 ca        1 6MD      0.445800
     20 CZ          3.3690   -8.0530    5.5460 c3        1 6MD      0.202100
     21 H1          0.2240   -2.0700   -0.4010 ho        1 6MD      0.405000
     22 H2          2.1500   -0.9390   -0.7420 h1        1 6MD      0.036200
     23 H3          2.3710   -2.2110    0.5610 h1        1 6MD      0.036200
     24 H4          1.6410    0.8010    0.9930 h1        1 6MD      0.106700
     25 H5          4.2380   -0.5090    0.5940 h1        1 6MD      0.091700
     26 H6          3.8270    1.8530    2.0680 ho        1 6MD      0.426000
     27 H7          4.7640   -1.4190    2.6880 h1        1 6MD      0.083700
     28 H8          5.0200    0.0290    4.3480 ho        1 6MD      0.432000
     29 H9          2.5240   -0.5410    4.4320 h2        1 6MD      0.106700
     30 H10         0.7200   -2.8140    2.3480 h5        1 6MD      0.102800
     31 H11         1.9900   -7.0560    4.3330 hn        1 6MD      0.451800
     32 H12         5.8450   -3.9600    6.2800 h5        1 6MD      0.050100
     33 H13         2.8900   -9.0010    5.1820 h1        1 6MD      0.046700
     34 H14         3.1230   -7.9120    6.6340 h1        1 6MD      0.046700
     35 H15         4.4840   -8.1440    5.4460 h1        1 6MD      0.046700
@<TRIPOS>BOND
     1    1    2 1   
     2    1   21 1   
     3    2    3 1   
     4    2   22 1   
     5    2   23 1   
     6    3    4 1   
     7    3    5 1   
     8    3   24 1   
     9    4    9 1   
    10    5    6 1   
    11    5    7 1   
    12    5   25 1   
    13    6   26 1   
    14    7    8 1   
    15    7    9 1   
    16    7   27 1   
    17    8   28 1   
    18    9   10 1   
    19    9   29 1   
    20   10   11 1   
    21   10   19 1   
    22   11   12 2   
    23   11   30 1   
    24   12   13 1   
    25   13   14 ar  
    26   13   19 ar  
    27   14   15 1   
    28   14   16 ar  
    29   15   20 1   
    30   15   31 1   
    31   16   17 ar  
    32   17   18 ar  
    33   17   32 1   
    34   18   19 ar  
    35   20   33 1   
    36   20   34 1   
    37   20   35 1   
@<TRIPOS>SUBSTRUCTURE
     1 6MD         1 TEMP              0 ****  ****    0 ROOT
