@<TRIPOS>MOLECULE
6MD
   35    37     1     0     0
SMALL
bcc


@<TRIPOS>ATOM
      1 O5'         0.5450   -1.4860    0.2350 oh        1 6MD     -0.590800
      2 C5'         1.9350   -1.2160    0.2680 c3        1 6MD      0.106400
      3 C4'         2.1680   -0.1240    1.3120 c3        1 6MD      0.092100
      4 O4'         1.5970   -0.4940    2.5740 os        1 6MD     -0.384600
      5 C3'         3.6800    0.1090    1.5300 c3        1 6MD      0.128100
      6 O3'         4.0130    1.4700    1.4350 oh        1 6MD     -0.573800
      7 C2'         3.9830   -0.5160    2.9130 c3        1 6MD      0.081100
      8 O2'         4.4550    0.5030    3.7670 oh        1 6MD     -0.591800
      9 C1'         2.5990   -1.0240    3.4420 c3        1 6MD      0.219800
     10 N9          2.4950   -2.4640    3.5080 na        1 6MD     -0.295000
     11 C8          1.5260   -3.3000    2.8990 cc        1 6MD      0.423700
     12 N7          1.6530   -4.5920    3.2340 nd        1 6MD     -0.554100
     13 C5          2.7460   -4.6400    4.1130 ca        1 6MD     -0.221200
     14 C6          3.3880   -5.7130    4.8210 ca        1 6MD      0.751200
     15 N6          2.9580   -7.0090    4.6250 nu        1 6MD     -0.851900
     16 N1          4.4490   -5.4190    5.6440 nb        1 6MD     -0.786000
     17 C2          4.8490   -4.1220    5.7210 ca        1 6MD      0.684900
     18 N3          4.3570   -3.0180    5.1120 nb        1 6MD     -0.754000
     19 C4          3.2900   -3.3010    4.3040 ca        1 6MD      0.445800
     20 CZ          3.4330   -8.1010    5.4160 c3        1 6MD      0.202100
     21 H1          0.3940   -2.0580   -0.5270 ho        1 6MD      0.405000
     22 H2          2.4910   -2.1520    0.5460 h1        1 6MD      0.036200
     23 H3          2.2930   -0.8510   -0.7320 h1        1 6MD      0.036200
     24 H4          1.6290    0.8180    1.0210 h1        1 6MD      0.106700
     25 H5          4.2900   -0.3890    0.7280 h1        1 6MD      0.091700
     26 H6          3.7160    1.9130    2.2420 ho        1 6MD      0.426000
     27 H7          4.7370   -1.3410    2.8220 h1        1 6MD      0.083700
     28 H8          4.8500    0.0650    4.5330 ho        1 6MD      0.432000
     29 H9          2.3760   -0.5930    4.4650 h2        1 6MD      0.106700
     30 H10         0.7700   -2.8660    2.2230 h5        1 6MD      0.102800
     31 H11         2.0860   -7.1170    4.1570 hn        1 6MD      0.451800
     32 H12         5.7140   -3.9470    6.3970 h5        1 6MD      0.050100
     33 H13         3.0100   -9.0530    5.0000 h1        1 6MD      0.046700
     34 H14         3.1230   -8.0010    6.4920 h1        1 6MD      0.046700
     35 H15         4.5550   -8.1500    5.3750 h1        1 6MD      0.046700
@<TRIPOS>BOND
     1    1    2 1   
     2    1   21 1   
     3    2    3 1   
     4    2   22 1   
     5    2   23 1   
     6    3    4 1   
     7    3    5 1   
     8    3   24 1   
     9    4    9 1   
    10    5    6 1   
    11    5    7 1   
    12    5   25 1   
    13    6   26 1   
    14    7    8 1   
    15    7    9 1   
    16    7   27 1   
    17    8   28 1   
    18    9   10 1   
    19    9   29 1   
    20   10   11 1   
    21   10   19 1   
    22   11   12 2   
    23   11   30 1   
    24   12   13 1   
    25   13   14 ar  
    26   13   19 ar  
    27   14   15 1   
    28   14   16 ar  
    29   15   20 1   
    30   15   31 1   
    31   16   17 ar  
    32   17   18 ar  
    33   17   32 1   
    34   18   19 ar  
    35   20   33 1   
    36   20   34 1   
    37   20   35 1   
@<TRIPOS>SUBSTRUCTURE
     1 6MD         1 TEMP              0 ****  ****    0 ROOT
