@<TRIPOS>MOLECULE
6MD
   35    37     1     0     0
SMALL
bcc


@<TRIPOS>ATOM
      1 O5'        -2.9250   -2.3480    1.3010 oh        1 6MD     -0.588800
      2 C5'        -3.0210   -1.6370    0.0870 c3        1 6MD      0.118400
      3 C4'        -3.2110   -0.1420    0.3400 c3        1 6MD      0.047100
      4 O4'        -2.0430    0.3850    0.9800 os        1 6MD     -0.412600
      5 C3'        -3.4480    0.6560   -0.9540 c3        1 6MD      0.080100
      6 O3'        -4.6020    1.4680   -0.8610 oh        1 6MD     -0.586800
      7 C2'        -2.2340    1.6030   -1.0980 c3        1 6MD      0.130100
      8 O2'        -2.5580    2.9650   -1.0060 oh        1 6MD     -0.562800
      9 C1'        -1.2790    1.2020    0.0770 c3        1 6MD      0.210800
     10 N9         -0.0820    0.5280   -0.3540 na        1 6MD     -0.284000
     11 C8          0.0550   -0.4620   -1.3640 cc        1 6MD      0.395700
     12 N7          1.2760   -1.0040   -1.4280 nd        1 6MD     -0.533100
     13 C5          2.0080   -0.3830   -0.4030 ca        1 6MD     -0.234200
     14 C6          3.3660   -0.5160    0.0430 ca        1 6MD      0.755200
     15 N6          4.2240   -1.3590   -0.6270 nh        1 6MD     -0.854900
     16 N1          3.7850    0.2410    1.1120 nb        1 6MD     -0.786000
     17 C2          2.8870    1.0960    1.6690 ca        1 6MD      0.688900
     18 N3          1.5930    1.3360    1.3500 nb        1 6MD     -0.731000
     19 C4          1.1640    0.5770    0.3000 ca        1 6MD      0.473800
     20 CZ          5.5430   -1.6500   -0.1550 c3        1 6MD      0.204100
     21 H1         -2.1960   -1.9580    1.8020 ho        1 6MD      0.419000
     22 H2         -2.1040   -1.8100   -0.5390 h1        1 6MD      0.050200
     23 H3         -3.9220   -2.0620   -0.4300 h1        1 6MD      0.050200
     24 H4         -4.0430    0.0170    1.0820 h1        1 6MD      0.095700
     25 H5         -3.5270   -0.0260   -1.8430 h1        1 6MD      0.060700
     26 H6         -5.3590    0.8760   -0.7720 ho        1 6MD      0.419000
     27 H7         -1.7480    1.4940   -2.1050 h1        1 6MD      0.101700
     28 H8         -3.2100    3.0780   -0.3000 ho        1 6MD      0.427000
     29 H9         -0.9760    2.1070    0.6870 h2        1 6MD      0.135700
     30 H10        -0.7800   -0.7100   -2.0300 h5        1 6MD      0.066800
     31 H11         3.8130   -1.9830   -1.2840 hn        1 6MD      0.451800
     32 H12         3.2810    1.6880    2.5250 h5        1 6MD      0.054100
     33 H13         6.1190   -0.6980   -0.0020 h1        1 6MD      0.046700
     34 H14         5.5190   -2.2090    0.8200 h1        1 6MD      0.046700
     35 H15         6.0670   -2.2760   -0.9240 h1        1 6MD      0.046700
@<TRIPOS>BOND
     1    1    2 1   
     2    1   21 1   
     3    2    3 1   
     4    2   22 1   
     5    2   23 1   
     6    3    4 1   
     7    3    5 1   
     8    3   24 1   
     9    4    9 1   
    10    5    6 1   
    11    5    7 1   
    12    5   25 1   
    13    6   26 1   
    14    7    8 1   
    15    7    9 1   
    16    7   27 1   
    17    8   28 1   
    18    9   10 1   
    19    9   29 1   
    20   10   11 1   
    21   10   19 1   
    22   11   12 2   
    23   11   30 1   
    24   12   13 1   
    25   13   14 ar  
    26   13   19 ar  
    27   14   15 1   
    28   14   16 ar  
    29   15   20 1   
    30   15   31 1   
    31   16   17 ar  
    32   17   18 ar  
    33   17   32 1   
    34   18   19 ar  
    35   20   33 1   
    36   20   34 1   
    37   20   35 1   
@<TRIPOS>SUBSTRUCTURE
     1 6MD         1 TEMP              0 ****  ****    0 ROOT
