@<TRIPOS>MOLECULE
6ME
   27    28     1     0     0
SMALL
bcc


@<TRIPOS>ATOM
      1 N1         -0.0380    0.0000   -0.0710 nb        1 6ME     -0.783000
      2 C2          1.3460   -0.0060   -0.0270 ca        1 6ME      0.890900
      3 N3          2.1090   -0.0580    1.1250 nb        1 6ME     -0.815000
      4 C4          1.4270   -0.0960    2.3090 ca        1 6ME      0.695200
      5 C5         -0.7160   -0.1130    3.6590 c3        1 6ME     -0.005100
      6 C6         -2.2150   -0.3530    3.5400 c3        1 6ME     -0.064700
      7 C7         -2.7880    0.4490    2.3860 c3        1 6ME     -0.075400
      8 C8         -2.1870   -0.0060    1.0750 c3        1 6ME     -0.135700
      9 C13        -2.9100   -0.0060    4.8380 c3        1 6ME     -0.091100
     10 C4A        -0.0100   -0.0810    2.3570 ca        1 6ME     -0.403900
     11 C8A        -0.6820   -0.0220    1.1180 ca        1 6ME      0.508600
     12 NA2         2.0330    0.1280   -1.2450 nv        1 6ME     -0.922500
     13 NA4         2.1670   -0.2180    3.4860 nv        1 6ME     -0.934500
     14 H5         -0.2900   -0.9260    4.3090 hc        1 6ME      0.041700
     15 H5A        -0.5420    0.8650    4.1890 hc        1 6ME      0.041700
     16 H6         -2.3810   -1.4480    3.3260 hc        1 6ME      0.052700
     17 H7         -3.9010    0.3190    2.3480 hc        1 6ME      0.047200
     18 H7A        -2.5810    1.5400    2.5460 hc        1 6ME      0.047200
     19 H8         -2.5470    0.6630    0.2480 hc        1 6ME      0.067200
     20 H8A        -2.5360   -1.0490    0.8380 hc        1 6ME      0.067200
     21 H13        -3.9960   -0.2560    4.7740 hc        1 6ME      0.035033
     22 H13A       -2.4620   -0.5820    5.6830 hc        1 6ME      0.035033
     23 H13B       -2.8110    1.0840    5.0600 hc        1 6ME      0.035033
     24 HNA2        1.5170   -0.1070   -2.0610 hn        1 6ME      0.420300
     25 HNAA        2.9850   -0.1580   -1.2410 hn        1 6ME      0.420300
     26 HNA4        3.1480   -0.0610    3.4190 hn        1 6ME      0.412800
     27 HNAB        1.7340    0.1680    4.2930 hn        1 6ME      0.412800
@<TRIPOS>BOND
     1    1    2 ar  
     2    1   11 ar  
     3    2    3 ar  
     4    2   12 1   
     5    3    4 ar  
     6    4   10 ar  
     7    4   13 1   
     8    5    6 1   
     9    5   10 1   
    10    5   14 1   
    11    5   15 1   
    12    6    7 1   
    13    6    9 1   
    14    6   16 1   
    15    7    8 1   
    16    7   17 1   
    17    7   18 1   
    18    8   11 1   
    19    8   19 1   
    20    8   20 1   
    21    9   21 1   
    22    9   22 1   
    23    9   23 1   
    24   10   11 ar  
    25   12   24 1   
    26   12   25 1   
    27   13   26 1   
    28   13   27 1   
@<TRIPOS>SUBSTRUCTURE
     1 6ME         1 TEMP              0 ****  ****    0 ROOT
