@<TRIPOS>MOLECULE
6ME
   27    28     1     0     0
SMALL
bcc


@<TRIPOS>ATOM
      1 N1         -0.0290   -0.0050   -0.0690 nb        1 6ME     -0.783000
      2 C2          1.3550    0.0040   -0.0200 ca        1 6ME      0.890900
      3 N3          2.1140   -0.0340    1.1350 nb        1 6ME     -0.815000
      4 C4          1.4280   -0.0730    2.3170 ca        1 6ME      0.695200
      5 C5         -0.7200   -0.1060    3.6590 c3        1 6ME     -0.005100
      6 C6         -2.2150   -0.3640    3.5350 c3        1 6ME     -0.064700
      7 C7         -2.7930    0.4260    2.3750 c3        1 6ME     -0.075400
      8 C8         -2.1820   -0.0290    1.0690 c3        1 6ME     -0.135700
      9 C13        -2.9190   -0.0180    4.8290 c3        1 6ME     -0.091100
     10 C4A        -0.0090   -0.0730    2.3590 ca        1 6ME     -0.403900
     11 C8A        -0.6770   -0.0290    1.1180 ca        1 6ME      0.508600
     12 NA2         2.0460    0.1390   -1.2350 nh        1 6ME     -0.922500
     13 NA4         2.1650   -0.1810    3.4980 nh        1 6ME     -0.934500
     14 H5         -0.2880   -0.9110    4.3150 hc        1 6ME      0.041700
     15 H5A        -0.5590    0.8760    4.1850 hc        1 6ME      0.041700
     16 H6         -2.3690   -1.4610    3.3260 hc        1 6ME      0.052700
     17 H7         -3.9040    0.2830    2.3330 hc        1 6ME      0.047200
     18 H7A        -2.5980    1.5200    2.5300 hc        1 6ME      0.047200
     19 H8         -2.5460    0.6310    0.2370 hc        1 6ME      0.067200
     20 H8A        -2.5180   -1.0770    0.8360 hc        1 6ME      0.067200
     21 H13        -2.4680   -0.5840    5.6790 hc        1 6ME      0.035033
     22 H13A       -4.0030   -0.2800    4.7610 hc        1 6ME      0.035033
     23 H13B       -2.8340    1.0750    5.0450 hc        1 6ME      0.035033
     24 HNA2        3.0010   -0.1370   -1.2260 hn        1 6ME      0.420300
     25 HNAA        1.5350   -0.1070   -2.0520 hn        1 6ME      0.420300
     26 HNA4        1.7240    0.2050    4.3010 hn        1 6ME      0.412800
     27 HNAB        3.1440   -0.0130    3.4340 hn        1 6ME      0.412800
@<TRIPOS>BOND
     1    1    2 ar  
     2    1   11 ar  
     3    2    3 ar  
     4    2   12 1   
     5    3    4 ar  
     6    4   10 ar  
     7    4   13 1   
     8    5    6 1   
     9    5   10 1   
    10    5   14 1   
    11    5   15 1   
    12    6    7 1   
    13    6    9 1   
    14    6   16 1   
    15    7    8 1   
    16    7   17 1   
    17    7   18 1   
    18    8   11 1   
    19    8   19 1   
    20    8   20 1   
    21    9   21 1   
    22    9   22 1   
    23    9   23 1   
    24   10   11 ar  
    25   12   24 1   
    26   12   25 1   
    27   13   26 1   
    28   13   27 1   
@<TRIPOS>SUBSTRUCTURE
     1 6ME         1 TEMP              0 ****  ****    0 ROOT
