@<TRIPOS>MOLECULE
6ME
   27    25     1     0     0
SMALL
bcc


@<TRIPOS>ATOM
      1 N1          0.6480    0.1720   -2.3930 n1        1 6ME     -0.258000
      2 C2          2.0410    0.1720   -2.3930 c1        1 6ME      0.174000
      3 N3          2.7560    0.1720   -1.1630 n2        1 6ME     -0.292000
      4 C4          2.0770    0.1720    0.0290 c1        1 6ME      0.177000
      5 C5         -0.1180    0.1720    1.3850 c3        1 6ME     -0.091000
      6 C6         -1.5270   -0.6070    1.1450 c3        1 6ME     -0.104000
      7 C7         -2.2190    0.1720    0.1060 c3        1 6ME     -0.154000
      8 C8         -1.6360    0.1720   -1.1800 c3        1 6ME     -0.120000
      9 C13        -2.3200   -0.6490    2.5650 c3        1 6ME     -0.209000
     10 C4A         0.7250    0.1720    0.0360 c2        1 6ME     -0.269000
     11 C8A        -0.0170    0.1720   -1.2420 c1        1 6ME      0.086000
     12 NA2         2.7490    0.1670   -3.6220 n2        1 6ME     -0.327500
     13 NA4         2.7930    0.2050    1.2530 n2        1 6ME     -0.327500
     14 H5         -0.2980    1.0920    1.6570 hc        1 6ME      0.080500
     15 H5A         0.3880   -0.2810    2.0860 hc        1 6ME      0.080500
     16 H6         -1.3580   -1.5150    0.8270 hc        1 6ME      0.093000
     17 H7         -3.1200   -0.1950    0.0180 hc        1 6ME      0.085500
     18 H7A        -2.2540    1.0980    0.4110 hc        1 6ME      0.085500
     19 H8         -1.9560    0.9620   -1.6550 hc        1 6ME      0.106500
     20 H8A        -1.9560   -0.6190   -1.6550 hc        1 6ME      0.106500
     21 H13        -1.7910   -1.1440    3.2190 hc        1 6ME      0.074000
     22 H13A       -3.1830   -1.0900    2.4430 hc        1 6ME      0.074000
     23 H13B       -2.4630    0.2620    2.8850 hc        1 6ME      0.074000
     24 HNA2        2.9570   -0.6240   -4.0260 hn        1 6ME      0.213000
     25 HNAA        2.9970    0.9550   -4.0090 hn        1 6ME      0.213000
     26 HNA4        2.9730    1.0040    1.6540 hn        1 6ME      0.213000
     27 HNAB        3.1110   -0.5690    1.6160 hn        1 6ME      0.213000
@<TRIPOS>BOND
     1    1    2 1   
     2    2    3 1   
     3    3    4 1   
     4    4   10 1   
     5    5    6 1   
     6    5   10 1   
     7    5   14 1   
     8    5   15 1   
     9    6    7 1   
    10    6    9 1   
    11    6   16 1   
    12    7    8 1   
    13    7   17 1   
    14    7   18 1   
    15    8   11 1   
    16    8   19 1   
    17    8   20 1   
    18    9   21 1   
    19    9   22 1   
    20    9   23 1   
    21   10   11 1   
    22   12   24 1   
    23   12   25 1   
    24   13   26 1   
    25   13   27 1   
@<TRIPOS>SUBSTRUCTURE
     1 6ME         1 TEMP              0 ****  ****    0 ROOT
