@<TRIPOS>MOLECULE
6ME
   29    30     1     0     0
SMALL
bcc


@<TRIPOS>ATOM
      1 N1         -0.0210    0.0040   -0.0620 nb        1 6ME     -0.640000
      2 C2          1.3550    0.0360    0.0040 ca        1 6ME      0.747900
      3 N3          2.1200    0.0480    1.1270 nb        1 6ME     -0.668000
      4 C4          1.4160    0.0170    2.3040 ca        1 6ME      0.481200
      5 C5         -0.7150   -0.0470    3.6670 c3        1 6ME     -0.078100
      6 C6         -2.1930   -0.4090    3.5430 c3        1 6ME     -0.059700
      7 C7         -2.8150    0.3370    2.3790 c3        1 6ME     -0.096400
      8 C8         -2.1900   -0.0810    1.0680 c3        1 6ME     -0.159700
      9 C13        -2.9100   -0.0880    4.8380 c3        1 6ME     -0.105100
     10 C4A         0.0060   -0.0300    2.3740 ca        1 6ME     -0.173900
     11 C8A        -0.6900   -0.0280    1.1070 ca        1 6ME      0.543600
     12 NA2         2.0690    0.0670   -1.3070 n4        1 6ME     -0.816300
     13 NA4         2.2190    0.0340    3.5440 n4        1 6ME     -0.821300
     14 H5         -0.6360    0.9800    4.1320 hc        1 6ME      0.086200
     15 H5A        -0.2390   -0.7820    4.3750 hc        1 6ME      0.086200
     16 H6         -2.2750   -1.5170    3.3530 hc        1 6ME      0.076700
     17 H7         -3.9170    0.1120    2.3360 hc        1 6ME      0.091200
     18 H7A        -2.7120    1.4440    2.5290 hc        1 6ME      0.091200
     19 H8         -2.5840    0.5700    0.2350 hc        1 6ME      0.121200
     20 H8A        -2.4850   -1.1420    0.8180 hc        1 6ME      0.121200
     21 H13        -2.9010    1.0110    5.0400 hc        1 6ME      0.064367
     22 H13A       -3.9760   -0.4230    4.7730 hc        1 6ME      0.064367
     23 H13B       -2.4290   -0.6170    5.6950 hc        1 6ME      0.064367
     24 HNA2        1.8140   -0.7760   -1.8480 hn        1 6ME      0.500467
     25 HNAA        1.7730    0.9050   -1.8320 hn        1 6ME      0.500467
     26 HNA4        2.1970   -0.9040    3.9710 hn        1 6ME      0.492800
     27 HNAB        1.8040    0.7160    4.1970 hn        1 6ME      0.492800
     28 HA23        3.0910    0.0900   -1.1690 hn        1 6ME      0.500467
     29 HA43        3.2010    0.2950    3.3580 hn        1 6ME      0.492800
@<TRIPOS>BOND
     1    1    2 ar  
     2    1   11 ar  
     3    2    3 ar  
     4    2   12 1   
     5    3    4 ar  
     6    4   10 ar  
     7    4   13 1   
     8    5    6 1   
     9    5   10 1   
    10    5   14 1   
    11    5   15 1   
    12    6    7 1   
    13    6    9 1   
    14    6   16 1   
    15    7    8 1   
    16    7   17 1   
    17    7   18 1   
    18    8   11 1   
    19    8   19 1   
    20    8   20 1   
    21    9   21 1   
    22    9   22 1   
    23    9   23 1   
    24   10   11 ar  
    25   12   24 1   
    26   12   25 1   
    27   12   28 1   
    28   13   26 1   
    29   13   27 1   
    30   13   29 1   
@<TRIPOS>SUBSTRUCTURE
     1 6ME         1 TEMP              0 ****  ****    0 ROOT
