@<TRIPOS>MOLECULE
6ME
   27    28     1     0     0
SMALL
bcc


@<TRIPOS>ATOM
      1 N1          1.4110   -1.3970    0.0370 nb        1 6ME     -0.783000
      2 C2          2.4280   -0.4560    0.0270 ca        1 6ME      0.890900
      3 N3          2.2480    0.9130   -0.0400 nb        1 6ME     -0.815000
      4 C4          0.9560    1.3600   -0.0590 ca        1 6ME      0.696200
      5 C5         -1.5470    0.9770    0.0370 c3        1 6ME     -0.002100
      6 C6         -2.5960   -0.0810    0.3520 c3        1 6ME     -0.064700
      7 C7         -2.2800   -1.3690   -0.3850 c3        1 6ME     -0.075400
      8 C8         -0.9630   -1.9400    0.0890 c3        1 6ME     -0.135700
      9 C13        -3.9770    0.4230   -0.0080 c3        1 6ME     -0.091100
     10 C4A        -0.1600    0.4570    0.0250 ca        1 6ME     -0.405900
     11 C8A         0.1450   -0.9210    0.0450 ca        1 6ME      0.509600
     12 NA2         3.7450   -0.9240    0.1590 nh        1 6ME     -0.921500
     13 NA4         0.7430    2.7270   -0.2420 nh        1 6ME     -0.934500
     14 H5         -1.7720    1.4340   -0.9660 hc        1 6ME      0.040700
     15 H5A        -1.6460    1.7940    0.8050 hc        1 6ME      0.040700
     16 H6         -2.5690   -0.2910    1.4590 hc        1 6ME      0.050700
     17 H7         -3.0940   -2.1200   -0.2050 hc        1 6ME      0.047700
     18 H7A        -2.2400   -1.1720   -1.4880 hc        1 6ME      0.047700
     19 H8         -1.0610   -2.2940    1.1520 hc        1 6ME      0.066700
     20 H8A        -0.6960   -2.8330   -0.5370 hc        1 6ME      0.066700
     21 H13        -4.0600    0.5970   -1.1090 hc        1 6ME      0.035033
     22 H13A       -4.7510   -0.3240    0.2910 hc        1 6ME      0.035033
     23 H13B       -4.1880    1.3850    0.5180 hc        1 6ME      0.035033
     24 HNA2        3.8890   -1.8800   -0.0750 hn        1 6ME      0.419800
     25 HNAA        4.4600   -0.2990   -0.1380 hn        1 6ME      0.419800
     26 HNA4        1.5270    3.3270   -0.1170 hn        1 6ME      0.413800
     27 HNAB       -0.1150    3.0740    0.1190 hn        1 6ME      0.413800
@<TRIPOS>BOND
     1    1    2 ar  
     2    1   11 ar  
     3    2    3 ar  
     4    2   12 1   
     5    3    4 ar  
     6    4   10 ar  
     7    4   13 1   
     8    5    6 1   
     9    5   10 1   
    10    5   14 1   
    11    5   15 1   
    12    6    7 1   
    13    6    9 1   
    14    6   16 1   
    15    7    8 1   
    16    7   17 1   
    17    7   18 1   
    18    8   11 1   
    19    8   19 1   
    20    8   20 1   
    21    9   21 1   
    22    9   22 1   
    23    9   23 1   
    24   10   11 ar  
    25   12   24 1   
    26   12   25 1   
    27   13   26 1   
    28   13   27 1   
@<TRIPOS>SUBSTRUCTURE
     1 6ME         1 TEMP              0 ****  ****    0 ROOT
