@<TRIPOS>MOLECULE
6MH
   16    16     1     0     0
SMALL
bcc


@<TRIPOS>ATOM
      1 C6         -0.0340   -0.0170    0.0190 c3        1 6MH     -0.064900
      2 C5          1.4570   -0.0280    0.0270 cc        1 6MH      0.076400
      3 C4          2.1750    0.0480    1.2080 cd        1 6MH     -0.223000
      4 C3          3.5910    0.0350    1.1800 cd        1 6MH     -0.050000
      5 C2          4.2510   -0.0510   -0.0150 cc        1 6MH     -0.207200
      6 C1          3.5490   -0.1320   -1.2710 c         1 6MH      0.374600
      7 S1          4.2970   -0.2340   -2.6840 s         1 6MH     -0.540400
      8 N1          2.1450   -0.1160   -1.1830 n         1 6MH     -0.122500
      9 O1          1.3770   -0.1840   -2.2670 oh        1 6MH     -0.401100
     10 H1         -0.4260   -0.9550   -0.4500 hc        1 6MH      0.067700
     11 H2         -0.4200    0.0580    1.0640 hc        1 6MH      0.067700
     12 H3         -0.4130    0.8520   -0.5760 hc        1 6MH      0.067700
     13 H4          1.6410    0.1170    2.1650 ha        1 6MH      0.158000
     14 H5          4.1450    0.0960    2.1300 ha        1 6MH      0.148000
     15 H6          5.3510   -0.0640   -0.0770 ha        1 6MH      0.176000
     16 H7          1.9860   -0.2420   -3.0530 ho        1 6MH      0.472000
@<TRIPOS>BOND
     1    1    2 1   
     2    1   10 1   
     3    1   11 1   
     4    1   12 1   
     5    2    3 2   
     6    2    8 1   
     7    3    4 1   
     8    3   13 1   
     9    4    5 2   
    10    4   14 1   
    11    5    6 1   
    12    5   15 1   
    13    6    7 2   
    14    6    8 1   
    15    8    9 1   
    16    9   16 1   
@<TRIPOS>SUBSTRUCTURE
     1 6MH         1 TEMP              0 ****  ****    0 ROOT
