@<TRIPOS>MOLECULE
6MH
   16    16     1     0     0
SMALL
bcc


@<TRIPOS>ATOM
      1 C6         -0.0340   -0.0150    0.0220 c3        1 6MH     -0.064900
      2 C5          1.4570   -0.0270    0.0270 cc        1 6MH      0.076400
      3 C4          2.1770    0.0450    1.2080 cd        1 6MH     -0.223000
      4 C3          3.5930    0.0310    1.1780 cd        1 6MH     -0.050000
      5 C2          4.2510   -0.0540   -0.0170 cc        1 6MH     -0.207200
      6 C1          3.5480   -0.1330   -1.2730 c         1 6MH      0.374600
      7 S1          4.2940   -0.2340   -2.6860 s         1 6MH     -0.540400
      8 N1          2.1440   -0.1140   -1.1830 n         1 6MH     -0.122500
      9 O1          1.3750   -0.1800   -2.2670 oh        1 6MH     -0.401100
     10 H1         -0.4270   -0.9510   -0.4490 hc        1 6MH      0.067700
     11 H2         -0.4120    0.8560   -0.5710 hc        1 6MH      0.067700
     12 H3         -0.4190    0.0590    1.0670 hc        1 6MH      0.067700
     13 H4          1.6440    0.1140    2.1660 ha        1 6MH      0.158000
     14 H5          4.1480    0.0900    2.1280 ha        1 6MH      0.148000
     15 H6          5.3510   -0.0680   -0.0800 ha        1 6MH      0.176000
     16 H7          1.9820   -0.2380   -3.0530 ho        1 6MH      0.472000
@<TRIPOS>BOND
     1    1    2 1   
     2    1   10 1   
     3    1   11 1   
     4    1   12 1   
     5    2    3 2   
     6    2    8 1   
     7    3    4 1   
     8    3   13 1   
     9    4    5 2   
    10    4   14 1   
    11    5    6 1   
    12    5   15 1   
    13    6    7 2   
    14    6    8 1   
    15    8    9 1   
    16    9   16 1   
@<TRIPOS>SUBSTRUCTURE
     1 6MH         1 TEMP              0 ****  ****    0 ROOT
