@<TRIPOS>MOLECULE
6MI
   40    42     1     0     0
SMALL
bcc


@<TRIPOS>ATOM
      1 P           1.9540   -5.5730   -1.3310 p5        1 6MI      1.433800
      2 O1P         2.5840   -6.2670   -0.1920 o         1 6MI     -0.839500
      3 O2P         2.7460   -4.1880   -1.6540 oh        1 6MI     -0.785400
      4 O3P         1.6110   -6.1960   -2.6280 o         1 6MI     -0.839500
      5 O5'         0.5600   -4.8470   -0.7860 os        1 6MI     -0.586200
      6 N1M         0.2540    0.2170   -2.2310 n         1 6MI     -0.185100
      7 C2M        -1.1060    0.4290   -2.5240 cc        1 6MI      0.237400
      8 O2M        -1.9780   -0.3720   -2.1140 o         1 6MI     -0.434000
      9 C3M        -1.4610    1.6370   -3.3080 cd        1 6MI      0.197600
     10 N4M        -0.5770    2.5260   -3.7120 nd        1 6MI     -0.516000
     11 C4A         0.7330    2.3370   -3.3860 cc        1 6MI      0.077800
     12 C8A         1.2010    1.1860   -2.6350 cc        1 6MI      0.114400
     13 N8M         2.5050    1.0230   -2.2970 nd        1 6MI     -0.584300
     14 C7M         3.3830    2.0220   -2.7240 cd        1 6MI      0.841200
     15 N7M         4.7310    1.8700   -2.2750 nh        1 6MI     -0.872800
     16 N6M         3.0900    3.1120   -3.4620 nc        1 6MI     -0.803100
     17 C5M         1.7520    3.3310   -3.8120 c         1 6MI      0.627000
     18 O5M         1.4600    4.3530   -4.4760 o         1 6MI     -0.644100
     19 C3I        -2.9130    1.7660   -3.6160 c3        1 6MI     -0.101400
     20 C2'         0.1360   -1.1800   -0.1220 c3        1 6MI     -0.135400
     21 C5'        -0.3540   -4.4250   -1.7420 c3        1 6MI      0.182400
     22 C4'        -0.6880   -2.9320   -1.6150 c3        1 6MI      0.083100
     23 O4'         0.3260   -2.1790   -2.2990 os        1 6MI     -0.423600
     24 C1'         0.6970   -1.0090   -1.5510 c3        1 6MI      0.240800
     25 C3'        -0.7540   -2.4270   -0.1600 c3        1 6MI      0.133100
     26 O3'        -2.0770   -2.1430    0.2480 oh        1 6MI     -0.626800
     27 H8M         2.2400   -3.5710   -2.1730 ho        1 6MI      0.437000
     28 H7M1        4.9690    0.9240   -2.0640 hn        1 6MI      0.383300
     29 H7M2        5.3920    2.3000   -2.8860 hn        1 6MI      0.383300
     30 H3I1       -3.4910    1.8060   -2.6590 hc        1 6MI      0.030367
     31 H3I2       -3.2510    0.8660   -4.1870 hc        1 6MI      0.030367
     32 H3I3       -3.1360    2.6820   -4.2140 hc        1 6MI      0.030367
     33 H2'1       -0.4500   -0.2920    0.2170 hc        1 6MI      0.060200
     34 H2'2        0.9910   -1.3310    0.5810 hc        1 6MI      0.060200
     35 H5'1        0.0310   -4.6350   -2.7800 h1        1 6MI      0.037200
     36 H5'2       -1.3220   -4.9820   -1.5810 h1        1 6MI      0.037200
     37 H4'        -1.6600   -2.7240   -2.1430 h1        1 6MI      0.059700
     38 H1'         1.8280   -1.0410   -1.5450 h2        1 6MI      0.122700
     39 H3'        -0.3980   -3.2210    0.5540 h1        1 6MI      0.111700
     40 H3T        -2.4460   -1.5090   -0.3840 ho        1 6MI      0.421000
@<TRIPOS>BOND
     1    1    2 1   
     2    1    3 1   
     3    1    4 1   
     4    1    5 1   
     5    3   27 1   
     6    5   21 1   
     7    6    7 1   
     8    6   12 1   
     9    6   24 1   
    10    7    8 1   
    11    7    9 2   
    12    9   10 1   
    13    9   19 1   
    14   10   11 2   
    15   11   12 1   
    16   11   17 1   
    17   12   13 2   
    18   13   14 1   
    19   14   15 1   
    20   14   16 2   
    21   15   28 1   
    22   15   29 1   
    23   16   17 1   
    24   17   18 2   
    25   19   30 1   
    26   19   31 1   
    27   19   32 1   
    28   20   24 1   
    29   20   25 1   
    30   20   33 1   
    31   20   34 1   
    32   21   22 1   
    33   21   35 1   
    34   21   36 1   
    35   22   23 1   
    36   22   25 1   
    37   22   37 1   
    38   23   24 1   
    39   24   38 1   
    40   25   26 1   
    41   25   39 1   
    42   26   40 1   
@<TRIPOS>SUBSTRUCTURE
     1 6MI         1 TEMP              0 ****  ****    0 ROOT
