@<TRIPOS>MOLECULE
6MI
   40    39     1     0     0
SMALL
bcc


@<TRIPOS>ATOM
      1 P           5.3940   -1.3370   -2.1340 p3        1 6MI      2.518000
      2 O1P         5.1990   -1.7500   -3.5710 o         1 6MI     -1.239000
      3 O2P         5.9660    0.0440   -2.0860 os        1 6MI     -1.244000
      4 O3P         6.3460   -2.3040   -1.4540 o         1 6MI     -1.239000
      5 O5'         4.0110   -1.3560   -1.3930 os        1 6MI     -0.726000
      6 N1M        -0.6740    0.3480    0.6670 n         1 6MI     -0.259000
      7 C2M         0.1250    1.4980    0.8690 c2        1 6MI      0.314000
      8 O2M         1.1900    1.6140    0.2760 o         1 6MI     -0.253000
      9 C3M        -0.2910    2.5370    1.8900 c2        1 6MI     -0.107000
     10 N4M        -1.4810    2.3570    2.6400 n1        1 6MI     -0.032000
     11 C4A        -2.2990    1.1800    2.4310 c1        1 6MI     -0.280000
     12 C8A        -1.8950    0.1650    1.4400 c2        1 6MI      0.217000
     13 N8M        -2.7120   -1.0040    1.2370 n3        1 6MI     -0.297000
     14 C7M        -3.9480   -1.1870    2.0220 c2        1 6MI      0.227000
     15 N7M        -4.7490   -2.3450    1.8250 n3        1 6MI     -0.324000
     16 N6M        -4.3510   -0.1760    3.0150 n1        1 6MI     -0.320000
     17 C5M        -3.5500    0.9890    3.2190 c1        1 6MI      0.347000
     18 O5M        -3.8880    1.8280    4.0460 o         1 6MI     -0.318000
     19 C3I         0.5310    3.8050    2.0630 c3        1 6MI     -0.163000
     20 C2'        -0.6460   -0.3100   -1.4910 c3        1 6MI     -0.234000
     21 C5'         2.9390   -0.6530   -1.9570 c3        1 6MI      0.079000
     22 C4'         1.6090   -1.2450   -1.4440 c3        1 6MI     -0.044000
     23 O4'         1.3170   -0.7530   -0.3200 os        1 6MI     -0.255000
     24 C1'        -0.2670   -0.6510   -0.2800 c3        1 6MI      0.150000
     25 C3'         0.4270   -0.8330   -2.3920 c3        1 6MI      0.069000
     26 O3'         0.8340    0.1410   -3.2620 oh        1 6MI     -0.412000
     27 H8M        -2.4930   -1.6030    0.5930 hn        1 6MI      0.259000
     28 H7M1       -4.4960   -2.9740    1.2230 hn        1 6MI      0.197500
     29 H7M2       -5.5330   -2.4440    2.2880 hn        1 6MI      0.197500
     30 H3I1        0.6910    4.2130    1.1840 hc        1 6MI      0.098333
     31 H3I2        1.3890    3.5840    2.4830 hc        1 6MI      0.098333
     32 H3I3        0.0440    4.4330    2.6290 hc        1 6MI      0.098333
     33 H2'1       -0.7070    0.6510   -1.5650 hc        1 6MI      0.085000
     34 H2'2       -1.5060   -0.7250   -1.7080 hc        1 6MI      0.085000
     35 H5'1        2.9760   -0.7290   -2.9360 h1        1 6MI      0.057000
     36 H5'2        2.9970    0.2900   -1.7010 h1        1 6MI      0.057000
     37 H4'         1.6710   -2.2200   -1.3820 h1        1 6MI      0.090000
     38 H1'        -0.6540   -1.5230   -0.0380 h2        1 6MI      0.063000
     39 H3'         0.1030   -1.6140   -2.8860 h1        1 6MI      0.124000
     40 H3T         0.3810    0.0590   -4.0390 ho        1 6MI      0.314000
@<TRIPOS>BOND
     1    1    2 1   
     2    1    4 1   
     3    1    5 1   
     4    5   21 1   
     5    6    7 1   
     6    6   12 1   
     7    6   24 1   
     8    7    8 1   
     9    7    9 1   
    10    9   10 1   
    11    9   19 1   
    12   11   12 1   
    13   11   17 1   
    14   12   13 1   
    15   13   14 1   
    16   13   27 1   
    17   14   15 1   
    18   14   16 1   
    19   15   28 1   
    20   15   29 1   
    21   17   18 1   
    22   19   30 1   
    23   19   31 1   
    24   19   32 1   
    25   20   24 1   
    26   20   25 1   
    27   20   33 1   
    28   20   34 1   
    29   21   22 1   
    30   21   35 1   
    31   21   36 1   
    32   22   23 1   
    33   22   25 1   
    34   22   37 1   
    35   23   24 1   
    36   24   38 1   
    37   25   26 1   
    38   25   39 1   
    39   26   40 1   
@<TRIPOS>SUBSTRUCTURE
     1 6MI         1 TEMP              0 ****  ****    0 ROOT
