@<TRIPOS>MOLECULE
6MK
   38    39     1     0     0
SMALL
bcc


@<TRIPOS>ATOM
      1 OAA        -0.0600    0.8590   -2.9200 o         1 6MK     -0.819800
      2 CAS         0.7110    0.4710   -1.9910 c         1 6MK      0.889800
      3 OAD         1.1400    1.2220   -1.0740 o         1 6MK     -0.819800
      4 CAE         1.1180   -0.9840   -1.9290 ce        1 6MK     -0.132200
      5 CAF         1.7530   -1.7120   -2.8480 cf        1 6MK     -0.261200
      6 CAT         2.1920   -1.2610   -4.1840 c         1 6MK      0.655300
      7 OAB         3.3340   -1.5160   -4.6330 o         1 6MK     -0.658100
      8 NAQ         1.2280   -0.6240   -4.9930 n         1 6MK     -0.433500
      9 NAR         1.5820    0.0060   -6.1470 n         1 6MK     -0.348500
     10 CAU         1.3980   -0.6510   -7.3930 c         1 6MK      0.648700
     11 OAC         0.5520   -1.5360   -7.6050 o         1 6MK     -0.566100
     12 CAX         2.2220   -0.0890   -8.5070 ca        1 6MK     -0.253900
     13 CAN         3.6270   -0.2340   -8.4510 ca        1 6MK      0.419200
     14 NAP         4.4570    0.2010   -9.4150 nb        1 6MK     -0.674000
     15 CAJ         3.8980    0.8130  -10.4790 ca        1 6MK      0.398200
     16 CAM         2.5170    1.0110  -10.6230 ca        1 6MK     -0.255300
     17 CAW         1.6530    0.5500   -9.6180 ca        1 6MK      0.010700
     18 CAO         0.1830    0.7730   -9.7420 c3        1 6MK     -0.008800
     19 CAV        -0.4180   -0.0270  -10.8480 ca        1 6MK     -0.074300
     20 CAK        -0.7450   -1.3730  -10.6340 ca        1 6MK     -0.121000
     21 CAH        -1.3250   -2.1200  -11.6580 ca        1 6MK     -0.136000
     22 CAG        -1.5840   -1.5330  -12.8960 ca        1 6MK     -0.137000
     23 CAI        -1.2610   -0.1940  -13.1120 ca        1 6MK     -0.136000
     24 CAL        -0.6800    0.5570  -12.0910 ca        1 6MK     -0.121000
     25 HAE         0.8830   -1.4440   -0.9530 ha        1 6MK      0.113000
     26 HAF         2.0540   -2.7550   -2.6510 ha        1 6MK      0.123000
     27 HAQ         0.4790   -0.1240   -4.5050 hn        1 6MK      0.392500
     28 HAR         2.5010    0.4290   -6.0860 hn        1 6MK      0.283500
     29 HAN         4.1050   -0.7340   -7.5850 h4        1 6MK      0.047100
     30 HAJ         4.6020    1.1620  -11.2550 h4        1 6MK      0.014100
     31 HAM         2.1110    1.5120  -11.5120 ha        1 6MK      0.141000
     32 HAO1        0.0030    1.8690   -9.9220 hc        1 6MK      0.074200
     33 HAO2       -0.3280    0.5030   -8.7750 hc        1 6MK      0.074200
     34 HAK        -0.5360   -1.8310   -9.6500 ha        1 6MK      0.148500
     35 HAL        -0.4270    1.6140  -12.2640 ha        1 6MK      0.148500
     36 HAH        -1.5790   -3.1760  -11.4840 ha        1 6MK      0.125500
     37 HAG        -2.0430   -2.1250  -13.7010 ha        1 6MK      0.122000
     38 HAI        -1.4660    0.2720  -14.0860 ha        1 6MK      0.125500
@<TRIPOS>BOND
     1    1    2 1   
     2    2    3 1   
     3    2    4 1   
     4    4    5 2   
     5    4   25 1   
     6    5    6 1   
     7    5   26 1   
     8    6    7 2   
     9    6    8 1   
    10    8    9 1   
    11    8   27 1   
    12    9   10 1   
    13    9   28 1   
    14   10   11 2   
    15   10   12 1   
    16   12   13 ar  
    17   12   17 ar  
    18   13   14 ar  
    19   13   29 1   
    20   14   15 ar  
    21   15   16 ar  
    22   15   30 1   
    23   16   17 ar  
    24   16   31 1   
    25   17   18 1   
    26   18   19 1   
    27   18   32 1   
    28   18   33 1   
    29   19   20 ar  
    30   19   24 ar  
    31   20   21 ar  
    32   20   34 1   
    33   21   22 ar  
    34   21   36 1   
    35   22   23 ar  
    36   22   37 1   
    37   23   24 ar  
    38   23   38 1   
    39   24   35 1   
@<TRIPOS>SUBSTRUCTURE
     1 6MK         1 TEMP              0 ****  ****    0 ROOT
