@<TRIPOS>MOLECULE
6MK
   40    41     1     0     0
SMALL
bcc


@<TRIPOS>ATOM
      1 OAA         2.3350    1.0660   -1.1970 os        1 6MK     -0.448900
      2 CAS         3.6810    1.3190   -1.0260 c         1 6MK      0.706600
      3 OAD         4.3390    2.3240   -1.0670 o         1 6MK     -0.456500
      4 CAE         3.2460   -0.0700   -0.9170 cx        1 6MK      0.110300
      5 CAF         3.4350   -1.0320   -2.0020 c2        1 6MK     -0.397300
      6 CAT         2.7470   -1.0160   -3.1190 c1        1 6MK      0.619600
      7 OAB         2.1200   -1.0070   -4.1390 o         1 6MK     -0.491500
      8 NAQ        -1.1680    0.0230   -5.0190 n3        1 6MK     -0.640600
      9 NAR        -0.0260   -0.1910   -5.7900 n4        1 6MK     -0.466600
     10 CAU        -0.0700    0.1180   -7.3080 c         1 6MK      0.560700
     11 OAC        -1.0740    0.7210   -7.6680 o         1 6MK     -0.442100
     12 CAX         1.0590   -0.3560   -8.0840 ca        1 6MK     -0.350900
     13 CAN         2.2780   -0.7740   -7.4830 ca        1 6MK      0.446200
     14 NAP         3.3360   -1.2060   -8.1730 nb        1 6MK     -0.650000
     15 CAJ         3.2350   -1.2410   -9.5230 ca        1 6MK      0.478200
     16 CAM         2.0830   -0.8420  -10.2160 ca        1 6MK     -0.246300
     17 CAW         0.9660   -0.3860   -9.5010 ca        1 6MK      0.077700
     18 CAO        -0.2680    0.0580  -10.2050 c3        1 6MK     -0.016800
     19 CAV        -0.2610   -0.1630  -11.6770 ca        1 6MK     -0.120300
     20 CAK        -0.7480   -1.3610  -12.2120 ca        1 6MK     -0.120500
     21 CAH        -0.7810   -1.5500  -13.5930 ca        1 6MK     -0.121500
     22 CAG        -0.3320   -0.5430  -14.4480 ca        1 6MK     -0.107000
     23 CAI         0.1490    0.6550  -13.9190 ca        1 6MK     -0.121500
     24 CAL         0.1840    0.8470  -12.5390 ca        1 6MK     -0.120500
     25 HAE         3.0930   -0.5310    0.0840 h1        1 6MK      0.140700
     26 HAF         4.1990   -1.8140   -1.8370 ha        1 6MK      0.221000
     27 HAQ        -1.4370    1.0030   -5.0670 hn        1 6MK      0.411300
     28 HAR         0.2470   -1.1840   -5.6640 hn        1 6MK      0.484800
     29 HAN         2.4410   -0.7540   -6.3870 h4        1 6MK      0.030100
     30 HAJ         4.1330   -1.6070  -10.0610 h4        1 6MK      0.061100
     31 HAM         2.0540   -0.8820  -11.3190 ha        1 6MK      0.193000
     32 HAO1       -0.4150    1.1570   -9.9910 hc        1 6MK      0.085200
     33 HAO2       -1.1550   -0.4740   -9.7550 hc        1 6MK      0.085200
     34 HAK        -1.1140   -2.1550  -11.5430 ha        1 6MK      0.133000
     35 HAL         0.5530    1.7990  -12.1290 ha        1 6MK      0.133000
     36 HAH        -1.1670   -2.4940  -14.0080 ha        1 6MK      0.147500
     37 HAG        -0.3620   -0.6920  -15.5380 ha        1 6MK      0.149000
     38 HAI         0.4960    1.4540  -14.5920 ha        1 6MK      0.147500
     39 HAQ2       -1.9380   -0.5280   -5.3850 hn        1 6MK      0.411300
     40 HAR2        0.7360    0.3750   -5.3680 hn        1 6MK      0.484800
@<TRIPOS>BOND
     1    1    2 1   
     2    1    4 1   
     3    2    3 2   
     4    2    4 1   
     5    4    5 1   
     6    4   25 1   
     7    5    6 2   
     8    5   26 1   
     9    6    7 2   
    10    8    9 1   
    11    8   27 1   
    12    8   39 1   
    13    9   10 1   
    14    9   28 1   
    15    9   40 1   
    16   10   11 2   
    17   10   12 1   
    18   12   13 ar  
    19   12   17 ar  
    20   13   14 ar  
    21   13   29 1   
    22   14   15 ar  
    23   15   16 ar  
    24   15   30 1   
    25   16   17 ar  
    26   16   31 1   
    27   17   18 1   
    28   18   19 1   
    29   18   32 1   
    30   18   33 1   
    31   19   20 ar  
    32   19   24 ar  
    33   20   21 ar  
    34   20   34 1   
    35   21   22 ar  
    36   21   36 1   
    37   22   23 ar  
    38   22   37 1   
    39   23   24 ar  
    40   23   38 1   
    41   24   35 1   
@<TRIPOS>SUBSTRUCTURE
     1 6MK         1 TEMP              0 ****  ****    0 ROOT
