@<TRIPOS>MOLECULE
6MK
   40    41     1     0     0
SMALL
bcc


@<TRIPOS>ATOM
      1 OAA         2.4020    0.9960   -1.2060 os        1 6MK     -0.448900
      2 CAS         3.7450    1.2760   -1.0540 c         1 6MK      0.706600
      3 OAD         4.3790    2.2970   -1.0960 o         1 6MK     -0.456500
      4 CAE         3.3420   -0.1230   -0.9510 cx        1 6MK      0.110300
      5 CAF         3.5350   -1.0700   -2.0480 c2        1 6MK     -0.397300
      6 CAT         2.8290   -1.0600   -3.1540 c1        1 6MK      0.619600
      7 OAB         2.1850   -1.0540   -4.1630 o         1 6MK     -0.491500
      8 NAQ        -1.1430   -0.1080   -4.9830 n8        1 6MK     -0.640600
      9 NAR        -0.0060   -0.2740   -5.7720 ny        1 6MK     -0.466600
     10 CAU        -0.0800    0.0620   -7.2840 c         1 6MK      0.560700
     11 OAC        -1.1060    0.6380   -7.6190 o         1 6MK     -0.443100
     12 CAX         1.0540   -0.3610   -8.0820 ca        1 6MK     -0.350900
     13 CAN         2.2920   -0.7550   -7.5040 ca        1 6MK      0.446200
     14 NAP         3.3530   -1.1410   -8.2160 nb        1 6MK     -0.650000
     15 CAJ         3.2380   -1.1500   -9.5650 ca        1 6MK      0.478200
     16 CAM         2.0670   -0.7710  -10.2360 ca        1 6MK     -0.246300
     17 CAW         0.9450   -0.3640   -9.4990 ca        1 6MK      0.077700
     18 CAO        -0.3100    0.0580  -10.1790 c3        1 6MK     -0.016800
     19 CAV        -0.3140   -0.1300  -11.6550 ca        1 6MK     -0.120300
     20 CAK        -0.7700   -1.3300  -12.2130 ca        1 6MK     -0.120500
     21 CAH        -0.8130   -1.4880  -13.5970 ca        1 6MK     -0.121500
     22 CAG        -0.4050   -0.4490  -14.4330 ca        1 6MK     -0.107000
     23 CAI         0.0460    0.7510  -13.8820 ca        1 6MK     -0.121500
     24 CAL         0.0900    0.9130  -12.4980 ca        1 6MK     -0.120500
     25 HAE         3.2160   -0.5960    0.0480 h1        1 6MK      0.140700
     26 HAF         4.3180   -1.8370   -1.9030 ha        1 6MK      0.221000
     27 HAQ        -1.4420    0.8640   -5.0100 hn        1 6MK      0.411300
     28 HAR         0.2980   -1.2600   -5.6680 hn        1 6MK      0.484800
     29 HAN         2.4670   -0.7540   -6.4100 h4        1 6MK      0.030100
     30 HAJ         4.1400   -1.4770  -10.1210 h4        1 6MK      0.061100
     31 HAM         2.0250   -0.7890  -11.3390 ha        1 6MK      0.193000
     32 HAO1       -1.1750   -0.5120   -9.7320 hc        1 6MK      0.085200
     33 HAO2       -0.4890    1.1470   -9.9370 hc        1 6MK      0.085200
     34 HAK        -1.1040   -2.1490  -11.5590 ha        1 6MK      0.133000
     35 HAL         0.4350    1.8660  -12.0700 ha        1 6MK      0.133000
     36 HAH        -1.1750   -2.4330  -14.0290 ha        1 6MK      0.147500
     37 HAG        -0.4430   -0.5740  -15.5270 ha        1 6MK      0.149000
     38 HAI         0.3610    1.5760  -14.5400 ha        1 6MK      0.147500
     39 HAQ2       -1.9020   -0.6750   -5.3490 hn        1 6MK      0.411300
     40 HAR2        0.7440    0.3070   -5.3500 hn        1 6MK      0.484800
@<TRIPOS>BOND
     1    1    2 1   
     2    1    4 1   
     3    2    3 2   
     4    2    4 1   
     5    4    5 1   
     6    4   25 1   
     7    5    6 2   
     8    5   26 1   
     9    6    7 2   
    10    8    9 1   
    11    8   27 1   
    12    8   39 1   
    13    9   10 1   
    14    9   28 1   
    15    9   40 1   
    16   10   11 2   
    17   10   12 1   
    18   12   13 ar  
    19   12   17 ar  
    20   13   14 ar  
    21   13   29 1   
    22   14   15 ar  
    23   15   16 ar  
    24   15   30 1   
    25   16   17 ar  
    26   16   31 1   
    27   17   18 1   
    28   18   19 1   
    29   18   32 1   
    30   18   33 1   
    31   19   20 ar  
    32   19   24 ar  
    33   20   21 ar  
    34   20   34 1   
    35   21   22 ar  
    36   21   36 1   
    37   22   23 ar  
    38   22   37 1   
    39   23   24 ar  
    40   23   38 1   
    41   24   35 1   
@<TRIPOS>SUBSTRUCTURE
     1 6MK         1 TEMP              0 ****  ****    0 ROOT
