@<TRIPOS>MOLECULE
6MN
   29    29     1     0     0
SMALL
bcc


@<TRIPOS>ATOM
      1 O3P         0.3540    0.1800   -0.8570 o         1 6MN     -0.824000
      2 P           1.5530    0.7930   -0.2690 p5        1 6MN      1.426800
      3 O1P         1.4170    2.4280   -0.1950 oh        1 6MN     -0.795400
      4 O2P         2.2300    0.4580    1.0000 o         1 6MN     -0.824000
      5 O6          2.7460    0.8010   -1.4380 os        1 6MN     -0.570200
      6 C6          3.9580    1.3770   -1.0850 c3        1 6MN      0.188400
      7 C5          4.0300    2.8170   -1.6330 c3        1 6MN      0.066100
      8 O5          3.9760    3.6850   -0.4960 os        1 6MN     -0.438600
      9 C4          5.2930    3.1420   -2.4340 c3        1 6MN      0.082100
     10 O4          5.4800    2.2950   -3.5550 oh        1 6MN     -0.616800
     11 C3          5.1640    4.5970   -2.9260 c3        1 6MN      0.077100
     12 O3          6.3140    4.9940   -3.6580 oh        1 6MN     -0.618800
     13 C2          4.9920    5.5740   -1.7360 c3        1 6MN      0.147500
     14 N2          6.1880    5.8200   -0.9560 n3        1 6MN     -0.896800
     15 C1          3.8460    5.0530   -0.8250 c3        1 6MN      0.334900
     16 O1          2.6230    5.2070   -1.5050 oh        1 6MN     -0.649800
     17 H6          4.0810    1.3840    0.0350 h1        1 6MN      0.052200
     18 H6A         4.7820    0.7780   -1.5610 h1        1 6MN      0.052200
     19 H5          3.1320    3.0070   -2.2900 h1        1 6MN      0.079700
     20 H4          6.2200    3.0200   -1.8100 h1        1 6MN      0.071700
     21 HO4         4.6300    1.8830   -3.7600 ho        1 6MN      0.424000
     22 H3          4.2590    4.6840   -3.5920 h1        1 6MN      0.058700
     23 HO3         6.5300    4.2540   -4.2420 ho        1 6MN      0.418000
     24 H2          4.6640    6.5660   -2.1640 h1        1 6MN      0.081700
     25 HN2         6.4320    5.0000   -0.4320 hn        1 6MN      0.353800
     26 HN2A        2.0160    2.7970    0.4470 ho        1 6MN      0.429000
     27 H1          3.8240    5.5870    0.1680 h2        1 6MN      0.079700
     28 HO1         1.9910    4.5760   -1.1170 ho        1 6MN      0.458000
     29 H23         6.9440    6.0420   -1.5770 hn        1 6MN      0.353800
@<TRIPOS>BOND
     1    1    2 1   
     2    2    3 1   
     3    2    4 1   
     4    2    5 1   
     5    3   26 1   
     6    5    6 1   
     7    6    7 1   
     8    6   17 1   
     9    6   18 1   
    10    7    8 1   
    11    7    9 1   
    12    7   19 1   
    13    8   15 1   
    14    9   10 1   
    15    9   11 1   
    16    9   20 1   
    17   10   21 1   
    18   11   12 1   
    19   11   13 1   
    20   11   22 1   
    21   12   23 1   
    22   13   14 1   
    23   13   15 1   
    24   13   24 1   
    25   14   25 1   
    26   14   29 1   
    27   15   16 1   
    28   15   27 1   
    29   16   28 1   
@<TRIPOS>SUBSTRUCTURE
     1 6MN         1 TEMP              0 ****  ****    0 ROOT
