@<TRIPOS>MOLECULE
6MN
   28    28     1     0     0
SMALL
bcc


@<TRIPOS>ATOM
      1 O3P        -1.6980   -1.3750    1.0000 o         1 6MN     -0.933167
      2 P          -2.7870   -0.4280    0.5320 p5        1 6MN      1.337900
      3 O1P        -3.2390   -0.6100   -0.8890 o         1 6MN     -0.933167
      4 O2P        -3.8350   -0.0720    1.5420 o         1 6MN     -0.933167
      5 O6         -1.8300    1.0320    0.4210 os        1 6MN     -0.559200
      6 C6         -0.8860    1.0420   -0.5660 c3        1 6MN      0.250400
      7 C5          0.4570    0.4490   -0.0570 c3        1 6MN      0.085100
      8 O5          0.6710   -0.7460   -0.8230 os        1 6MN     -0.422600
      9 C4          1.7560    1.2630   -0.2130 c3        1 6MN      0.127100
     10 O4          1.6210    2.5210    0.4200 oh        1 6MN     -0.572800
     11 C3          2.8640    0.4310    0.4730 c3        1 6MN      0.058100
     12 O3          4.0770    1.1750    0.3610 oh        1 6MN     -0.635800
     13 C2          3.0050   -0.9750   -0.1580 c3        1 6MN      0.089500
     14 N2          3.6590   -0.9860   -1.4570 n3        1 6MN     -0.905800
     15 C1          1.5860   -1.6350   -0.2300 c3        1 6MN      0.358900
     16 O1          1.1610   -1.9740    1.0530 oh        1 6MN     -0.700800
     17 H6         -1.2310    0.4310   -1.4500 h1        1 6MN      0.007700
     18 H6A        -0.6750    2.1040   -0.8810 h1        1 6MN      0.007700
     19 H5          0.3260    0.2070    1.0370 h1        1 6MN      0.103700
     20 H4          2.0150    1.4150   -1.2960 h1        1 6MN      0.018700
     21 HO4         2.5020    2.9160    0.4100 ho        1 6MN      0.378000
     22 H3          2.6010    0.3060    1.5610 h1        1 6MN      0.071700
     23 HO3         4.7520    0.6590    0.8150 ho        1 6MN      0.387000
     24 H2          3.6440   -1.5980    0.5320 h1        1 6MN      0.047700
     25 HN2         2.9630   -0.9460   -2.1810 hn        1 6MN      0.341300
     26 HN2A        4.2360   -0.1690   -1.5440 hn        1 6MN      0.341300
     27 H1          1.6020   -2.5430   -0.8980 h2        1 6MN      0.046700
     28 HO1         0.1640   -1.8860    1.0850 ho        1 6MN      0.539000
@<TRIPOS>BOND
     1    1    2 1   
     2    2    3 1   
     3    2    4 1   
     4    2    5 1   
     5    5    6 1   
     6    6    7 1   
     7    6   17 1   
     8    6   18 1   
     9    7    8 1   
    10    7    9 1   
    11    7   19 1   
    12    8   15 1   
    13    9   10 1   
    14    9   11 1   
    15    9   20 1   
    16   10   21 1   
    17   11   12 1   
    18   11   13 1   
    19   11   22 1   
    20   12   23 1   
    21   13   14 1   
    22   13   15 1   
    23   13   24 1   
    24   14   25 1   
    25   14   26 1   
    26   15   16 1   
    27   15   27 1   
    28   16   28 1   
@<TRIPOS>SUBSTRUCTURE
     1 6MN         1 TEMP              0 ****  ****    0 ROOT
