@<TRIPOS>MOLECULE
6MN
   29    29     1     0     0
SMALL
bcc


@<TRIPOS>ATOM
      1 O3P         0.0480    0.5200   -1.1750 o         1 6MN     -0.824000
      2 P           1.2500    1.0200   -0.4940 p5        1 6MN      1.426800
      3 O1P         1.2530    2.6600   -0.4050 oh        1 6MN     -0.795400
      4 O2P         1.8020    0.6160    0.8150 o         1 6MN     -0.824000
      5 O6          2.5210    0.9340   -1.5750 os        1 6MN     -0.570200
      6 C6          3.7490    1.3980   -1.1280 c3        1 6MN      0.188400
      7 C5          3.9860    2.8310   -1.6470 c3        1 6MN      0.066100
      8 O5          3.9260    3.6900   -0.5030 os        1 6MN     -0.438600
      9 C4          5.3260    3.0510   -2.3520 c3        1 6MN      0.082100
     10 O4          5.5190    2.2010   -3.4690 oh        1 6MN     -0.616800
     11 C3          5.3610    4.5160   -2.8290 c3        1 6MN      0.077100
     12 O3          6.5910    4.8170   -3.4710 oh        1 6MN     -0.618800
     13 C2          5.1890    5.4940   -1.6390 c3        1 6MN      0.147500
     14 N2          6.3430    5.6270   -0.7720 n8        1 6MN     -0.896800
     15 C1          3.9390    5.0670   -0.8200 c3        1 6MN      0.334900
     16 O1          2.7870    5.3340   -1.5820 oh        1 6MN     -0.649800
     17 H6          3.7910    1.3840   -0.0020 h1        1 6MN      0.052200
     18 H6A         4.5510    0.7330   -1.5540 h1        1 6MN      0.052200
     19 H5          3.1570    3.1060   -2.3640 h1        1 6MN      0.079700
     20 H4          6.1920    2.8420   -1.6650 h1        1 6MN      0.071700
     21 HO4         4.6530    1.8670   -3.7400 ho        1 6MN      0.424000
     22 H3          4.5170    4.6880   -3.5550 h1        1 6MN      0.058700
     23 HO3         6.7830    4.0660   -4.0500 ho        1 6MN      0.418000
     24 H2          4.9810    6.5150   -2.0740 h1        1 6MN      0.081700
     25 HN2         7.1580    5.7870   -1.3340 hn        1 6MN      0.353800
     26 HN2A        1.8330    2.9690    0.2840 ho        1 6MN      0.429000
     27 H1          3.8930    5.5920    0.1770 h2        1 6MN      0.079700
     28 HO1         2.0760    4.7580   -1.2500 ho        1 6MN      0.458000
     29 H23         6.4760    4.7830   -0.2460 hn        1 6MN      0.353800
@<TRIPOS>BOND
     1    1    2 1   
     2    2    3 1   
     3    2    4 1   
     4    2    5 1   
     5    3   26 1   
     6    5    6 1   
     7    6    7 1   
     8    6   17 1   
     9    6   18 1   
    10    7    8 1   
    11    7    9 1   
    12    7   19 1   
    13    8   15 1   
    14    9   10 1   
    15    9   11 1   
    16    9   20 1   
    17   10   21 1   
    18   11   12 1   
    19   11   13 1   
    20   11   22 1   
    21   12   23 1   
    22   13   14 1   
    23   13   15 1   
    24   13   24 1   
    25   14   25 1   
    26   14   29 1   
    27   15   16 1   
    28   15   27 1   
    29   16   28 1   
@<TRIPOS>SUBSTRUCTURE
     1 6MN         1 TEMP              0 ****  ****    0 ROOT
