@<TRIPOS>MOLECULE
6MN
   28    28     1     0     0
SMALL
bcc


@<TRIPOS>ATOM
      1 O3P        -3.7360    2.6970    2.6800 o         1 6MN     -0.734833
      2 P          -2.2830    2.7210    2.2900 p5        1 6MN      1.345900
      3 O1P        -1.4420    3.0520    3.4990 o         1 6MN     -0.734833
      4 O2P        -2.0710    3.7280    1.2660 o         1 6MN     -0.734833
      5 O6         -1.8700    1.3130    1.7290 os        1 6MN     -0.589200
      6 C6         -0.6990    1.2220    0.9090 c3        1 6MN      0.178400
      7 C5         -0.1490   -0.2690    0.9410 c3        1 6MN      0.066100
      8 O5         -0.9130   -1.0030    0.2610 os        1 6MN     -0.467600
      9 C4          1.3080   -0.2930    0.3790 c3        1 6MN      0.279100
     10 O4          2.2040   -0.3230    1.4510 oh        1 6MN     -0.986800
     11 C3          1.5800   -1.5170   -0.5260 c3        1 6MN      0.023100
     12 O3          2.8030   -1.5030   -1.0130 oh        1 6MN     -0.664800
     13 C2          0.5140   -1.1770   -1.6130 c3        1 6MN      0.111500
     14 N2          0.8150    0.0670   -2.1600 n3        1 6MN     -0.892800
     15 C1         -0.9220   -1.1470   -1.0470 c3        1 6MN      0.357900
     16 O1         -1.5760   -2.3810   -1.3730 oh        1 6MN     -0.635800
     17 H6         -0.0000    1.8420    1.2560 h1        1 6MN      0.025200
     18 H6A        -0.9210    1.4640    0.0010 h1        1 6MN      0.025200
     19 H5         -0.1390   -0.5890    1.8750 h1        1 6MN      0.071700
     20 H4          1.4590    0.5090   -0.1310 h1        1 6MN     -0.097300
     21 HO4         2.8300    0.3210    1.3420 ho        1 6MN      0.432000
     22 H3          1.3810   -2.3240   -0.0870 h1        1 6MN      0.023700
     23 HO3         3.1580   -2.2800   -0.9210 ho        1 6MN      0.433000
     24 H2          0.5580   -1.8290   -2.2990 h1        1 6MN      0.035700
     25 HN2         1.6780    0.0210   -2.6100 hn        1 6MN      0.334300
     26 HN2A        0.1470    0.3100   -2.7810 hn        1 6MN      0.334300
     27 H1         -1.4050   -0.4190   -1.4420 h2        1 6MN      0.052700
     28 HO1        -2.3090   -2.2110   -1.8740 ho        1 6MN      0.408000
@<TRIPOS>BOND
     1    1    2 1   
     2    2    3 1   
     3    2    4 1   
     4    2    5 1   
     5    5    6 1   
     6    6    7 1   
     7    6   17 1   
     8    6   18 1   
     9    7    8 1   
    10    7    9 1   
    11    7   19 1   
    12    8   15 1   
    13    9   10 1   
    14    9   11 1   
    15    9   20 1   
    16   10   21 1   
    17   11   12 1   
    18   11   13 1   
    19   11   22 1   
    20   12   23 1   
    21   13   14 1   
    22   13   15 1   
    23   13   24 1   
    24   14   25 1   
    25   14   26 1   
    26   15   16 1   
    27   15   27 1   
    28   16   28 1   
@<TRIPOS>SUBSTRUCTURE
     1 6MN         1 TEMP              0 ****  ****    0 ROOT
