@<TRIPOS>MOLECULE
6MP
   16    17     1     0     0
SMALL
bcc


@<TRIPOS>ATOM
      1 N9         -0.8190   -0.0500   -2.1200 nc        1 6MP     -0.622700
      2 C4         -0.8780   -0.0070   -0.7030 ca        1 6MP      0.550300
      3 N3         -1.9520    0.0350    0.1370 nb        1 6MP     -0.629000
      4 C2         -1.6230    0.0690    1.4460 ca        1 6MP      0.616900
      5 N1         -0.3840    0.0680    2.0310 nb        1 6MP     -0.690000
      6 C6          0.6940    0.0280    1.2240 ca        1 6MP      0.465600
      7 C7          2.0790    0.0230    1.7750 c3        1 6MP     -0.157400
      8 C5          0.4960   -0.0110   -0.1780 ca        1 6MP     -0.327800
      9 N7          1.3330   -0.0570   -1.2890 na        1 6MP     -0.267300
     10 C8          0.4910   -0.0780   -2.4140 cd        1 6MP      0.437700
     11 H2         -2.4770    0.1030    2.1560 h5        1 6MP      0.058100
     12 H71         2.6070   -0.9050    1.4430 hc        1 6MP      0.059033
     13 H72         2.6340    0.9130    1.3880 hc        1 6MP      0.059033
     14 H73         2.0870    0.0570    2.8920 hc        1 6MP      0.059033
     15 HN7         2.3180   -0.0710   -1.2760 hn        1 6MP      0.312700
     16 H8          0.8980   -0.1150   -3.4340 h5        1 6MP      0.075800
@<TRIPOS>BOND
     1    1    2 1   
     2    1   10 2   
     3    2    3 ar  
     4    2    8 ar  
     5    3    4 ar  
     6    4    5 ar  
     7    4   11 1   
     8    5    6 ar  
     9    6    7 1   
    10    6    8 ar  
    11    7   12 1   
    12    7   13 1   
    13    7   14 1   
    14    8    9 1   
    15    9   10 1   
    16    9   15 1   
    17   10   16 1   
@<TRIPOS>SUBSTRUCTURE
     1 6MP         1 TEMP              0 ****  ****    0 ROOT
