@<TRIPOS>MOLECULE
6MP
   16    11     1     0     0
SMALL
bcc


@<TRIPOS>ATOM
      1 N9         -2.2890   -0.0030    1.2620 n2        1 6MP     -0.116000
      2 C4         -0.9280   -0.0030    1.2620 c1        1 6MP      0.003000
      3 N3         -0.0150   -0.0030    2.2740 n1        1 6MP     -0.103000
      4 C2          1.3190   -0.0030    1.9890 c1        1 6MP     -0.046000
      5 N1          1.7410   -0.0030    0.6910 n1        1 6MP     -0.164000
      6 C6          0.8440   -0.0030   -0.3080 c1        1 6MP      0.043000
      7 C7          1.7180    0.0060   -1.5420 c2        1 6MP     -0.181000
      8 C5         -0.5120   -0.0030   -0.0210 c1        1 6MP     -0.152000
      9 N7         -1.6130   -0.0030   -0.8190 n1        1 6MP     -0.224000
     10 C8         -2.7070   -0.0030   -0.0230 c1        1 6MP     -0.018000
     11 H2          1.9720   -0.0030    2.7140 ha        1 6MP      0.195000
     12 H71         1.1910   -0.2680   -2.3170 ha        1 6MP      0.098333
     13 H72         2.4620   -0.6150   -1.4180 ha        1 6MP      0.098333
     14 H73         2.0670    0.9060   -1.6880 ha        1 6MP      0.098333
     15 HN7        -1.6140   -0.0030   -1.7310 DU        1 6MP      0.234000
     16 H8         -3.6350    0.0000   -0.3240 DU        1 6MP      0.234000
@<TRIPOS>BOND
     1    1    2 1   
     2    1   10 1   
     3    2    8 1   
     4    3    4 1   
     5    4   11 1   
     6    5    6 1   
     7    6    8 1   
     8    7   12 1   
     9    7   13 1   
    10    7   14 1   
    11    9   10 1   
@<TRIPOS>SUBSTRUCTURE
     1 6MP         1 TEMP              0 ****  ****    0 ROOT
