@<TRIPOS>MOLECULE
6MR
   49    37     1     0     0
SMALL
bcc


@<TRIPOS>ATOM
      1 CD2         2.5470    3.1910   -0.9240 c1        1 6MR     -0.041000
      2 CE3         1.6210    2.6210   -1.8250 c1        1 6MR     -0.128333
      3 CZ3         1.7650    2.8300   -3.2000 c1        1 6MR     -0.128333
      4 CH2         2.8140    3.5940   -3.6790 c1        1 6MR     -0.128333
      5 CZ2         3.7350    4.1610   -2.7870 c1        1 6MR     -0.128333
      6 CE2         3.5950    3.9540   -1.4030 c1        1 6MR     -0.041000
      7 NE1         4.2900    4.4710   -0.3090 n1        1 6MR     -0.225000
      8 CD1         3.6670    4.0230    0.8430 c1        1 6MR     -0.054000
      9 CG          2.5880    3.2310    0.4660 c1        1 6MR     -0.153000
     10 CB          1.6250    2.8790    1.5440 c2        1 6MR     -0.100000
     11 CA          2.0720    1.5540    2.2290 c3        1 6MR     -0.037000
     12 C           3.1170    0.8620    1.3650 c2        1 6MR      0.344000
     13 OXT         4.3730    0.9690    1.6620 o         1 6MR     -0.562500
     14 O           2.7650    0.2560    0.3080 o         1 6MR     -0.562500
     15 N           0.9590    0.7080    2.3910 n3        1 6MR     -0.866000
     16 SAZ         1.1570   -0.9790    2.3220 s4        1 6MR      2.066800
     17 OBE         1.4080   -1.5300    3.6270 o         1 6MR     -0.558900
     18 OAP         2.3630   -1.3340    1.6340 o         1 6MR     -0.558900
     19 CAY        -0.2850   -1.7460    1.5600 c1        1 6MR     -0.776000
     20 CAX        -0.3900   -1.8120    0.1640 c2        1 6MR      0.028000
     21 CAW        -1.5200   -2.3780   -0.4230 c1        1 6MR     -0.152000
     22 CAO        -1.3090   -2.2440    2.3550 c1        1 6MR     -0.030000
     23 CAN        -2.4340   -2.8070    1.7660 c1        1 6MR     -0.144000
     24 CAM        -2.5360   -2.8720    0.3700 c1        1 6MR     -0.009000
     25 CAL        -3.6690   -3.3970   -0.2120 c1        1 6MR     -0.009000
     26 CAK        -3.6020   -4.6020   -0.9040 c1        1 6MR     -0.128333
     27 CAJ        -4.7160   -5.0860   -1.5450 c1        1 6MR     -0.128333
     28 CAT        -5.9060   -4.3750   -1.5030 c1        1 6MR     -0.268000
     29 I          -7.6180   -5.1980   -2.3150 i         1 6MR      0.118000
     30 CAU        -5.9750   -3.1780   -0.8170 c1        1 6MR     -0.101000
     31 CAV        -4.8620   -2.6880   -0.1730 c1        1 6MR     -0.144000
     32 HE3         0.6470    2.4280   -1.7600 ha        1 6MR      0.126167
     33 HZ3         1.1430    2.6200   -3.9320 ha        1 6MR      0.126167
     34 HH2         2.9590    3.6180   -4.6400 ha        1 6MR      0.126167
     35 HZ2         4.5240    4.6500   -3.2650 ha        1 6MR      0.126167
     36 HNE1        5.0330    5.0130   -0.3470 DU        1 6MR      0.238000
     37 HD1         3.9460    4.2130    1.7560 DU        1 6MR      0.238000
     38 HB1         0.7450    2.7630    1.1660 ha        1 6MR      0.085000
     39 HB2         1.6030    3.5830    2.1910 ha        1 6MR      0.085000
     40 HA          2.4770    1.7650    3.1510 h1        1 6MR      0.088000
     41 HN          0.1540    1.0600    2.6250 hn        1 6MR      0.223000
     42 HAX         0.2830   -1.3880   -0.3940 ha        1 6MR      0.208000
     43 HAW        -1.5920   -2.4240   -1.3760 ha        1 6MR      0.135000
     44 HAO        -1.2350   -2.2000    3.3540 ha        1 6MR      0.143000
     45 HAN        -3.1480   -3.1540    2.3190 ha        1 6MR      0.134000
     46 HAK        -2.8000   -5.1100   -0.8990 ha        1 6MR      0.126167
     47 HAJ        -4.6700   -5.9680   -2.0520 ha        1 6MR      0.126167
     48 HAU        -6.7960   -2.6900   -0.7890 ha        1 6MR      0.138000
     49 HAV        -4.9110   -1.8550    0.3050 ha        1 6MR      0.134000
@<TRIPOS>BOND
     1    1    6 1   
     2    2    3 1   
     3    2   32 1   
     4    3   33 1   
     5    4    5 1   
     6    4   34 1   
     7    5   35 1   
     8    7    8 1   
     9    8    9 1   
    10   10   11 1   
    11   10   38 1   
    12   10   39 1   
    13   11   12 1   
    14   11   15 1   
    15   11   40 1   
    16   12   13 1   
    17   12   14 1   
    18   15   16 1   
    19   15   41 1   
    20   16   17 1   
    21   16   18 1   
    22   19   20 1   
    23   19   22 1   
    24   20   21 1   
    25   20   42 1   
    26   21   43 1   
    27   22   44 1   
    28   23   24 1   
    29   23   45 1   
    30   25   31 1   
    31   26   27 1   
    32   26   46 1   
    33   27   47 1   
    34   28   29 1   
    35   28   30 1   
    36   30   48 1   
    37   31   49 1   
@<TRIPOS>SUBSTRUCTURE
     1 6MR         1 TEMP              0 ****  ****    0 ROOT
