@<TRIPOS>MOLECULE
6MR
   49    52     1     0     0
SMALL
bcc


@<TRIPOS>ATOM
      1 CD2        -4.2020    1.5370    9.6440 ca        1 6MR     -0.091800
      2 CE3        -5.5960    1.5320    9.7080 ca        1 6MR     -0.063000
      3 CZ3        -6.2030    1.9570   10.8830 ca        1 6MR     -0.179000
      4 CH2        -5.4450    2.3870   11.9850 ca        1 6MR     -0.123000
      5 CZ2        -4.0570    2.4140   11.9540 ca        1 6MR     -0.171000
      6 CE2        -3.4250    1.9910   10.7750 ca        1 6MR     -0.062200
      7 NE1        -2.0690    1.8770   10.4440 na        1 6MR     -0.206400
      8 CD1        -1.9820    1.4350    9.1130 cc        1 6MR     -0.124100
      9 CG         -3.2530    1.1790    8.6060 cd        1 6MR     -0.124400
     10 CB         -3.6010    0.6160    7.2930 c3        1 6MR     -0.023200
     11 CA         -4.0990    1.6930    6.3090 c3        1 6MR      0.092500
     12 C          -5.4830    1.2190    5.7080 c         1 6MR      0.925600
     13 OXT        -5.5910    1.1100    4.4580 o         1 6MR     -0.820800
     14 O          -6.3930    0.9970    6.5500 o         1 6MR     -0.820800
     15 N          -3.1440    2.0330    5.2800 n3        1 6MR     -0.914100
     16 SAZ        -1.8020    2.8440    5.4330 sy        1 6MR      1.499200
     17 OBE        -1.1950    3.0370    4.1580 o         1 6MR     -0.684300
     18 OAP        -0.9190    2.3160    6.4120 o         1 6MR     -0.684300
     19 CAY        -2.2900    4.3860    6.0010 ca        1 6MR     -0.329500
     20 CAX        -2.6380    4.5800    7.3400 ca        1 6MR     -0.021500
     21 CAW        -3.0300    5.8330    7.8050 ca        1 6MR     -0.145500
     22 CAO        -2.3380    5.4790    5.1310 ca        1 6MR     -0.021500
     23 CAN        -2.7210    6.7390    5.5840 ca        1 6MR     -0.145500
     24 CAM        -3.0750    6.9250    6.9270 cp        1 6MR     -0.011000
     25 CAL        -3.4910    8.2420    7.4070 cp        1 6MR     -0.012000
     26 CAK        -4.5630    8.3660    8.3040 ca        1 6MR     -0.121500
     27 CAJ        -4.9580    9.6210    8.7610 ca        1 6MR     -0.100500
     28 CAT        -4.2880   10.7670    8.3320 ca        1 6MR      0.020900
     29 I          -4.8600   12.5880    9.0000 i         1 6MR     -0.163900
     30 CAU        -3.2220   10.6530    7.4400 ca        1 6MR     -0.100500
     31 CAV        -2.8260    9.4000    6.9790 ca        1 6MR     -0.121500
     32 HE3        -6.1770    1.2130    8.8180 ha        1 6MR      0.201000
     33 HZ3        -7.3000    1.9640   10.9540 ha        1 6MR      0.122000
     34 HH2        -5.9660    2.7150   12.8960 ha        1 6MR      0.110000
     35 HZ2        -3.4750    2.7550   12.8190 ha        1 6MR      0.115000
     36 HNE1       -1.3400    2.3200   10.9340 hn        1 6MR      0.279700
     37 HD1        -1.0150    1.3410    8.6070 h4        1 6MR      0.194000
     38 HB1        -4.4400   -0.1230    7.4360 hc        1 6MR      0.065200
     39 HB2        -2.7230    0.0590    6.8740 hc        1 6MR      0.065200
     40 HA         -4.3410    2.6320    6.8940 h1        1 6MR      0.040700
     41 HN         -3.5160    1.7920    4.3760 hn        1 6MR      0.490800
     42 HAX        -2.6000    3.7220    8.0390 ha        1 6MR      0.160500
     43 HAW        -3.3060    5.9650    8.8610 ha        1 6MR      0.134000
     44 HAO        -2.0620    5.3350    4.0710 ha        1 6MR      0.160500
     45 HAN        -2.7600    7.5860    4.8840 ha        1 6MR      0.134000
     46 HAK        -5.0990    7.4650    8.6400 ha        1 6MR      0.147500
     47 HAJ        -5.8050    9.6970    9.4610 ha        1 6MR      0.140000
     48 HAU        -2.6840   11.5500    7.0940 ha        1 6MR      0.140000
     49 HAV        -1.9820    9.3160    6.2770 ha        1 6MR      0.147500
@<TRIPOS>BOND
     1    1    2 ar  
     2    1    6 ar  
     3    1    9 1   
     4    2    3 ar  
     5    2   32 1   
     6    3    4 ar  
     7    3   33 1   
     8    4    5 ar  
     9    4   34 1   
    10    5    6 ar  
    11    5   35 1   
    12    6    7 1   
    13    7    8 1   
    14    7   36 1   
    15    8    9 2   
    16    8   37 1   
    17    9   10 1   
    18   10   11 1   
    19   10   38 1   
    20   10   39 1   
    21   11   12 1   
    22   11   15 1   
    23   11   40 1   
    24   12   13 1   
    25   12   14 1   
    26   15   16 1   
    27   15   41 1   
    28   16   17 2   
    29   16   18 2   
    30   16   19 1   
    31   19   20 ar  
    32   19   22 ar  
    33   20   21 ar  
    34   20   42 1   
    35   21   24 ar  
    36   21   43 1   
    37   22   23 ar  
    38   22   44 1   
    39   23   24 ar  
    40   23   45 1   
    41   24   25 1   
    42   25   26 ar  
    43   25   31 ar  
    44   26   27 ar  
    45   26   46 1   
    46   27   28 ar  
    47   27   47 1   
    48   28   29 1   
    49   28   30 ar  
    50   30   31 ar  
    51   30   48 1   
    52   31   49 1   
@<TRIPOS>SUBSTRUCTURE
     1 6MR         1 TEMP              0 ****  ****    0 ROOT
