@<TRIPOS>MOLECULE
6MR
   50    53     1     0     0
SMALL
bcc


@<TRIPOS>ATOM
      1 CD2        -1.3400    0.9780    0.0760 ca        1 6MR     -0.091800
      2 CE3        -0.4330    0.7480    1.1130 ca        1 6MR     -0.086000
      3 CZ3        -0.7700    1.1500    2.3960 ca        1 6MR     -0.154000
      4 CH2        -1.9990    1.7780    2.6680 ca        1 6MR     -0.108000
      5 CZ2        -2.9250    2.0290    1.6680 ca        1 6MR     -0.141000
      6 CE2        -2.5970    1.6310    0.3620 ca        1 6MR     -0.044200
      7 NE1        -3.3120    1.7390   -0.8350 na        1 6MR     -0.186400
      8 CD1        -2.5340    1.2030   -1.8610 cc        1 6MR     -0.116100
      9 CG         -1.3310    0.7110   -1.3480 cd        1 6MR     -0.172400
     10 CB         -0.2490    0.0710   -2.1060 c3        1 6MR     -0.017200
     11 CA         -0.1730   -1.4370   -1.8690 c3        1 6MR     -0.038500
     12 C           1.0190   -2.0110   -2.7570 c         1 6MR      0.924600
     13 OXT         0.6800   -2.8500   -3.6370 o         1 6MR     -0.775300
     14 O           2.1520   -1.5860   -2.4730 o         1 6MR     -0.775300
     15 N          -1.4500   -2.1360   -2.2010 ny        1 6MR     -0.709900
     16 SAZ        -1.8550   -3.6520   -1.2770 sy        1 6MR      1.462200
     17 OBE        -2.7790   -3.2010   -0.3310 o         1 6MR     -0.606300
     18 OAP        -2.3390   -4.4860   -2.2840 o         1 6MR     -0.606300
     19 CAY        -0.4620   -4.1430   -0.6200 ca        1 6MR     -0.490500
     20 CAX        -0.2540   -4.0330    0.7720 ca        1 6MR      0.023000
     21 CAW         0.8930   -4.5250    1.3670 ca        1 6MR     -0.150000
     22 CAO         0.5490   -4.7470   -1.3910 ca        1 6MR      0.023000
     23 CAN         1.7020   -5.2480   -0.7970 ca        1 6MR     -0.150000
     24 CAM         1.8900   -5.1440    0.5870 cp        1 6MR      0.078000
     25 CAL         3.1010   -5.6640    1.2170 cp        1 6MR     -0.057000
     26 CAK         3.7230   -4.9550    2.2550 ca        1 6MR     -0.105500
     27 CAJ         4.8790   -5.4530    2.8520 ca        1 6MR     -0.098000
     28 CAT         5.4240   -6.6650    2.4250 ca        1 6MR      0.037900
     29 I           7.0960   -7.3880    3.2980 i         1 6MR     -0.128900
     30 CAU         4.8110   -7.3740    1.3920 ca        1 6MR     -0.098000
     31 CAV         3.6580   -6.8770    0.7870 ca        1 6MR     -0.105500
     32 HE3         0.5320    0.2650    0.9000 ha        1 6MR      0.142000
     33 HZ3        -0.0650    0.9810    3.2240 ha        1 6MR      0.132000
     34 HH2        -2.2260    2.0810    3.7020 ha        1 6MR      0.133000
     35 HZ2        -3.8820    2.5220    1.8880 ha        1 6MR      0.135000
     36 HNE1       -4.1620    2.2230   -0.9490 hn        1 6MR      0.302700
     37 HD1        -2.8870    1.2220   -2.8950 h4        1 6MR      0.166000
     38 HB1        -0.3630    0.2760   -3.2050 hc        1 6MR      0.087200
     39 HB2         0.7520    0.4840   -1.7930 hc        1 6MR      0.087200
     40 HA          0.0540   -1.6320   -0.7840 hx        1 6MR      0.082700
     41 HN         -2.2120   -1.4600   -2.1180 hn        1 6MR      0.463300
     42 HAX        -1.0320   -3.5520    1.3940 ha        1 6MR      0.180500
     43 HAW         1.0300   -4.4370    2.4570 ha        1 6MR      0.160000
     44 HAO         0.4440   -4.7910   -2.4970 ha        1 6MR      0.180500
     45 HAN         2.4860   -5.6990   -1.4290 ha        1 6MR      0.160000
     46 HAK         3.3060   -3.9930    2.5900 ha        1 6MR      0.144000
     47 HAJ         5.3580   -4.8780    3.6600 ha        1 6MR      0.151000
     48 HAU         5.2310   -8.3310    1.0430 ha        1 6MR      0.151000
     49 HAV         3.1810   -7.4420   -0.0280 ha        1 6MR      0.144000
     50 H2         -1.3470   -2.3920   -3.2040 hn        1 6MR      0.463300
@<TRIPOS>BOND
     1    1    2 ar  
     2    1    6 ar  
     3    1    9 1   
     4    2    3 ar  
     5    2   32 1   
     6    3    4 ar  
     7    3   33 1   
     8    4    5 ar  
     9    4   34 1   
    10    5    6 ar  
    11    5   35 1   
    12    6    7 1   
    13    7    8 1   
    14    7   36 1   
    15    8    9 2   
    16    8   37 1   
    17    9   10 1   
    18   10   11 1   
    19   10   38 1   
    20   10   39 1   
    21   11   12 1   
    22   11   15 1   
    23   11   40 1   
    24   12   13 1   
    25   12   14 1   
    26   15   16 1   
    27   15   41 1   
    28   15   50 1   
    29   16   17 2   
    30   16   18 2   
    31   16   19 1   
    32   19   20 ar  
    33   19   22 ar  
    34   20   21 ar  
    35   20   42 1   
    36   21   24 ar  
    37   21   43 1   
    38   22   23 ar  
    39   22   44 1   
    40   23   24 ar  
    41   23   45 1   
    42   24   25 1   
    43   25   26 ar  
    44   25   31 ar  
    45   26   27 ar  
    46   26   46 1   
    47   27   28 ar  
    48   27   47 1   
    49   28   29 1   
    50   28   30 ar  
    51   30   31 ar  
    52   30   48 1   
    53   31   49 1   
@<TRIPOS>SUBSTRUCTURE
     1 6MR         1 TEMP              0 ****  ****    0 ROOT
