@<TRIPOS>MOLECULE
6MR
   50    53     1     0     0
SMALL
bcc


@<TRIPOS>ATOM
      1 CD2        -1.4120    0.9530    0.0290 ca        1 6MR     -0.091800
      2 CE3        -0.4920    0.7620    1.0620 ca        1 6MR     -0.086000
      3 CZ3        -0.8270    1.1800    2.3410 ca        1 6MR     -0.154000
      4 CH2        -2.0670    1.7880    2.6120 ca        1 6MR     -0.108000
      5 CZ2        -3.0060    2.0000    1.6160 ca        1 6MR     -0.141000
      6 CE2        -2.6810    1.5850    0.3140 ca        1 6MR     -0.044200
      7 NE1        -3.4080    1.6550   -0.8780 na        1 6MR     -0.186400
      8 CD1        -2.6270    1.1160   -1.9010 cc        1 6MR     -0.116100
      9 CG         -1.4090    0.6600   -1.3900 cd        1 6MR     -0.172400
     10 CB         -0.3210    0.0280   -2.1450 c3        1 6MR     -0.017200
     11 CA         -0.2110   -1.4720   -1.8800 c3        1 6MR     -0.038500
     12 C           0.9850   -2.0390   -2.7690 c         1 6MR      0.924600
     13 OXT         0.6550   -2.9010   -3.6290 o         1 6MR     -0.775300
     14 O           2.1120   -1.5850   -2.5030 o         1 6MR     -0.775300
     15 N          -1.4750   -2.2050   -2.1860 n4        1 6MR     -0.709900
     16 SAZ        -1.8400   -3.7120   -1.2300 sy        1 6MR      1.462200
     17 OBE        -2.7630   -3.2610   -0.2830 o         1 6MR     -0.606300
     18 OAP        -2.3150   -4.5750   -2.2160 o         1 6MR     -0.606300
     19 CAY        -0.4300   -4.1610   -0.5780 ca        1 6MR     -0.490500
     20 CAX        -0.2100   -4.0190    0.8090 ca        1 6MR      0.023000
     21 CAW         0.9530   -4.4760    1.4020 ca        1 6MR     -0.150000
     22 CAO         0.5860   -4.7580   -1.3480 ca        1 6MR      0.023000
     23 CAN         1.7550   -5.2240   -0.7560 ca        1 6MR     -0.150000
     24 CAM         1.9540   -5.0890    0.6240 cp        1 6MR      0.078000
     25 CAL         3.1820   -5.5720    1.2510 cp        1 6MR     -0.057000
     26 CAK         3.7990   -4.8300    2.2680 ca        1 6MR     -0.105500
     27 CAJ         4.9710   -5.2930    2.8630 ca        1 6MR     -0.098000
     28 CAT         5.5370   -6.5010    2.4540 ca        1 6MR      0.037900
     29 I           7.2310   -7.1730    3.3240 i         1 6MR     -0.128900
     30 CAU         4.9280   -7.2430    1.4410 ca        1 6MR     -0.098000
     31 CAV         3.7600   -6.7810    0.8390 ca        1 6MR     -0.105500
     32 HE3         0.4810    0.2950    0.8510 ha        1 6MR      0.142000
     33 HZ3        -0.1110    1.0420    3.1650 ha        1 6MR      0.132000
     34 HH2        -2.2910    2.1040    3.6420 ha        1 6MR      0.133000
     35 HZ2        -3.9710    2.4770    1.8340 ha        1 6MR      0.135000
     36 HNE1       -4.2680    2.1200   -0.9940 hn        1 6MR      0.302700
     37 HD1        -2.9890    1.1090   -2.9320 h4        1 6MR      0.166000
     38 HB1         0.6740    0.4680   -1.8490 hc        1 6MR      0.087200
     39 HB2        -0.4490    0.2090   -3.2460 hc        1 6MR      0.087200
     40 HA          0.0310   -1.6430   -0.7940 hx        1 6MR      0.082700
     41 HN         -2.2510   -1.5440   -2.1090 hn        1 6MR      0.463300
     42 HAX        -0.9930   -3.5420    1.4300 ha        1 6MR      0.180000
     43 HAW         1.0980   -4.3640    2.4880 ha        1 6MR      0.160000
     44 HAO         0.4700   -4.8250   -2.4520 ha        1 6MR      0.180000
     45 HAN         2.5410   -5.6700   -1.3870 ha        1 6MR      0.160000
     46 HAK         3.3660   -3.8700    2.5890 ha        1 6MR      0.144000
     47 HAJ         5.4470   -4.6920    3.6550 ha        1 6MR      0.151000
     48 HAU         5.3650   -8.1980    1.1070 ha        1 6MR      0.151000
     49 HAV         3.2860   -7.3720    0.0400 ha        1 6MR      0.144000
     50 H2         -1.3760   -2.4770   -3.1850 hn        1 6MR      0.463300
@<TRIPOS>BOND
     1    1    2 ar  
     2    1    6 ar  
     3    1    9 1   
     4    2    3 ar  
     5    2   32 1   
     6    3    4 ar  
     7    3   33 1   
     8    4    5 ar  
     9    4   34 1   
    10    5    6 ar  
    11    5   35 1   
    12    6    7 1   
    13    7    8 1   
    14    7   36 1   
    15    8    9 2   
    16    8   37 1   
    17    9   10 1   
    18   10   11 1   
    19   10   38 1   
    20   10   39 1   
    21   11   12 1   
    22   11   15 1   
    23   11   40 1   
    24   12   13 1   
    25   12   14 1   
    26   15   16 1   
    27   15   41 1   
    28   15   50 1   
    29   16   17 2   
    30   16   18 2   
    31   16   19 1   
    32   19   20 ar  
    33   19   22 ar  
    34   20   21 ar  
    35   20   42 1   
    36   21   24 ar  
    37   21   43 1   
    38   22   23 ar  
    39   22   44 1   
    40   23   24 ar  
    41   23   45 1   
    42   24   25 1   
    43   25   26 ar  
    44   25   31 ar  
    45   26   27 ar  
    46   26   46 1   
    47   27   28 ar  
    48   27   47 1   
    49   28   29 1   
    50   28   30 ar  
    51   30   31 ar  
    52   30   48 1   
    53   31   49 1   
@<TRIPOS>SUBSTRUCTURE
     1 6MR         1 TEMP              0 ****  ****    0 ROOT
