@<TRIPOS>MOLECULE
6MR
   50    53     1     0     0
SMALL
bcc


@<TRIPOS>ATOM
      1 CD2        -1.4560    0.9300    0.0520 ca        1 6MR     -0.091800
      2 CE3        -0.5200    0.7520    1.0730 ca        1 6MR     -0.086000
      3 CZ3        -0.8440    1.1670    2.3560 ca        1 6MR     -0.154000
      4 CH2        -2.0890    1.7580    2.6420 ca        1 6MR     -0.108000
      5 CZ2        -3.0440    1.9560    1.6580 ca        1 6MR     -0.141000
      6 CE2        -2.7290    1.5450    0.3530 ca        1 6MR     -0.044200
      7 NE1        -3.4720    1.6030   -0.8300 na        1 6MR     -0.186400
      8 CD1        -2.6970    1.0750   -1.8630 cc        1 6MR     -0.116100
      9 CG         -1.4660    0.6360   -1.3670 cd        1 6MR     -0.172400
     10 CB         -0.3790    0.0190   -2.1350 c3        1 6MR     -0.017200
     11 CA         -0.2460   -1.4800   -1.8730 c3        1 6MR     -0.038500
     12 C           0.9470   -2.0300   -2.7760 c         1 6MR      0.924600
     13 OXT         0.6180   -2.8970   -3.6330 o         1 6MR     -0.775300
     14 O           2.0700   -1.5610   -2.5240 o         1 6MR     -0.775300
     15 N          -1.5040   -2.2290   -2.1640 n4        1 6MR     -0.709900
     16 SAZ        -1.8370   -3.7410   -1.2050 sy        1 6MR      1.462200
     17 OBE        -2.7550   -3.3030   -0.2460 o         1 6MR     -0.606300
     18 OAP        -2.3130   -4.6100   -2.1850 o         1 6MR     -0.606300
     19 CAY        -0.4140   -4.1710   -0.5690 ca        1 6MR     -0.490500
     20 CAX        -0.1800   -4.0280    0.8160 ca        1 6MR      0.023000
     21 CAW         0.9960   -4.4690    1.3940 ca        1 6MR     -0.150000
     22 CAO         0.6010   -4.7550   -1.3520 ca        1 6MR      0.023000
     23 CAN         1.7830   -5.2050   -0.7740 ca        1 6MR     -0.150000
     24 CAM         1.9960   -5.0690    0.6040 cp        1 6MR      0.078000
     25 CAL         3.2380   -5.5350    1.2160 cp        1 6MR     -0.057000
     26 CAK         3.8570   -4.7870    2.2270 ca        1 6MR     -0.105500
     27 CAJ         5.0420   -5.2340    2.8070 ca        1 6MR     -0.098000
     28 CAT         5.6190   -6.4340    2.3900 ca        1 6MR      0.037900
     29 I           7.3320   -7.0840    3.2400 i         1 6MR     -0.128900
     30 CAU         5.0080   -7.1840    1.3840 ca        1 6MR     -0.098000
     31 CAV         3.8270   -6.7370    0.7960 ca        1 6MR     -0.105500
     32 HE3         0.4570    0.2990    0.8500 ha        1 6MR      0.142000
     33 HZ3        -0.1160    1.0390    3.1710 ha        1 6MR      0.132000
     34 HH2        -2.3040    2.0720    3.6750 ha        1 6MR      0.133000
     35 HZ2        -4.0120    2.4190    1.8890 ha        1 6MR      0.135000
     36 HNE1       -4.3410    2.0550   -0.9350 hn        1 6MR      0.302700
     37 HD1        -3.0720    1.0620   -2.8890 h4        1 6MR      0.166000
     38 HB1         0.6130    0.4720   -1.8510 hc        1 6MR      0.087200
     39 HB2        -0.5230    0.1990   -3.2350 hc        1 6MR      0.087200
     40 HA          0.0110   -1.6470   -0.7900 hx        1 6MR      0.082700
     41 HN         -1.4130   -2.5000   -3.1640 hn        1 6MR      0.463300
     42 HAX        -0.9610   -3.5620    1.4460 ha        1 6MR      0.180000
     43 HAW         1.1530   -4.3560    2.4790 ha        1 6MR      0.160000
     44 HAO         0.4730   -4.8230   -2.4540 ha        1 6MR      0.180000
     45 HAN         2.5680   -5.6410   -1.4150 ha        1 6MR      0.160000
     46 HAK         3.4150   -3.8330    2.5540 ha        1 6MR      0.144000
     47 HAJ         5.5180   -4.6280    3.5940 ha        1 6MR      0.151000
     48 HAU         5.4540   -8.1320    1.0430 ha        1 6MR      0.151000
     49 HAV         3.3520   -7.3330    0.0020 ha        1 6MR      0.144000
     50 H2         -2.2880   -1.5780   -2.0770 hn        1 6MR      0.463300
@<TRIPOS>BOND
     1    1    2 ar  
     2    1    6 ar  
     3    1    9 1   
     4    2    3 ar  
     5    2   32 1   
     6    3    4 ar  
     7    3   33 1   
     8    4    5 ar  
     9    4   34 1   
    10    5    6 ar  
    11    5   35 1   
    12    6    7 1   
    13    7    8 1   
    14    7   36 1   
    15    8    9 2   
    16    8   37 1   
    17    9   10 1   
    18   10   11 1   
    19   10   38 1   
    20   10   39 1   
    21   11   12 1   
    22   11   15 1   
    23   11   40 1   
    24   12   13 1   
    25   12   14 1   
    26   15   16 1   
    27   15   41 1   
    28   15   50 1   
    29   16   17 2   
    30   16   18 2   
    31   16   19 1   
    32   19   20 ar  
    33   19   22 ar  
    34   20   21 ar  
    35   20   42 1   
    36   21   24 ar  
    37   21   43 1   
    38   22   23 ar  
    39   22   44 1   
    40   23   24 ar  
    41   23   45 1   
    42   24   25 1   
    43   25   26 ar  
    44   25   31 ar  
    45   26   27 ar  
    46   26   46 1   
    47   27   28 ar  
    48   27   47 1   
    49   28   29 1   
    50   28   30 ar  
    51   30   31 ar  
    52   30   48 1   
    53   31   49 1   
@<TRIPOS>SUBSTRUCTURE
     1 6MR         1 TEMP              0 ****  ****    0 ROOT
