@<TRIPOS>MOLECULE
6MT
   37    39     1     0     0
SMALL
bcc


@<TRIPOS>ATOM
      1 OP3         1.3470   -0.9230   -5.6070 oh        1 6MT     -0.787400
      2 P           1.9640   -2.1090   -4.6620 p5        1 6MT      1.430800
      3 OP1         2.8480   -2.9850   -5.4530 o         1 6MT     -0.843500
      4 OP2         0.7810   -2.5210   -3.8720 o         1 6MT     -0.843500
      5 O5'         2.9030   -1.1820   -3.6720 os        1 6MT     -0.580200
      6 C5'         2.2480   -0.3250   -2.7860 c3        1 6MT      0.185400
      7 C4'         2.5420   -0.7370   -1.3360 c3        1 6MT      0.088100
      8 O4'         2.7400    0.4320   -0.5290 os        1 6MT     -0.443600
      9 C3'         1.4020   -1.5560   -0.6970 c3        1 6MT      0.100100
     10 O3'         1.9090   -2.6040    0.1170 oh        1 6MT     -0.609800
     11 C2'         0.6380   -0.5320    0.1450 c3        1 6MT     -0.142400
     12 C1'         1.6810    0.5660    0.4600 c3        1 6MT      0.272800
     13 N9          1.1520    1.8940    0.5130 nh        1 6MT     -0.260200
     14 C8         -0.0330    2.3870   -0.1190 c1        1 6MT      0.089400
     15 N7         -0.2110    3.7010    0.1470 ne        1 6MT     -0.683800
     16 C5          0.8520    4.1090    0.9500 ca        1 6MT     -0.116200
     17 C6          1.2150    5.3450    1.5470 ca        1 6MT      0.577200
     18 N1          2.3650    5.4390    2.2890 nb        1 6MT     -0.772000
     19 C2          3.0920    4.3060    2.4460 ca        1 6MT      0.570900
     20 N3          2.8750    3.0540    1.9610 nb        1 6MT     -0.718000
     21 C4          1.7560    2.9610    1.2020 ca        1 6MT      0.379800
     22 N6          0.3340    6.4610    1.4220 nh        1 6MT     -0.810900
     23 C1          0.9380    7.7600    1.3230 c3        1 6MT      0.179100
     24 H5'         2.6510    0.7160   -2.9400 h1        1 6MT      0.038700
     25 H5''        1.1410   -0.3320   -2.9800 h1        1 6MT      0.038700
     26 H4'         3.5140   -1.3010   -1.2990 h1        1 6MT      0.066700
     27 H3'         0.7650   -2.0750   -1.4670 h1        1 6MT      0.146700
     28 HO3'        2.5410   -2.2010    0.7250 ho        1 6MT      0.381000
     29 H2'        -0.2190   -0.1100   -0.4380 hc        1 6MT      0.076700
     30 H2''        0.2520   -0.9820    1.0890 hc        1 6MT      0.076700
     31 H1'         2.1950    0.3490    1.4470 h2        1 6MT      0.036700
     32 H8          0.5010   -0.6260   -5.2900 ho        1 6MT      0.423000
     33 H2          4.0060    4.4200    3.0580 h5        1 6MT      0.006100
     34 H61        -0.3140    6.2940    0.6730 hn        1 6MT      0.398800
     35 H11         0.1220    8.5200    1.1920 h1        1 6MT      0.016033
     36 H12         1.6580    7.8650    0.4650 h1        1 6MT      0.016033
     37 H13         1.4930    7.9890    2.2710 h1        1 6MT      0.016033
@<TRIPOS>BOND
     1    1    2 1   
     2    1   32 1   
     3    2    3 1   
     4    2    4 1   
     5    2    5 1   
     6    5    6 1   
     7    6    7 1   
     8    6   24 1   
     9    6   25 1   
    10    7    8 1   
    11    7    9 1   
    12    7   26 1   
    13    8   12 1   
    14    9   10 1   
    15    9   11 1   
    16    9   27 1   
    17   10   28 1   
    18   11   12 1   
    19   11   29 1   
    20   11   30 1   
    21   12   13 1   
    22   12   31 1   
    23   13   14 2   
    24   13   21 1   
    25   14   15 2   
    26   15   16 1   
    27   16   17 ar  
    28   16   21 ar  
    29   17   18 ar  
    30   17   22 1   
    31   18   19 ar  
    32   19   20 ar  
    33   19   33 1   
    34   20   21 ar  
    35   22   23 1   
    36   22   34 1   
    37   23   35 1   
    38   23   36 1   
    39   23   37 1   
@<TRIPOS>SUBSTRUCTURE
     1 6MT         1 TEMP              0 ****  ****    0 ROOT
