@<TRIPOS>MOLECULE
6MT
   37    35     1     0     0
SMALL
bcc


@<TRIPOS>ATOM
      1 OP3         0.1610    5.8450    1.6400 o         1 6MT     -0.929833
      2 P           1.6630    5.6830    1.4130 p5        1 6MT      1.330900
      3 OP1         2.4080    6.2690    2.5660 o         1 6MT     -0.929833
      4 OP2         2.0550    6.3960    0.1580 o         1 6MT     -0.929833
      5 O5'         2.0120    4.1480    1.2770 os        1 6MT     -0.553200
      6 C5'         1.2070    3.3270    0.3620 c3        1 6MT      0.227400
      7 C4'         2.1100    2.2270   -0.2800 c3        1 6MT      0.051100
      8 O4'         1.8510    0.8360    0.4080 os        1 6MT     -0.434600
      9 C3'         1.8010    2.0560   -1.5010 c3        1 6MT      0.156100
     10 O3'         2.9680    1.6650   -2.2490 oh        1 6MT     -0.671800
     11 C2'         0.6860    0.8490   -1.5290 c3        1 6MT     -0.130400
     12 C1'         1.0510    0.0030   -0.6300 c3        1 6MT      0.252800
     13 N9         -0.1360   -0.6160    0.0080 n3        1 6MT     -0.101400
     14 C8         -0.7370   -0.3010    1.1750 c1        1 6MT      0.227400
     15 N7         -1.5660   -1.3110    1.5030 ne        1 6MT     -0.438400
     16 C5         -1.4800   -2.2560    0.5390 cg        1 6MT     -0.158000
     17 C6         -2.0730   -3.5130    0.4080 c1        1 6MT      0.561600
     18 N1         -1.7640   -4.2920   -0.6360 n1        1 6MT     -0.597800
     19 C2         -0.8600   -3.8520   -1.5820 c1        1 6MT      0.360300
     20 N3         -0.2830   -2.6280   -1.4540 n1        1 6MT     -0.512800
     21 C4         -0.5970   -1.8280   -0.3850 c1        1 6MT     -0.017300
     22 N6         -3.0730   -4.0100    1.2990 n3        1 6MT     -0.703800
     23 C1         -3.3380   -5.4130    1.3720 c3        1 6MT      0.196100
     24 H5'         0.4410    2.8790    0.8840 h1        1 6MT     -0.004800
     25 H5''        0.8230    3.9130   -0.3620 h1        1 6MT     -0.004800
     26 H4'         3.0640    2.4780   -0.2000 h1        1 6MT      0.081700
     27 H3'         1.4340    2.8460   -1.8580 h1        1 6MT      0.103700
     28 HO3'        3.0790    2.2040   -2.9040 ho        1 6MT      0.501000
     29 H2'        -0.1940    1.2000   -1.3200 hc        1 6MT      0.054700
     30 H2''        0.6770    0.4250   -2.3980 hc        1 6MT      0.054700
     31 H1'         1.6190   -0.6840   -1.0230 h2        1 6MT      0.072700
     32 H8         -0.6060    0.5060    1.6780 DU        1 6MT      0.258000
     33 H2         -0.6350   -4.4190   -2.3420 ha        1 6MT      0.107500
     34 H61        -3.5510   -3.4290    1.8190 hn        1 6MT      0.431800
     35 H11        -2.5750   -5.8640    1.7420 h1        1 6MT      0.029700
     36 H12        -4.1200   -5.5690    1.9460 h1        1 6MT      0.029700
     37 H13        -3.5220   -5.7660    0.4550 h1        1 6MT      0.029700
@<TRIPOS>BOND
     1    1    2 1   
     2    2    3 1   
     3    2    4 1   
     4    2    5 1   
     5    5    6 1   
     6    6    7 1   
     7    6   24 1   
     8    6   25 1   
     9    7    8 1   
    10    7    9 1   
    11    7   26 1   
    12    8   12 1   
    13    9   10 1   
    14    9   11 1   
    15    9   27 1   
    16   10   28 1   
    17   11   12 1   
    18   11   29 1   
    19   11   30 1   
    20   12   13 1   
    21   12   31 1   
    22   13   14 2   
    23   13   21 1   
    24   14   15 2   
    25   15   16 1   
    26   16   21 3   
    27   17   18 3   
    28   17   22 1   
    29   19   20 3   
    30   19   33 1   
    31   22   23 1   
    32   22   34 1   
    33   23   35 1   
    34   23   36 1   
    35   23   37 1   
@<TRIPOS>SUBSTRUCTURE
     1 6MT         1 TEMP              0 ****  ****    0 ROOT
