@<TRIPOS>MOLECULE
6MU
   15    15     1     0     0
SMALL
bcc


@<TRIPOS>ATOM
      1 O6         -0.0170    0.5460    0.2040 oh        1 6MU     -0.604300
      2 C6          1.3180    0.2690    0.0770 ca        1 6MU      0.682600
      3 C5          2.0750    0.2280    1.2740 ca        1 6MU     -0.420600
      4 N1          1.8440    0.0500   -1.1610 nb        1 6MU     -0.773000
      5 C2          3.1910   -0.2170   -1.1480 ca        1 6MU      0.887300
      6 O2          3.7210   -0.4370   -2.3990 oh        1 6MU     -0.581300
      7 N3          4.0280   -0.2840   -0.0600 nb        1 6MU     -0.791000
      8 C4          3.4480   -0.0580    1.1470 ca        1 6MU      0.503600
      9 CI          4.2950   -0.1140    2.3770 c3        1 6MU     -0.157400
     10 H61        -0.4380    0.5500   -0.6730 ho        1 6MU      0.449000
     11 H51         1.5980    0.4110    2.2420 ha        1 6MU      0.171000
     12 H21         4.6730   -0.6180   -2.3000 ho        1 6MU      0.448000
     13 HAI3        3.6750    0.0970    3.2820 hc        1 6MU      0.062367
     14 HAI2        4.7570   -1.1270    2.4840 hc        1 6MU      0.062367
     15 HAI1        5.1170    0.6430    2.3170 hc        1 6MU      0.062367
@<TRIPOS>BOND
     1    1    2 1   
     2    1   10 1   
     3    2    3 ar  
     4    2    4 ar  
     5    3    8 ar  
     6    3   11 1   
     7    4    5 ar  
     8    5    6 1   
     9    5    7 ar  
    10    6   12 1   
    11    7    8 ar  
    12    8    9 1   
    13    9   13 1   
    14    9   14 1   
    15    9   15 1   
@<TRIPOS>SUBSTRUCTURE
     1 6MU         1 TEMP              0 ****  ****    0 ROOT
