@<TRIPOS>MOLECULE
6MU
   15    15     1     0     0
SMALL
bcc


@<TRIPOS>ATOM
      1 O6         -0.0220    0.5370    0.2460 oh        1 6MU     -0.604300
      2 C6          1.3130    0.2730    0.0980 ca        1 6MU      0.682600
      3 C5          2.0790    0.1970    1.2880 ca        1 6MU     -0.420600
      4 N1          1.8300    0.1000   -1.1500 nb        1 6MU     -0.773000
      5 C2          3.1790   -0.1590   -1.1560 ca        1 6MU      0.887300
      6 O2          3.7000   -0.3340   -2.4180 oh        1 6MU     -0.581300
      7 N3          4.0250   -0.2570   -0.0780 nb        1 6MU     -0.791000
      8 C4          3.4530   -0.0750    1.1410 ca        1 6MU      0.503600
      9 CI          4.3110   -0.1670    2.3610 c3        1 6MU     -0.157400
     10 H61        -0.4510    0.5680   -0.6280 ho        1 6MU      0.449000
     11 H51         1.6090    0.3450    2.2650 ha        1 6MU      0.171000
     12 H21         4.6540   -0.5120   -2.3330 ho        1 6MU      0.448000
     13 HAI3        3.6970    0.0110    3.2770 hc        1 6MU      0.062033
     14 HAI2        4.7780   -1.1810    2.4310 hc        1 6MU      0.062033
     15 HAI1        5.1280    0.5950    2.3200 hc        1 6MU      0.062033
@<TRIPOS>BOND
     1    1    2 1   
     2    1   10 1   
     3    2    3 ar  
     4    2    4 ar  
     5    3    8 ar  
     6    3   11 1   
     7    4    5 ar  
     8    5    6 1   
     9    5    7 ar  
    10    6   12 1   
    11    7    8 ar  
    12    8    9 1   
    13    9   13 1   
    14    9   14 1   
    15    9   15 1   
@<TRIPOS>SUBSTRUCTURE
     1 6MU         1 TEMP              0 ****  ****    0 ROOT
