@<TRIPOS>MOLECULE
6MZ
   38    33     1     0     0
SMALL
bcc


@<TRIPOS>ATOM
      1 C2         -3.7510   -0.2290   -1.0600 c1        1 6MZ     -0.023000
      2 C4         -1.7640   -0.4780    0.2010 c1        1 6MZ      0.043000
      3 C5         -2.5000   -0.6400    1.3270 c1        1 6MZ     -0.212000
      4 O1P         5.3240    3.1950   -2.5080 o         1 6MZ     -0.929167
      5 O2P         4.3050    4.7560   -0.9050 o         1 6MZ     -0.929167
      6 N9         -0.4500   -0.5820    0.5390 n1        1 6MZ     -0.167000
      7 N3         -2.3870   -0.2710   -0.9970 n1        1 6MZ     -0.179000
      8 N1         -4.4960   -0.3930    0.0800 n1        1 6MZ     -0.272000
      9 C6         -3.8830   -0.5970    1.2620 c1        1 6MZ      0.180000
     10 N6         -4.6700   -0.6500    2.4740 n3        1 6MZ     -0.284000
     11 C9         -5.8480   -1.4530    2.5250 c3        1 6MZ     -0.081000
     12 N7         -1.6400   -0.8450    2.3650 n1        1 6MZ     -0.167000
     13 C8         -0.3770   -0.8090    1.8760 c1        1 6MZ      0.002000
     14 O5'         4.3480    2.2830   -0.3540 os        1 6MZ     -0.715000
     15 C5'         3.0840    1.9040   -0.8680 c3        1 6MZ      0.078000
     16 C4'         2.7290    0.5280   -0.3640 c3        1 6MZ     -0.062000
     17 O4'         1.6970    0.5880    0.4200 os        1 6MZ     -0.289000
     18 C1'         0.8850   -0.7600    0.1850 c2        1 6MZ      0.124000
     19 C2'         0.9820   -1.0380   -1.1310 c3        1 6MZ     -0.009000
     20 O2'         1.0290   -2.4940   -1.3420 oh        1 6MZ     -0.343000
     21 C3'         2.2830   -0.4020   -1.5690 c3        1 6MZ      0.017000
     22 O3'         3.2170   -1.3520   -1.7980 oh        1 6MZ     -0.410000
     23 P           5.1190    3.4980   -1.0470 p5        1 6MZ      1.567500
     24 O3P         6.4610    3.6890   -0.3800 o         1 6MZ     -0.929167
     25 H2         -4.1960   -0.1600   -1.9280 ha        1 6MZ      0.166000
     26 H8          0.4440   -0.9200    2.3960 DU        1 6MZ      0.255000
     27 H1'         1.2760   -1.4800    0.7080 h4        1 6MZ      0.133000
     28 H9C1       -6.6210   -0.8860    2.7170 h1        1 6MZ      0.069667
     29 H9C2       -5.9750   -1.8940    1.6700 h1        1 6MZ      0.069667
     30 H5'1        2.4060    2.5450   -0.5720 h1        1 6MZ      0.037000
     31 H5'2        3.1200    1.8950   -1.8430 h1        1 6MZ      0.037000
     32 H4'         3.4910    0.1300    0.1070 h1        1 6MZ      0.120000
     33 H3'         2.1420    0.1360   -2.3770 h1        1 6MZ      0.156000
     34 H2'         0.2310   -0.6470   -1.6180 h1        1 6MZ      0.107000
     35 HA          0.5170   -2.7110   -2.0500 ho        1 6MZ      0.230000
     36 HB          3.6440   -1.1710   -2.5620 ho        1 6MZ      0.314000
     37 H6         -4.4240   -0.1630    3.1930 hn        1 6MZ      0.226000
     38 H9         -5.7540   -2.1240    3.2270 h1        1 6MZ      0.069667
@<TRIPOS>BOND
     1    1    8 1   
     2    1   25 1   
     3    2    7 1   
     4    3    9 1   
     5    4   23 1   
     6    5   23 1   
     7    6   13 1   
     8    9   10 1   
     9   10   11 1   
    10   10   37 1   
    11   11   28 1   
    12   11   29 1   
    13   11   38 1   
    14   12   13 1   
    15   14   15 1   
    16   14   23 1   
    17   15   16 1   
    18   15   30 1   
    19   15   31 1   
    20   16   17 1   
    21   16   21 1   
    22   16   32 1   
    23   17   18 1   
    24   18   19 1   
    25   18   27 1   
    26   19   20 1   
    27   19   21 1   
    28   19   34 1   
    29   20   35 1   
    30   21   22 1   
    31   21   33 1   
    32   22   36 1   
    33   23   24 1   
@<TRIPOS>SUBSTRUCTURE
     1 6MZ         1 TEMP              0 ****  ****    0 ROOT
