@<TRIPOS>MOLECULE
6MZ
   38    40     1     0     0
SMALL
bcc


@<TRIPOS>ATOM
      1 C2          4.8580   -1.1380   -0.0810 ca        1 6MZ      0.628900
      2 C4          2.6840   -0.5060   -0.1360 ca        1 6MZ      0.419800
      3 C5          3.0930    0.8850    0.0830 ca        1 6MZ     -0.191200
      4 O1P        -4.3030    0.1090   -0.6530 o         1 6MZ     -0.921167
      5 O2P        -4.3300    1.6270    1.3760 o         1 6MZ     -0.921167
      6 N9          1.2890   -0.4670   -0.2390 na        1 6MZ     -0.270000
      7 N3          3.5770   -1.5390   -0.2220 nb        1 6MZ     -0.703000
      8 N1          5.3780    0.1060    0.1290 nb        1 6MZ     -0.796000
      9 C6          4.4900    1.1430    0.2350 ca        1 6MZ      0.688200
     10 N6          4.9120    2.4420    0.5550 nh        1 6MZ     -0.837900
     11 C9          6.2590    2.8410    0.2870 c3        1 6MZ      0.195100
     12 N7          1.9650    1.7160    0.0770 nc        1 6MZ     -0.604100
     13 C8          0.9160    0.8980   -0.1260 cd        1 6MZ      0.481700
     14 O5'        -2.1870    1.0930    0.1510 os        1 6MZ     -0.554200
     15 C5'        -1.9940   -0.0580    0.8550 c3        1 6MZ      0.223400
     16 C4'        -1.8360   -1.2890   -0.0700 c3        1 6MZ      0.012100
     17 O4'        -0.8110   -1.1270   -1.0770 os        1 6MZ     -0.385600
     18 C1'         0.4350   -1.5910   -0.5890 c3        1 6MZ      0.216800
     19 C2'         0.1240   -2.5790    0.5920 c3        1 6MZ      0.097100
     20 O2'         0.6270   -3.8610    0.2950 oh        1 6MZ     -0.597800
     21 C3'        -1.4210   -2.5280    0.7320 c3        1 6MZ      0.085100
     22 O3'        -1.9660   -3.7410    0.2320 oh        1 6MZ     -0.636800
     23 P          -3.9170    1.4420   -0.0550 p5        1 6MZ      1.315900
     24 O3P        -3.9200    2.6390   -0.9520 o         1 6MZ     -0.921167
     25 H2          5.6160   -1.9450   -0.1510 h5        1 6MZ      0.025100
     26 H8         -0.1640    1.2080   -0.2080 h5        1 6MZ      0.185800
     27 H1'         0.9370   -2.1440   -1.4380 h2        1 6MZ      0.075700
     28 H9C1        6.9710    2.1760    0.8430 h1        1 6MZ      0.027367
     29 H9C2        6.5220    2.7990   -0.8060 h1        1 6MZ      0.027367
     30 H5'1       -1.0530    0.0210    1.4810 h1        1 6MZ     -0.005300
     31 H5'2       -2.8710   -0.2700    1.5330 h1        1 6MZ     -0.005300
     32 H4'        -2.8030   -1.3670   -0.6660 h1        1 6MZ      0.188700
     33 H3'        -1.7260   -2.4570    1.8080 h1        1 6MZ      0.077700
     34 H2'         0.6280   -2.2760    1.5460 h1        1 6MZ      0.086700
     35 HA         -0.0030   -4.2890   -0.3020 ho        1 6MZ      0.410000
     36 HB         -2.5570   -3.5090   -0.4960 ho        1 6MZ      0.422000
     37 H6          4.2190    3.1350    0.3520 hn        1 6MZ      0.429800
     38 H9          6.3930    3.8960    0.6450 h1        1 6MZ      0.027367
@<TRIPOS>BOND
     1    1    7 ar  
     2    1    8 ar  
     3    1   25 1   
     4    2    3 ar  
     5    2    6 1   
     6    2    7 ar  
     7    3    9 ar  
     8    3   12 1   
     9    4   23 1   
    10    5   23 1   
    11    6   13 1   
    12    6   18 1   
    13    8    9 ar  
    14    9   10 1   
    15   10   11 1   
    16   10   37 1   
    17   11   28 1   
    18   11   29 1   
    19   11   38 1   
    20   12   13 2   
    21   13   26 1   
    22   14   15 1   
    23   14   23 1   
    24   15   16 1   
    25   15   30 1   
    26   15   31 1   
    27   16   17 1   
    28   16   21 1   
    29   16   32 1   
    30   17   18 1   
    31   18   19 1   
    32   18   27 1   
    33   19   20 1   
    34   19   21 1   
    35   19   34 1   
    36   20   35 1   
    37   21   22 1   
    38   21   33 1   
    39   22   36 1   
    40   23   24 1   
@<TRIPOS>SUBSTRUCTURE
     1 6MZ         1 TEMP              0 ****  ****    0 ROOT
