@<TRIPOS>MOLECULE
6N0
   42    40     1     0     0
SMALL
bcc


@<TRIPOS>ATOM
      1 C1         -0.7760   -1.1740    0.3350 c1        1 6N0      0.202000
      2 C2          3.2800    0.2200    0.2000 c1        1 6N0     -0.161000
      3 C6          0.0460   -0.4350    1.0420 c2        1 6N0     -0.477000
      4 C10        -1.2870   -0.1750    6.1270 c2        1 6N0     -0.486000
      5 C3          2.7410   -0.0420    1.2360 c1        1 6N0     -0.167000
      6 C11        -0.0920    0.3620    6.3180 c1        1 6N0      0.247000
      7 C8         -1.4600   -0.2550    3.6730 c2        1 6N0     -0.312000
      8 C5          0.6400   -0.7530    2.3640 c3        1 6N0      0.025000
      9 C7         -0.0770    0.0120    3.4640 c2        1 6N0      0.149000
     10 C9         -2.0680   -0.2890    4.9110 c2        1 6N0      0.244000
     11 C4          2.1290   -0.3810    2.4740 c3        1 6N0     -0.617000
     12 C12         0.7260    0.8730    4.1360 c2        1 6N0     -0.972000
     13 C21        -7.1280   -2.3510    8.7340 c2        1 6N0     -0.262000
     14 C23        -8.5840   -0.5090    5.6360 c1        1 6N0     -0.224500
     15 C20        -6.1680   -1.5780    9.2320 c2        1 6N0     -0.171000
     16 C24        -8.7030    0.6520    5.9000 c1        1 6N0     -0.224500
     17 C22        -8.6030   -2.0840    8.9290 c3        1 6N0      0.247000
     18 N19        -5.5840   -1.0460    5.9120 n         1 6N0     -0.417000
     19 N16        -3.4570   -0.4290    4.9660 n         1 6N0     -0.328000
     20 O18        -3.6680   -1.3240    7.1230 o         1 6N0     -0.393000
     21 F26        -8.9060   -1.3890   10.0800 f         1 6N0     -0.171000
     22 S13         2.3250    0.9070    3.7050 s6        1 6N0      2.835000
     23 H1          0.3620    0.5400    0.6050 ha        1 6N0      0.211000
     24 H2          3.7670    0.4730   -0.7080 ha        1 6N0      0.230000
     25 H6          0.5240   -1.8560    2.5690 hc        1 6N0      0.126000
     26 H3          2.6700   -1.2920    2.8770 h1        1 6N0      0.173000
     27 H10        -1.7240   -0.6160    7.0620 ha        1 6N0      0.243000
     28 H11         0.3380    1.6540    4.8150 h4        1 6N0      0.213000
     29 H8         -2.0330   -0.4800    2.7550 ha        1 6N0      0.155000
     30 H16        -3.9250   -0.3610    4.0860 hn        1 6N0      0.238000
     31 H211       -5.1000   -1.7660    9.0300 ha        1 6N0      0.139500
     32 H212       -6.9200   -3.2440    8.1240 ha        1 6N0      0.149000
     33 H201       -6.0720   -0.5110    5.2340 hn        1 6N0      0.232000
     34 H202       -6.0800   -1.2650    6.7500 hn        1 6N0      0.232000
     35 H231       -8.9900   -1.5090    8.0270 h2        1 6N0      0.103000
     36 H232       -8.5010   -1.5390    5.3910 ha        1 6N0      0.226000
     37 H241       -6.3820   -0.7100    9.8720 ha        1 6N0      0.139500
     38 H242       -8.8130    1.6810    6.1390 ha        1 6N0      0.226000
     39 O14         3.1790    0.3980    4.6820 o         1 6N0     -0.916000
     40 C17        -4.2010   -0.9370    6.0570 c2        1 6N0      0.400000
     41 O15         2.6710    2.1340    3.1440 o         1 6N0     -0.916000
     42 F25        -9.3350   -3.2440    9.0780 f         1 6N0     -0.171000
@<TRIPOS>BOND
     1    1    3 1   
     2    2    5 1   
     3    2   24 1   
     4    3    8 1   
     5    3   23 1   
     6    4    6 1   
     7    4   10 1   
     8    4   27 1   
     9    5   11 1   
    10    7    9 1   
    11    7   10 1   
    12    7   29 1   
    13    8    9 1   
    14    8   11 1   
    15    8   25 1   
    16    9   12 1   
    17   10   19 1   
    18   11   22 1   
    19   11   26 1   
    20   12   22 1   
    21   12   28 1   
    22   13   15 1   
    23   13   17 1   
    24   13   32 1   
    25   14   16 1   
    26   14   36 1   
    27   15   31 1   
    28   15   37 1   
    29   16   38 1   
    30   17   21 1   
    31   17   35 1   
    32   17   42 1   
    33   18   33 1   
    34   18   34 1   
    35   18   40 1   
    36   19   30 1   
    37   19   40 1   
    38   20   40 1   
    39   22   39 1   
    40   22   41 1   
@<TRIPOS>SUBSTRUCTURE
     1 6N0         1 TEMP              0 ****  ****    0 ROOT
