@<TRIPOS>MOLECULE
6N0
   42    41     1     0     0
SMALL
bcc


@<TRIPOS>ATOM
      1 C1         -1.0850   -0.0780    0.3300 c1        1 6N0      0.177000
      2 C2          3.1800    0.9360    0.2330 c1        1 6N0     -0.173000
      3 C6         -0.0780    0.2870    1.0860 c2        1 6N0     -0.465000
      4 C10        -1.4860   -0.7750    6.1810 c2        1 6N0     -0.402000
      5 C3          2.6650    0.4120    1.1770 c1        1 6N0     -0.158000
      6 C11        -2.2680   -0.9340    7.2930 c1        1 6N0     -0.018000
      7 C8         -1.4280   -0.4530    3.6850 c2        1 6N0     -0.334000
      8 C5          0.5700   -0.5020    2.1640 c3        1 6N0      0.019000
      9 C7         -0.0460   -0.1660    3.5180 c2        1 6N0      0.172000
     10 C9         -2.0830   -0.6350    4.8820 c2        1 6N0      0.203000
     11 C4          2.0800   -0.2400    2.2970 c3        1 6N0     -0.616000
     12 C12         0.8390    0.4040    4.3690 c2        1 6N0     -1.005000
     13 C21        -6.9030   -1.9070    9.0420 c2        1 6N0     -0.272000
     14 C23        -8.6470   -1.4690    5.3770 c1        1 6N0     -0.226000
     15 C20        -6.0630   -0.9270    9.3590 c2        1 6N0     -0.167000
     16 C24        -8.5930   -0.2910    5.1730 c1        1 6N0     -0.226000
     17 C22        -8.4080   -1.7580    9.0490 c3        1 6N0      0.249000
     18 N19        -5.5930   -1.0270    6.0160 n8        1 6N0     -0.354000
     19 N16        -3.5090   -0.7440    4.8310 n7        1 6N0     -0.266000
     20 O18        -3.5960   -0.9920    7.2080 os        1 6N0     -0.085000
     21 F26        -8.8760   -0.7700    9.8870 f         1 6N0     -0.167500
     22 S13         2.3730    0.6280    3.8410 s6        1 6N0      2.844000
     23 H1          0.3560    1.2990    0.9140 ha        1 6N0      0.214000
     24 H2          3.6480    1.4180   -0.5890 ha        1 6N0      0.228000
     25 H6          0.4080   -1.6000    1.9680 hc        1 6N0      0.120000
     26 H3          2.5840   -1.2490    2.4010 h1        1 6N0      0.169000
     27 H10        -0.3920   -0.7830    6.2580 ha        1 6N0      0.188000
     28 H11         0.5360    0.7450    5.3690 h4        1 6N0      0.201000
     29 H8         -1.9930   -0.5120    2.7350 ha        1 6N0      0.134000
     30 H16        -3.9510   -0.6870    3.9380 hn        1 6N0      0.252000
     31 H211       -4.9690   -1.0530    9.3100 ha        1 6N0      0.143000
     32 H212       -6.5650   -2.9140    8.7530 ha        1 6N0      0.150000
     33 H201       -6.1720   -0.9690    5.2100 hn        1 6N0      0.264000
     34 H202       -6.0190   -1.1420    6.9140 hn        1 6N0      0.264000
     35 H231       -8.7200   -2.5160    5.5430 ha        1 6N0      0.229500
     36 H232       -8.7590   -1.5480    7.9870 h2        1 6N0      0.096000
     37 H241       -8.5680    0.7570    4.9960 ha        1 6N0      0.229500
     38 H242       -6.4090    0.0620    9.6960 ha        1 6N0      0.143000
     39 O14         3.3120   -0.1180    4.5580 o         1 6N0     -0.927500
     40 C17        -4.2430   -0.9130    5.9740 c2        1 6N0      0.269000
     41 O15         2.6800    1.9720    3.6340 o         1 6N0     -0.927500
     42 F25        -9.0480   -2.8850    9.5210 f         1 6N0     -0.167500
@<TRIPOS>BOND
     1    1    3 1   
     2    2    5 1   
     3    2   24 1   
     4    3    8 1   
     5    3   23 1   
     6    4    6 1   
     7    4   10 1   
     8    4   27 1   
     9    5   11 1   
    10    6   20 1   
    11    7    9 1   
    12    7   10 1   
    13    7   29 1   
    14    8    9 1   
    15    8   11 1   
    16    8   25 1   
    17    9   12 1   
    18   10   19 1   
    19   11   22 1   
    20   11   26 1   
    21   12   22 1   
    22   12   28 1   
    23   13   15 1   
    24   13   17 1   
    25   13   32 1   
    26   14   16 1   
    27   14   35 1   
    28   15   31 1   
    29   15   38 1   
    30   16   37 1   
    31   17   21 1   
    32   17   36 1   
    33   17   42 1   
    34   18   33 1   
    35   18   34 1   
    36   18   40 1   
    37   19   30 1   
    38   19   40 1   
    39   20   40 1   
    40   22   39 1   
    41   22   41 1   
@<TRIPOS>SUBSTRUCTURE
     1 6N0         1 TEMP              0 ****  ****    0 ROOT
