@<TRIPOS>MOLECULE
6N4
   23    24     1     0     0
SMALL
bcc


@<TRIPOS>ATOM
      1 C1          0.1310    0.1000   -0.0780 ca        1 6N4     -0.151000
      2 C2          1.5220   -0.0840    0.0250 ca        1 6N4     -0.115000
      3 C3          2.1560   -0.1910    1.2540 ca        1 6N4     -0.134000
      4 C4          1.3550   -0.1090    2.3990 ca        1 6N4     -0.069200
      5 C5         -0.0830    0.0810    2.3060 ca        1 6N4      0.077400
      6 C6         -0.6820    0.1840    1.0420 ca        1 6N4     -0.073000
      7 N7         -0.6310    0.1270    3.6010 nc        1 6N4     -0.583100
      8 C8          0.4160   -0.0270    4.4450 cd        1 6N4      0.405700
      9 N9          1.6450   -0.1710    3.7650 na        1 6N4     -0.268300
     10 S10         0.3600   -0.0530    6.1430 ss        1 6N4     -0.149300
     11 C11        -1.3670    0.1030    6.5130 c3        1 6N4     -0.020300
     12 C12        -1.4490    0.2240    8.0220 c3        1 6N4      0.141400
     13 O13        -2.3610   -0.7670    8.4690 oh        1 6N4     -0.594800
     14 H1         -0.3200    0.1790   -1.0790 ha        1 6N4      0.132000
     15 H2          2.1200   -0.1440   -0.8960 ha        1 6N4      0.132000
     16 H6         -1.7680    0.3280    0.9530 ha        1 6N4      0.147000
     17 H3          3.2420   -0.3340    1.3270 ha        1 6N4      0.135000
     18 H9          2.5280   -0.3160    4.1750 hn        1 6N4      0.311700
     19 H111       -1.9350   -0.7930    6.1570 h1        1 6N4      0.101200
     20 H112       -1.8040    1.0000    6.0140 h1        1 6N4      0.101200
     21 H121       -1.8200    1.2430    8.3180 h1        1 6N4      0.035200
     22 H122       -0.4420    0.0570    8.4990 h1        1 6N4      0.035200
     23 H13        -2.3990   -0.6950    9.4300 ho        1 6N4      0.405000
@<TRIPOS>BOND
     1    1    2 ar  
     2    1    6 ar  
     3    1   14 1   
     4    2    3 ar  
     5    2   15 1   
     6    3    4 ar  
     7    3   17 1   
     8    4    5 ar  
     9    4    9 1   
    10    5    6 ar  
    11    5    7 1   
    12    6   16 1   
    13    7    8 2   
    14    8    9 1   
    15    8   10 1   
    16    9   18 1   
    17   10   11 1   
    18   11   12 1   
    19   11   19 1   
    20   11   20 1   
    21   12   13 1   
    22   12   21 1   
    23   12   22 1   
    24   13   23 1   
@<TRIPOS>SUBSTRUCTURE
     1 6N4         1 TEMP              0 ****  ****    0 ROOT
