@<TRIPOS>MOLECULE
6N6
   16    17     1     0     0
SMALL
bcc


@<TRIPOS>ATOM
      1 C1         -0.0010   -0.1580    0.0220 cc        1 6N6     -0.161000
      2 C2          1.4240   -0.2130   -0.0490 cc        1 6N6     -0.102000
      3 C3          2.0090    0.0840    1.1720 cd        1 6N6     -0.165600
      4 S4          0.8350    0.4270    2.3370 ss        1 6N6      0.020200
      5 C5         -0.4350    0.1790    1.2860 cd        1 6N6     -0.154100
      6 C6          3.4130    0.1170    1.4400 cd        1 6N6      0.431900
      7 N7          4.3780    0.3250    0.5080 nc        1 6N6     -0.285000
      8 N8          5.5860    0.2740    0.9730 nc        1 6N6     -0.376000
      9 C9          5.6490    0.0410    2.3270 cd        1 6N6      0.576300
     10 S10         4.0590   -0.1400    3.0220 ss        1 6N6     -0.216800
     11 N11         6.7930    0.0670    3.1090 nh        1 6N6     -0.886500
     12 H1         -0.6490   -0.3610   -0.8330 ha        1 6N6      0.158000
     13 H2          1.9780   -0.4580   -0.9600 ha        1 6N6      0.172000
     14 H5         -1.4760    0.2820    1.5900 h4        1 6N6      0.174000
     15 HN11        6.8640   -0.7070    3.7350 hn        1 6N6      0.407300
     16 HN1A        7.6410    0.2370    2.6050 hn        1 6N6      0.407300
@<TRIPOS>BOND
     1    1    2 1   
     2    1    5 2   
     3    1   12 1   
     4    2    3 2   
     5    2   13 1   
     6    3    4 1   
     7    3    6 1   
     8    4    5 1   
     9    5   14 1   
    10    6    7 2   
    11    6   10 1   
    12    7    8 1   
    13    8    9 2   
    14    9   10 1   
    15    9   11 1   
    16   11   15 1   
    17   11   16 1   
@<TRIPOS>SUBSTRUCTURE
     1 6N6         1 TEMP              0 ****  ****    0 ROOT
