@<TRIPOS>MOLECULE
6N6
   16    17     1     0     0
SMALL
bcc


@<TRIPOS>ATOM
      1 C1         -0.0100    0.0060    0.0150 cc        1 6N6     -0.161000
      2 C2          1.4150   -0.0040   -0.0760 cc        1 6N6     -0.101000
      3 C3          2.0090   -0.0010    1.1780 cd        1 6N6     -0.163600
      4 S4          0.8400    0.0170    2.3970 ss        1 6N6      0.011200
      5 C5         -0.4370    0.0170    1.3250 cd        1 6N6     -0.151100
      6 C6          3.4160   -0.0080    1.4350 cd        1 6N6      0.435900
      7 N7          4.3790    0.1050    0.4850 nc        1 6N6     -0.289000
      8 N8          5.5880    0.0960    0.9480 nc        1 6N6     -0.374000
      9 C9          5.6580   -0.0480    2.3120 cd        1 6N6      0.576300
     10 S10         4.0700   -0.1700    3.0270 ss        1 6N6     -0.219800
     11 N11         6.8130   -0.2130    3.0610 nv        1 6N6     -0.885500
     12 H1         -0.6620    0.0040   -0.8600 ha        1 6N6      0.159000
     13 H2          1.9620   -0.0140   -1.0230 ha        1 6N6      0.174000
     14 H5         -1.4760    0.0260    1.6520 h4        1 6N6      0.174000
     15 HN11        6.8430    0.3620    3.8760 hn        1 6N6      0.407300
     16 HN1A        7.6620   -0.1810    2.5320 hn        1 6N6      0.407300
@<TRIPOS>BOND
     1    1    2 1   
     2    1    5 2   
     3    1   12 1   
     4    2    3 2   
     5    2   13 1   
     6    3    4 1   
     7    3    6 1   
     8    4    5 1   
     9    5   14 1   
    10    6    7 2   
    11    6   10 1   
    12    7    8 1   
    13    8    9 2   
    14    9   10 1   
    15    9   11 1   
    16   11   15 1   
    17   11   16 1   
@<TRIPOS>SUBSTRUCTURE
     1 6N6         1 TEMP              0 ****  ****    0 ROOT
