@<TRIPOS>MOLECULE
6N8
   44    46     1     0     0
SMALL
bcc


@<TRIPOS>ATOM
      1 C1          0.0830    0.2140   -0.0560 ca        1 6N8     -0.112000
      2 C21         3.9300   -4.0080    4.2600 ca        1 6N8     -0.112000
      3 C2          1.3740   -0.3130   -0.0670 ca        1 6N8     -0.120000
      4 C6         -0.4840    0.6390    1.1460 ca        1 6N8     -0.120000
      5 C20         2.6660   -3.6720    4.7450 ca        1 6N8     -0.120000
      6 C22         4.6760   -3.0620    3.5570 ca        1 6N8     -0.120000
      7 C3          2.1000   -0.4110    1.1200 ca        1 6N8     -0.127000
      8 C5          0.2400    0.5430    2.3330 ca        1 6N8     -0.127000
      9 C19         2.1500   -2.3940    4.5300 ca        1 6N8     -0.127000
     10 C23         4.1610   -1.7850    3.3390 ca        1 6N8     -0.127000
     11 C4          1.5390    0.0190    2.3280 ca        1 6N8     -0.108300
     12 C18         2.8950   -1.4400    3.8250 ca        1 6N8     -0.108300
     13 C11         3.0210    4.8400    3.9660 c         1 6N8      0.550900
     14 C15         4.2820    8.1770    3.5680 cc        1 6N8     -0.114000
     15 C16         5.4340    7.4000    3.1300 cc        1 6N8     -0.114000
     16 C14         3.2820    7.2930    3.9200 cd        1 6N8     -0.138300
     17 C17         5.1080    6.0610    3.2260 cd        1 6N8     -0.138300
     18 C8          3.3900    1.0010    3.6660 c3        1 6N8     -0.106400
     19 C9          2.7260    2.3520    3.9010 c3        1 6N8      0.106800
     20 C7          2.3040   -0.0800    3.6140 c3        1 6N8      0.046900
     21 N13         3.7730    5.9640    3.7160 n         1 6N8     -0.101200
     22 N10         3.6790    3.4880    3.6880 ny        1 6N8     -0.657800
     23 O12         1.8670    4.8090    4.3960 o         1 6N8     -0.452100
     24 H1         -0.4930    0.2820   -0.9920 ha        1 6N8      0.147500
     25 H2          1.8180   -0.6650   -1.0110 ha        1 6N8      0.145000
     26 H6         -1.5090    1.0400    1.1600 ha        1 6N8      0.145000
     27 H21         4.3360   -5.0170    4.4290 ha        1 6N8      0.147500
     28 H20         2.0710   -4.4160    5.2970 ha        1 6N8      0.145000
     29 H22         5.6710   -3.3250    3.1690 ha        1 6N8      0.145000
     30 H3          3.1080   -0.8540    1.1130 ha        1 6N8      0.131250
     31 H5         -0.2250    0.8590    3.2800 ha        1 6N8      0.131250
     32 H19         1.1500   -2.1400    4.9120 ha        1 6N8      0.131250
     33 H23         4.7600   -1.0550    2.7750 ha        1 6N8      0.131250
     34 H7          1.5880    0.1140    4.4690 hc        1 6N8      0.066700
     35 H10         4.0150    3.4650    2.7180 hn        1 6N8      0.460300
     36 H14         2.2660    7.4460    4.2970 h4        1 6N8      0.190500
     37 H17         5.7070    5.1810    2.9920 h4        1 6N8      0.190500
     38 H81C        4.1070    0.7670    4.4960 hc        1 6N8      0.070200
     39 H82C        3.9570    0.9940    2.6970 hc        1 6N8      0.070200
     40 H91C        2.3340    2.4250    4.9570 hx        1 6N8      0.124200
     41 H92C        1.8560    2.4890    3.1920 hx        1 6N8      0.124200
     42 H15         4.2340    9.2650    3.6060 ha        1 6N8      0.194500
     43 H102        4.4860    3.3750    4.3120 hn        1 6N8      0.460300
     44 H16         6.3820    7.8190    2.7890 ha        1 6N8      0.194500
@<TRIPOS>BOND
     1    1    3 ar  
     2    1    4 ar  
     3    1   24 1   
     4    2    5 ar  
     5    2    6 ar  
     6    2   27 1   
     7    3    7 ar  
     8    3   25 1   
     9    4    8 ar  
    10    4   26 1   
    11    5    9 ar  
    12    5   28 1   
    13    6   10 ar  
    14    6   29 1   
    15    7   11 ar  
    16    7   30 1   
    17    8   11 ar  
    18    8   31 1   
    19    9   12 ar  
    20    9   32 1   
    21   10   12 ar  
    22   10   33 1   
    23   11   20 1   
    24   12   20 1   
    25   13   21 1   
    26   13   22 1   
    27   13   23 2   
    28   14   15 1   
    29   14   16 2   
    30   14   42 1   
    31   15   17 2   
    32   15   44 1   
    33   16   21 1   
    34   16   36 1   
    35   17   21 1   
    36   17   37 1   
    37   18   19 1   
    38   18   20 1   
    39   18   38 1   
    40   18   39 1   
    41   19   22 1   
    42   19   40 1   
    43   19   41 1   
    44   20   34 1   
    45   22   35 1   
    46   22   43 1   
@<TRIPOS>SUBSTRUCTURE
     1 6N8         1 TEMP              0 ****  ****    0 ROOT
