@<TRIPOS>MOLECULE
6N8
   44    46     1     0     0
SMALL
bcc


@<TRIPOS>ATOM
      1 C1          0.0710    0.2200   -0.0490 ca        1 6N8     -0.112000
      2 C21         3.9270   -4.0100    4.2500 ca        1 6N8     -0.112000
      3 C2          1.3620   -0.3080   -0.0640 ca        1 6N8     -0.120000
      4 C6         -0.4910    0.6440    1.1550 ca        1 6N8     -0.120000
      5 C20         2.6660   -3.6730    4.7390 ca        1 6N8     -0.120000
      6 C22         4.6720   -3.0650    3.5460 ca        1 6N8     -0.120000
      7 C3          2.0910   -0.4080    1.1200 ca        1 6N8     -0.127000
      8 C5          0.2370    0.5460    2.3400 ca        1 6N8     -0.127000
      9 C19         2.1510   -2.3950    4.5280 ca        1 6N8     -0.127000
     10 C23         4.1580   -1.7860    3.3310 ca        1 6N8     -0.127000
     11 C4          1.5350    0.0210    2.3300 ca        1 6N8     -0.108300
     12 C18         2.8940   -1.4410    3.8220 ca        1 6N8     -0.108300
     13 C11         3.0260    4.8390    3.9680 c         1 6N8      0.550900
     14 C15         4.2910    8.1750    3.5730 cc        1 6N8     -0.114000
     15 C16         5.4420    7.3970    3.1310 cc        1 6N8     -0.114000
     16 C14         3.2910    7.2920    3.9250 cd        1 6N8     -0.138300
     17 C17         5.1140    6.0590    3.2250 cd        1 6N8     -0.138300
     18 C8          3.3910    1.0000    3.6640 c3        1 6N8     -0.106400
     19 C9          2.7300    2.3510    3.9020 c3        1 6N8      0.106800
     20 C7          2.3040   -0.0800    3.6140 c3        1 6N8      0.046900
     21 N13         3.7800    5.9630    3.7190 n         1 6N8     -0.101200
     22 N10         3.6830    3.4870    3.6870 n4        1 6N8     -0.657800
     23 O12         1.8740    4.8090    4.4010 o         1 6N8     -0.452100
     24 H1         -0.5080    0.2900   -0.9830 ha        1 6N8      0.147500
     25 H2          1.8030   -0.6590   -1.0100 ha        1 6N8      0.145000
     26 H6         -1.5160    1.0460    1.1730 ha        1 6N8      0.145000
     27 H21         4.3330   -5.0200    4.4160 ha        1 6N8      0.147500
     28 H20         2.0720   -4.4180    5.2920 ha        1 6N8      0.145000
     29 H22         5.6670   -3.3280    3.1540 ha        1 6N8      0.145000
     30 H3          3.1000   -0.8510    1.1100 ha        1 6N8      0.131250
     31 H5         -0.2250    0.8620    3.2880 ha        1 6N8      0.131250
     32 H19         1.1520   -2.1400    4.9130 ha        1 6N8      0.131250
     33 H23         4.7560   -1.0560    2.7660 ha        1 6N8      0.131250
     34 H7          1.5910    0.1140    4.4720 hc        1 6N8      0.066700
     35 H10         4.0160    3.4640    2.7160 hn        1 6N8      0.460300
     36 H14         2.2760    7.4460    4.3040 h4        1 6N8      0.190500
     37 H17         5.7110    5.1780    2.9890 h4        1 6N8      0.190500
     38 H81C        3.9550    0.9930    2.6930 hc        1 6N8      0.070200
     39 H82C        4.1100    0.7640    4.4910 hc        1 6N8      0.070200
     40 H91C        1.8570    2.4900    3.1950 hx        1 6N8      0.124700
     41 H92C        2.3400    2.4230    4.9590 hx        1 6N8      0.124700
     42 H15         4.2450    9.2630    3.6120 ha        1 6N8      0.194500
     43 H102        4.4910    3.3720    4.3090 hn        1 6N8      0.460300
     44 H16         6.3890    7.8150    2.7890 ha        1 6N8      0.194500
@<TRIPOS>BOND
     1    1    3 ar  
     2    1    4 ar  
     3    1   24 1   
     4    2    5 ar  
     5    2    6 ar  
     6    2   27 1   
     7    3    7 ar  
     8    3   25 1   
     9    4    8 ar  
    10    4   26 1   
    11    5    9 ar  
    12    5   28 1   
    13    6   10 ar  
    14    6   29 1   
    15    7   11 ar  
    16    7   30 1   
    17    8   11 ar  
    18    8   31 1   
    19    9   12 ar  
    20    9   32 1   
    21   10   12 ar  
    22   10   33 1   
    23   11   20 1   
    24   12   20 1   
    25   13   21 1   
    26   13   22 1   
    27   13   23 2   
    28   14   15 1   
    29   14   16 2   
    30   14   42 1   
    31   15   17 2   
    32   15   44 1   
    33   16   21 1   
    34   16   36 1   
    35   17   21 1   
    36   17   37 1   
    37   18   19 1   
    38   18   20 1   
    39   18   38 1   
    40   18   39 1   
    41   19   22 1   
    42   19   40 1   
    43   19   41 1   
    44   20   34 1   
    45   22   35 1   
    46   22   43 1   
@<TRIPOS>SUBSTRUCTURE
     1 6N8         1 TEMP              0 ****  ****    0 ROOT
