@<TRIPOS>MOLECULE
6NA
   19    18     1     0     0
SMALL
bcc


@<TRIPOS>ATOM
      1 CA          1.3920   -1.5010    0.0080 c3        1 6NA     -0.193400
      2 C           2.9050   -1.5010    0.0080 c         1 6NA      0.907600
      3 O           3.5340   -1.5010    1.0990 o         1 6NA     -0.853800
      4 CB          0.8870   -0.0750    0.0130 c3        1 6NA     -0.065400
      5 CG         -0.6250   -0.0750   -0.0130 c3        1 6NA     -0.078400
      6 CD         -1.1300    1.3510    0.0170 c3        1 6NA     -0.081400
      7 C6         -2.6420    1.3520   -0.0250 c3        1 6NA     -0.088100
      8 OXT         3.5340   -1.5020   -1.0820 o         1 6NA     -0.853800
      9 HAC1        1.0660   -1.9640    0.8040 hc        1 6NA      0.018700
     10 HAC2        1.0660   -1.9590   -0.7900 hc        1 6NA      0.018700
     11 HBC1        1.1990    0.3770    0.8200 hc        1 6NA      0.043200
     12 HBC2        1.2270    0.3930   -0.7730 hc        1 6NA      0.043200
     13 HGC1       -0.9640   -0.5570    0.7650 hc        1 6NA      0.025700
     14 HGC2       -0.9360   -0.5130   -0.8280 hc        1 6NA      0.025700
     15 HDC1       -0.7830    1.8350   -0.7570 hc        1 6NA      0.034700
     16 HDC2       -0.8270    1.7860    0.8360 hc        1 6NA      0.034700
     17 H6C1       -2.9680    2.2710   -0.0000 hc        1 6NA      0.020700
     18 H6C2       -2.9450    0.9210   -0.8470 hc        1 6NA      0.020700
     19 H6C3       -2.9890    0.8620    0.7450 hc        1 6NA      0.020700
@<TRIPOS>BOND
     1    1    2 1   
     2    1    4 1   
     3    1    9 1   
     4    1   10 1   
     5    2    3 1   
     6    2    8 1   
     7    4    5 1   
     8    4   11 1   
     9    4   12 1   
    10    5    6 1   
    11    5   13 1   
    12    5   14 1   
    13    6    7 1   
    14    6   15 1   
    15    6   16 1   
    16    7   17 1   
    17    7   18 1   
    18    7   19 1   
@<TRIPOS>SUBSTRUCTURE
     1 6NA         1 TEMP              0 ****  ****    0 ROOT
