@<TRIPOS>MOLECULE
6NA
   19    18     1     0     0
SMALL
bcc


@<TRIPOS>ATOM
      1 CA         -0.8510   -0.6980   -0.0000 c3        1 6NA     -0.193400
      2 C          -2.2080    0.0250    0.0000 c         1 6NA      0.907600
      3 O          -2.2350    1.2900    0.0000 o         1 6NA     -0.854800
      4 CB          0.3130    0.2610   -0.0000 c3        1 6NA     -0.062400
      5 CG          1.6430   -0.4630   -0.0000 c3        1 6NA     -0.079400
      6 CD          2.8050    0.5070   -0.0000 c3        1 6NA     -0.081400
      7 C6          4.1320   -0.2070   -0.0000 c3        1 6NA     -0.088100
      8 OXT        -3.2470   -0.6980    0.0000 o         1 6NA     -0.854800
      9 HAC1       -0.8080   -1.3590   -0.9030 hc        1 6NA      0.018700
     10 HAC2       -0.8080   -1.3590    0.9030 hc        1 6NA      0.018700
     11 HBC1        0.2380    0.9280    0.8990 hc        1 6NA      0.043700
     12 HBC2        0.2380    0.9280   -0.8990 hc        1 6NA      0.043700
     13 HGC1        1.7100   -1.1270   -0.9020 hc        1 6NA      0.024700
     14 HGC2        1.7100   -1.1270    0.9020 hc        1 6NA      0.024700
     15 HDC1        2.7340    1.1710    0.9020 hc        1 6NA      0.035700
     16 HDC2        2.7340    1.1710   -0.9020 hc        1 6NA      0.035700
     17 H6C1        4.2300   -0.8550    0.9040 hc        1 6NA      0.020367
     18 H6C2        4.2300   -0.8550   -0.9040 hc        1 6NA      0.020367
     19 H6C3        4.9730    0.5270    0.0000 hc        1 6NA      0.020367
@<TRIPOS>BOND
     1    1    2 1   
     2    1    4 1   
     3    1    9 1   
     4    1   10 1   
     5    2    3 1   
     6    2    8 1   
     7    4    5 1   
     8    4   11 1   
     9    4   12 1   
    10    5    6 1   
    11    5   13 1   
    12    5   14 1   
    13    6    7 1   
    14    6   15 1   
    15    6   16 1   
    16    7   17 1   
    17    7   18 1   
    18    7   19 1   
@<TRIPOS>SUBSTRUCTURE
     1 6NA         1 TEMP              0 ****  ****    0 ROOT
