@<TRIPOS>MOLECULE
6NF
   39    41     1     0     0
SMALL
bcc


@<TRIPOS>ATOM
      1 C1         -0.0100   -0.1160   -0.0100 ca        1 6NF     -0.238800
      2 C2          1.3940   -0.1580   -0.0650 ca        1 6NF      0.398200
      3 N3          2.1880   -0.0910    1.0200 nb        1 6NF     -0.661000
      4 C4          1.5810    0.0210    2.2180 ca        1 6NF      0.398200
      5 C5          0.1870    0.0740    2.3840 ca        1 6NF     -0.238800
      6 C6         -0.6300    0.0050    1.2430 ca        1 6NF      0.026000
      7 C7         -2.0700    0.0500    1.3870 cc        1 6NF     -0.059300
      8 C8         -2.8590   -0.2570    2.5110 cd        1 6NF     -0.289300
      9 C9         -4.2320   -0.0390    2.0780 cd        1 6NF      0.506200
     10 N10        -4.2340    0.3950    0.7610 nc        1 6NF     -0.551800
     11 N11        -2.9630    0.4220    0.3730 na        1 6NF     -0.004600
     12 N12        -5.3780   -0.3270    2.8350 nu        1 6NF     -0.793900
     13 C13        -5.2680   -0.0290    4.2510 c3        1 6NF      0.179800
     14 C14        -6.6180   -0.0210    4.9810 c3        1 6NF     -0.073700
     15 C15        -6.3620   -0.0740    6.4810 c3        1 6NF     -0.074900
     16 C16        -7.6590   -0.0250    7.2610 c3        1 6NF     -0.076400
     17 C17        -8.4750    1.1980    6.8990 c3        1 6NF     -0.077400
     18 C18        -8.7260    1.2650    5.4070 c3        1 6NF     -0.076400
     19 C19        -7.4290    1.2160    4.6250 c3        1 6NF     -0.074900
     20 H1         -0.5930   -0.1920   -0.9370 ha        1 6NF      0.145000
     21 H2          1.9150   -0.2530   -1.0350 h4        1 6NF      0.025100
     22 H4          2.2530    0.0730    3.0940 h4        1 6NF      0.025100
     23 H5         -0.2550    0.1690    3.3850 ha        1 6NF      0.145000
     24 H8         -2.5320   -0.6030    3.4840 ha        1 6NF      0.168000
     25 H11        -2.7290    0.7220   -0.5440 hn        1 6NF      0.322700
     26 H12        -6.2180    0.0380    2.4270 hn        1 6NF      0.396800
     27 H131       -4.7550    0.9600    4.4360 h1        1 6NF      0.039700
     28 H132       -4.6170   -0.8340    4.7020 h1        1 6NF      0.039700
     29 H14        -7.2080   -0.9350    4.6900 hc        1 6NF      0.064700
     30 H151       -5.7120    0.7900    6.7790 hc        1 6NF      0.040950
     31 H152       -5.8090   -1.0160    6.7330 hc        1 6NF      0.040950
     32 H191       -7.6630    1.2210    3.5280 hc        1 6NF      0.040950
     33 H192       -6.8240    2.1350    4.8450 hc        1 6NF      0.040950
     34 H161       -7.4330   -0.0160    8.3590 hc        1 6NF      0.041450
     35 H162       -8.2580   -0.9500    7.0480 hc        1 6NF      0.041450
     36 H171       -9.4540    1.1730    7.4440 hc        1 6NF      0.040200
     37 H172       -7.9300    2.1220    7.2280 hc        1 6NF      0.040200
     38 H181       -9.2740    2.2110    5.1600 hc        1 6NF      0.041450
     39 H182       -9.3800    0.4070    5.0990 hc        1 6NF      0.041450
@<TRIPOS>BOND
     1    1    2 ar  
     2    1    6 ar  
     3    1   20 1   
     4    2    3 ar  
     5    2   21 1   
     6    3    4 ar  
     7    4    5 ar  
     8    4   22 1   
     9    5    6 ar  
    10    5   23 1   
    11    6    7 1   
    12    7    8 2   
    13    7   11 1   
    14    8    9 1   
    15    8   24 1   
    16    9   10 2   
    17    9   12 1   
    18   10   11 1   
    19   11   25 1   
    20   12   13 1   
    21   12   26 1   
    22   13   14 1   
    23   13   27 1   
    24   13   28 1   
    25   14   15 1   
    26   14   19 1   
    27   14   29 1   
    28   15   16 1   
    29   15   30 1   
    30   15   31 1   
    31   16   17 1   
    32   16   34 1   
    33   16   35 1   
    34   17   18 1   
    35   17   36 1   
    36   17   37 1   
    37   18   19 1   
    38   18   38 1   
    39   18   39 1   
    40   19   32 1   
    41   19   33 1   
@<TRIPOS>SUBSTRUCTURE
     1 6NF         1 TEMP              0 ****  ****    0 ROOT
