@<TRIPOS>MOLECULE
6NF
   39    41     1     0     0
SMALL
bcc


@<TRIPOS>ATOM
      1 C1         -0.0130   -0.1090   -0.0130 ca        1 6NF     -0.238800
      2 C2          1.3910   -0.1520   -0.0700 ca        1 6NF      0.398200
      3 N3          2.1860   -0.0870    1.0160 nb        1 6NF     -0.661000
      4 C4          1.5790    0.0230    2.2140 ca        1 6NF      0.398200
      5 C5          0.1850    0.0750    2.3810 ca        1 6NF     -0.238800
      6 C6         -0.6320    0.0090    1.2400 ca        1 6NF      0.026000
      7 C7         -2.0720    0.0540    1.3850 cc        1 6NF     -0.059300
      8 C8         -2.8610   -0.2560    2.5090 cd        1 6NF     -0.289300
      9 C9         -4.2340   -0.0360    2.0770 cd        1 6NF      0.506200
     10 N10        -4.2360    0.4010    0.7610 nc        1 6NF     -0.551800
     11 N11        -2.9660    0.4300    0.3730 na        1 6NF     -0.004600
     12 N12        -5.3790   -0.3260    2.8340 nh        1 6NF     -0.793900
     13 C13        -5.2680   -0.0330    4.2510 c3        1 6NF      0.179800
     14 C14        -6.6180   -0.0240    4.9810 c3        1 6NF     -0.073700
     15 C15        -6.3610   -0.0820    6.4810 c3        1 6NF     -0.074900
     16 C16        -7.6580   -0.0330    7.2610 c3        1 6NF     -0.076400
     17 C17        -8.4710    1.1940    6.9040 c3        1 6NF     -0.077400
     18 C18        -8.7230    1.2660    5.4120 c3        1 6NF     -0.076400
     19 C19        -7.4260    1.2160    4.6290 c3        1 6NF     -0.074900
     20 H1         -0.5970   -0.1830   -0.9400 ha        1 6NF      0.145000
     21 H2          1.9110   -0.2450   -1.0400 h4        1 6NF      0.025100
     22 H4          2.2520    0.0720    3.0890 h4        1 6NF      0.025100
     23 H5         -0.2560    0.1680    3.3820 ha        1 6NF      0.145000
     24 H8         -2.5340   -0.6050    3.4800 ha        1 6NF      0.168000
     25 H11        -2.7320    0.7320   -0.5430 hn        1 6NF      0.322700
     26 H12        -6.2190    0.0410    2.4270 hn        1 6NF      0.396800
     27 H131       -4.7530    0.9540    4.4380 h1        1 6NF      0.039700
     28 H132       -4.6190   -0.8400    4.6980 h1        1 6NF      0.039700
     29 H14        -7.2100   -0.9360    4.6880 hc        1 6NF      0.064700
     30 H151       -5.7090    0.7800    6.7810 hc        1 6NF      0.040950
     31 H152       -5.8100   -1.0260    6.7300 hc        1 6NF      0.040950
     32 H191       -7.6610    1.2240    3.5330 hc        1 6NF      0.040950
     33 H192       -6.8190    2.1330    4.8510 hc        1 6NF      0.040950
     34 H161       -7.4310   -0.0270    8.3600 hc        1 6NF      0.041450
     35 H162       -8.2590   -0.9550    7.0460 hc        1 6NF      0.041450
     36 H171       -9.4500    1.1690    7.4490 hc        1 6NF      0.040200
     37 H172       -7.9240    2.1160    7.2350 hc        1 6NF      0.040200
     38 H181       -9.3790    0.4100    5.1030 hc        1 6NF      0.041450
     39 H182       -9.2690    2.2140    5.1680 hc        1 6NF      0.041450
@<TRIPOS>BOND
     1    1    2 ar  
     2    1    6 ar  
     3    1   20 1   
     4    2    3 ar  
     5    2   21 1   
     6    3    4 ar  
     7    4    5 ar  
     8    4   22 1   
     9    5    6 ar  
    10    5   23 1   
    11    6    7 1   
    12    7    8 2   
    13    7   11 1   
    14    8    9 1   
    15    8   24 1   
    16    9   10 2   
    17    9   12 1   
    18   10   11 1   
    19   11   25 1   
    20   12   13 1   
    21   12   26 1   
    22   13   14 1   
    23   13   27 1   
    24   13   28 1   
    25   14   15 1   
    26   14   19 1   
    27   14   29 1   
    28   15   16 1   
    29   15   30 1   
    30   15   31 1   
    31   16   17 1   
    32   16   34 1   
    33   16   35 1   
    34   17   18 1   
    35   17   36 1   
    36   17   37 1   
    37   18   19 1   
    38   18   38 1   
    39   18   39 1   
    40   19   32 1   
    41   19   33 1   
@<TRIPOS>SUBSTRUCTURE
     1 6NF         1 TEMP              0 ****  ****    0 ROOT
