@<TRIPOS>MOLECULE
6NH
   39    42     1     0     0
SMALL
bcc


@<TRIPOS>ATOM
      1 C1          0.0840   -0.2310   -0.0750 ca        1 6NH     -0.296900
      2 C2          1.4880   -0.3530    0.0020 ca        1 6NH     -0.110000
      3 C3          2.1430   -0.3700    1.2230 ca        1 6NH     -0.106000
      4 C4          1.3630   -0.2540    2.3810 ca        1 6NH     -0.036200
      5 C5         -0.0920   -0.1240    2.3060 ca        1 6NH      0.082400
      6 C6         -0.7210   -0.1180    1.0600 ca        1 6NH     -0.027000
      7 C7         -0.5630   -0.2630   -1.4000 ce        1 6NH      0.601800
      8 N1         -0.2900    1.0100   -2.1690 n4        1 6NH     -0.827600
      9 N2         -1.2860   -1.1370   -1.9850 n2        1 6NH     -0.717100
     10 N3          1.6760   -0.2320    3.7330 na        1 6NH     -0.251300
     11 N4         -0.6220   -0.0270    3.6020 nc        1 6NH     -0.592100
     12 C8          0.4490   -0.0970    4.4350 cd        1 6NH      0.461800
     13 C5'         0.4010   -0.0450    5.8790 cd        1 6NH      0.173000
     14 C4'        -0.7730    0.0330    6.7220 cd        1 6NH      0.037800
     15 O4'        -2.0890    0.0450    6.4040 oh        1 6NH     -0.457100
     16 C3'        -0.2830    0.0660    8.0540 cc        1 6NH     -0.073300
     17 N2'         1.1190   -0.0040    7.9220 na        1 6NH      0.042400
     18 N1'         1.5300   -0.0630    6.6770 nc        1 6NH     -0.485800
     19 C1B        -0.9850    0.1360    9.3170 ca        1 6NH     -0.031000
     20 C2B        -0.3540    0.6140   10.4760 ca        1 6NH     -0.110500
     21 C3B        -1.0520    0.6690   11.6800 ca        1 6NH     -0.124500
     22 C4B        -2.3830    0.2520   11.7410 ca        1 6NH     -0.110000
     23 C5B        -3.0160   -0.2170   10.5900 ca        1 6NH     -0.124500
     24 C6B        -2.3250   -0.2770    9.3820 ca        1 6NH     -0.110500
     25 H2          2.0770   -0.4680   -0.9210 ha        1 6NH      0.135000
     26 H3          3.2360   -0.4770    1.2790 ha        1 6NH      0.165000
     27 H6         -1.8160   -0.0340    0.9890 ha        1 6NH      0.162000
     28 HN11       -0.6460    0.9700   -3.1310 hn        1 6NH      0.467800
     29 HN12        0.7240    1.1600   -2.1790 hn        1 6NH      0.467800
     30 HN2        -1.4780   -1.9930   -1.5060 hn        1 6NH      0.490400
     31 HN3         2.5740   -0.3110    4.1400 hn        1 6NH      0.338700
     32 H4'        -2.1700    0.2030    5.4490 ho        1 6NH      0.450000
     33 H2'         1.7730   -0.0130    8.6750 hn        1 6NH      0.342700
     34 H2B         0.6880    0.9650   10.4470 ha        1 6NH      0.139000
     35 H3B        -0.5520    1.0460   12.5850 ha        1 6NH      0.142500
     36 H4B        -2.9300    0.2970   12.6940 ha        1 6NH      0.143000
     37 H5B        -4.0670   -0.5430   10.6330 ha        1 6NH      0.142500
     38 H6B        -2.8280   -0.6440    8.4730 ha        1 6NH      0.139000
     39 H13        -0.7390    1.7840   -1.6690 hn        1 6NH      0.467800
@<TRIPOS>BOND
     1    1    2 ar  
     2    1    6 ar  
     3    1    7 1   
     4    2    3 ar  
     5    2   25 1   
     6    3    4 ar  
     7    3   26 1   
     8    4    5 ar  
     9    4   10 1   
    10    5    6 ar  
    11    5   11 1   
    12    6   27 1   
    13    7    8 1   
    14    7    9 2   
    15    8   28 1   
    16    8   29 1   
    17    8   39 1   
    18    9   30 1   
    19   10   12 1   
    20   10   31 1   
    21   11   12 2   
    22   12   13 1   
    23   13   14 1   
    24   13   18 2   
    25   14   15 1   
    26   14   16 2   
    27   15   32 1   
    28   16   17 1   
    29   16   19 1   
    30   17   18 1   
    31   17   33 1   
    32   19   20 ar  
    33   19   24 ar  
    34   20   21 ar  
    35   20   34 1   
    36   21   22 ar  
    37   21   35 1   
    38   22   23 ar  
    39   22   36 1   
    40   23   24 ar  
    41   23   37 1   
    42   24   38 1   
@<TRIPOS>SUBSTRUCTURE
     1 6NH         1 TEMP              0 ****  ****    0 ROOT
