@<TRIPOS>MOLECULE
6NH
   38    29     1     0     0
SMALL
bcc


@<TRIPOS>ATOM
      1 C1         -0.6970   -0.6000   -4.9090 c1        1 6NH     -0.138000
      2 C2          0.6840   -0.5120   -4.9590 c1        1 6NH     -0.124000
      3 C3          1.4140   -0.4560   -3.7910 c1        1 6NH     -0.124000
      4 C4          0.7450   -0.4880   -2.5250 c1        1 6NH     -0.044500
      5 C5         -0.5880   -0.5730   -2.4740 c1        1 6NH     -0.044500
      6 C6         -1.3450   -0.6310   -3.6860 c1        1 6NH     -0.035000
      7 C7         -1.1370   -0.6940   -6.3580 c2        1 6NH      0.120000
      8 N1         -1.3520    0.5100   -7.1260 n3        1 6NH     -0.333000
      9 N2         -1.3290   -1.9060   -6.9300 n1        1 6NH     -0.306000
     10 N3          1.2120   -0.4500   -1.2460 n1        1 6NH     -0.192000
     11 N4         -0.9590   -0.5880   -1.1570 n1        1 6NH     -0.192000
     12 C8          0.1510   -0.5120   -0.4110 c2        1 6NH      0.109000
     13 C5'         0.4430   -0.5990    0.9440 c2        1 6NH     -0.148000
     14 C4'        -0.0880    0.1850    1.9260 c1        1 6NH      0.056000
     15 O4'        -1.2140    1.0380    1.7930 o         1 6NH     -0.223000
     16 C3'         0.5770   -0.0890    3.0870 c2        1 6NH     -0.074000
     17 N2'         1.5040   -1.0280    2.8230 n2        1 6NH     -0.126000
     18 N1'         1.4210   -1.3450    1.4930 n2        1 6NH     -0.056000
     19 C1B         0.3350    0.4890    4.3270 c1        1 6NH     -0.009000
     20 C2B         0.9510    1.6960    4.6700 c1        1 6NH     -0.124000
     21 C3B         0.7440    2.2500    5.9390 c1        1 6NH     -0.124000
     22 C4B        -0.0740    1.5990    6.8540 c1        1 6NH     -0.124000
     23 C5B        -0.6910    0.3880    6.5060 c1        1 6NH     -0.124000
     24 C6B        -0.4850   -0.1610    5.2480 c1        1 6NH     -0.101000
     25 H2          1.1620   -0.4900   -5.8590 ha        1 6NH      0.134500
     26 H3          2.4020   -0.3920   -3.8280 ha        1 6NH      0.134500
     27 H6         -2.2990   -0.6920   -3.6520 ha        1 6NH      0.165000
     28 HN11       -1.6460    0.4560   -7.9820 hn        1 6NH      0.194000
     29 HN12       -1.1660    1.3440   -6.7470 hn        1 6NH      0.194000
     30 HN2        -1.1890   -2.6920   -6.4280 DU        1 6NH      0.234667
     31 HN3         2.1010   -0.3920   -0.9930 DU        1 6NH      0.234667
     32 H4'        -1.9720    0.5600    1.9330 ho        1 6NH      0.260000
     33 H2'         2.0790   -1.3870    3.4170 DU        1 6NH      0.234667
     34 H2B         1.5440    2.1660    4.0050 ha        1 6NH      0.134500
     35 H3B         1.1820    3.1120    6.1870 ha        1 6NH      0.134500
     36 H4B        -0.2230    1.9910    7.7580 ha        1 6NH      0.134500
     37 H5B        -1.2680   -0.0720    7.1530 ha        1 6NH      0.134500
     38 H6B        -0.9300   -1.0350    4.9990 ha        1 6NH      0.160000
@<TRIPOS>BOND
     1    1    6 1   
     2    1    7 1   
     3    2    3 1   
     4    2   25 1   
     5    3   26 1   
     6    4    5 1   
     7    6   27 1   
     8    7    8 1   
     9    7    9 1   
    10    8   28 1   
    11    8   29 1   
    12   10   12 1   
    13   11   12 1   
    14   12   13 1   
    15   13   14 1   
    16   13   18 1   
    17   14   16 1   
    18   15   32 1   
    19   16   17 1   
    20   16   19 1   
    21   17   18 1   
    22   19   24 1   
    23   20   21 1   
    24   20   34 1   
    25   21   35 1   
    26   22   23 1   
    27   22   36 1   
    28   23   37 1   
    29   24   38 1   
@<TRIPOS>SUBSTRUCTURE
     1 6NH         1 TEMP              0 ****  ****    0 ROOT
