@<TRIPOS>MOLECULE
6NH
   39    42     1     0     0
SMALL
bcc


@<TRIPOS>ATOM
      1 C1          0.0910   -0.2240   -0.0750 ca        1 6NH     -0.296900
      2 C2          1.4960   -0.3260    0.0030 ca        1 6NH     -0.110000
      3 C3          2.1500   -0.3330    1.2240 ca        1 6NH     -0.106000
      4 C4          1.3680   -0.2280    2.3820 ca        1 6NH     -0.036200
      5 C5         -0.0880   -0.1200    2.3060 ca        1 6NH      0.082400
      6 C6         -0.7160   -0.1230    1.0590 ca        1 6NH     -0.027000
      7 C7         -0.5550   -0.2650   -1.4010 ce        1 6NH      0.601800
      8 N1         -0.3000    1.0120   -2.1680 nz        1 6NH     -0.827600
      9 N2         -1.2640   -1.1480   -1.9860 n2        1 6NH     -0.717100
     10 N3          1.6800   -0.2030    3.7350 na        1 6NH     -0.251300
     11 N4         -0.6200   -0.0310    3.6020 nc        1 6NH     -0.592100
     12 C8          0.4510   -0.0850    4.4360 cd        1 6NH      0.461800
     13 C5'         0.4010   -0.0340    5.8800 cd        1 6NH      0.173000
     14 C4'        -0.7750    0.0260    6.7210 cd        1 6NH      0.037800
     15 O4'        -2.0900    0.0180    6.4020 oh        1 6NH     -0.457100
     16 C3'        -0.2850    0.0650    8.0540 cc        1 6NH     -0.073300
     17 N2'         1.1170    0.0170    7.9230 na        1 6NH      0.042400
     18 N1'         1.5300   -0.0360    6.6780 nc        1 6NH     -0.485800
     19 C1B        -0.9890    0.1250    9.3160 ca        1 6NH     -0.031000
     20 C2B        -0.3660    0.6130   10.4760 ca        1 6NH     -0.110500
     21 C3B        -1.0660    0.6570   11.6790 ca        1 6NH     -0.124500
     22 C4B        -2.3900    0.2200   11.7390 ca        1 6NH     -0.110000
     23 C5B        -3.0160   -0.2590   10.5890 ca        1 6NH     -0.124500
     24 C6B        -2.3230   -0.3080    9.3810 ca        1 6NH     -0.110500
     25 H2          2.0870   -0.4320   -0.9190 ha        1 6NH      0.135000
     26 H3          3.2450   -0.4250    1.2810 ha        1 6NH      0.165000
     27 H6         -1.8130   -0.0540    0.9880 ha        1 6NH      0.162000
     28 HN11       -0.6550    0.9680   -3.1310 hn        1 6NH      0.467800
     29 HN12        0.7120    1.1770   -2.1780 hn        1 6NH      0.467800
     30 HN2        -1.4440   -2.0070   -1.5070 hn        1 6NH      0.490400
     31 HN3         2.5790   -0.2690    4.1420 hn        1 6NH      0.338700
     32 H4'        -2.1730    0.1750    5.4480 ho        1 6NH      0.450000
     33 H2'         1.7710    0.0180    8.6770 hn        1 6NH      0.342700
     34 H2B         0.6700    0.9800   10.4480 ha        1 6NH      0.139000
     35 H3B        -0.5720    1.0410   12.5840 ha        1 6NH      0.142500
     36 H4B        -2.9390    0.2560   12.6920 ha        1 6NH      0.143000
     37 H5B        -4.0610   -0.6000   10.6310 ha        1 6NH      0.142500
     38 H6B        -2.8200   -0.6830    8.4710 ha        1 6NH      0.139000
     39 H13        -0.7610    1.7800   -1.6690 hn        1 6NH      0.467800
@<TRIPOS>BOND
     1    1    2 ar  
     2    1    6 ar  
     3    1    7 1   
     4    2    3 ar  
     5    2   25 1   
     6    3    4 ar  
     7    3   26 1   
     8    4    5 ar  
     9    4   10 1   
    10    5    6 ar  
    11    5   11 1   
    12    6   27 1   
    13    7    8 1   
    14    7    9 2   
    15    8   28 1   
    16    8   29 1   
    17    8   39 1   
    18    9   30 1   
    19   10   12 1   
    20   10   31 1   
    21   11   12 2   
    22   12   13 1   
    23   13   14 1   
    24   13   18 2   
    25   14   15 1   
    26   14   16 2   
    27   15   32 1   
    28   16   17 1   
    29   16   19 1   
    30   17   18 1   
    31   17   33 1   
    32   19   20 ar  
    33   19   24 ar  
    34   20   21 ar  
    35   20   34 1   
    36   21   22 ar  
    37   21   35 1   
    38   22   23 ar  
    39   22   36 1   
    40   23   24 ar  
    41   23   37 1   
    42   24   38 1   
@<TRIPOS>SUBSTRUCTURE
     1 6NH         1 TEMP              0 ****  ****    0 ROOT
