@<TRIPOS>MOLECULE
6NH
   38    41     1     0     0
SMALL
bcc


@<TRIPOS>ATOM
      1 C1          4.9330   -0.3640    0.1050 ca        1 6NH     -0.157900
      2 C2          5.0580    1.0370    0.2060 ca        1 6NH     -0.107000
      3 C3          3.9480    1.8660    0.2380 ca        1 6NH     -0.134000
      4 C4          2.6870    1.2600    0.1640 ca        1 6NH     -0.065200
      5 C5          2.5470   -0.1850    0.0650 ca        1 6NH      0.070400
      6 C6          3.6940   -0.9910    0.0420 ca        1 6NH     -0.021000
      7 C7          6.1780   -1.2000    0.0780 ce        1 6NH      0.655800
      8 N1          7.0590   -0.8870   -0.9780 nh        1 6NH     -0.961800
      9 N2          6.3020   -2.1530    0.9510 n2        1 6NH     -0.827100
     10 N3          1.3900    1.7730    0.1640 na        1 6NH     -0.261300
     11 N4          1.1830   -0.5190    0.0090 nc        1 6NH     -0.593100
     12 C8          0.5200    0.6620    0.0710 cd        1 6NH      0.402800
     13 C5'        -0.9230    0.8140    0.0460 cd        1 6NH      0.212000
     14 C4'        -1.9080   -0.2460   -0.0240 cd        1 6NH      0.035800
     15 O4'        -1.7520   -1.5890   -0.0690 oh        1 6NH     -0.470100
     16 C3'        -3.1680    0.4070   -0.0300 cc        1 6NH     -0.099300
     17 N2'        -2.8600    1.7810    0.0410 na        1 6NH      0.017400
     18 N1'        -1.5680    2.0300    0.0870 nc        1 6NH     -0.489800
     19 C1B        -4.5090   -0.1310   -0.0850 ca        1 6NH     -0.008000
     20 C2B        -5.5990    0.6590   -0.4820 ca        1 6NH     -0.117500
     21 C3B        -6.8810    0.1160   -0.5230 ca        1 6NH     -0.126500
     22 C4B        -7.0920   -1.2180   -0.1740 ca        1 6NH     -0.125000
     23 C5B        -6.0120   -2.0100    0.2140 ca        1 6NH     -0.126500
     24 C6B        -4.7270   -1.4750    0.2600 ca        1 6NH     -0.117500
     25 H2          6.0610    1.4860    0.2770 ha        1 6NH      0.130000
     26 H3          4.0520    2.9550    0.3230 ha        1 6NH      0.139000
     27 H6          3.6090   -2.0870   -0.0170 ha        1 6NH      0.166000
     28 HN11        6.9190   -0.0080   -1.4150 hn        1 6NH      0.399300
     29 HN12        8.0100   -1.1500   -0.8680 hn        1 6NH      0.399300
     30 HN2         7.1410   -2.6930    0.9050 hn        1 6NH      0.381400
     31 HN3         1.1250    2.7200    0.2290 hn        1 6NH      0.319700
     32 H4'        -0.8000   -1.7830   -0.1270 ho        1 6NH      0.461000
     33 H2'        -3.5210    2.5230    0.0770 hn        1 6NH      0.331700
     34 H2B        -5.4560    1.7080   -0.7800 ha        1 6NH      0.140500
     35 H3B        -7.7290    0.7430   -0.8360 ha        1 6NH      0.135000
     36 H4B        -8.1050   -1.6430   -0.2070 ha        1 6NH      0.134000
     37 H5B        -6.1720   -3.0640    0.4860 ha        1 6NH      0.135000
     38 H6B        -3.8740   -2.1040    0.5620 ha        1 6NH      0.140500
@<TRIPOS>BOND
     1    1    2 ar  
     2    1    6 ar  
     3    1    7 1   
     4    2    3 ar  
     5    2   25 1   
     6    3    4 ar  
     7    3   26 1   
     8    4    5 ar  
     9    4   10 1   
    10    5    6 ar  
    11    5   11 1   
    12    6   27 1   
    13    7    8 1   
    14    7    9 2   
    15    8   28 1   
    16    8   29 1   
    17    9   30 1   
    18   10   12 1   
    19   10   31 1   
    20   11   12 2   
    21   12   13 1   
    22   13   14 1   
    23   13   18 2   
    24   14   15 1   
    25   14   16 2   
    26   15   32 1   
    27   16   17 1   
    28   16   19 1   
    29   17   18 1   
    30   17   33 1   
    31   19   20 ar  
    32   19   24 ar  
    33   20   21 ar  
    34   20   34 1   
    35   21   22 ar  
    36   21   35 1   
    37   22   23 ar  
    38   22   36 1   
    39   23   24 ar  
    40   23   37 1   
    41   24   38 1   
@<TRIPOS>SUBSTRUCTURE
     1 6NH         1 TEMP              0 ****  ****    0 ROOT
