@<TRIPOS>MOLECULE
6NH
   39    42     1     0     0
SMALL
bcc


@<TRIPOS>ATOM
      1 C1          0.0940   -0.2440   -0.0740 ca        1 6NH     -0.296900
      2 C2          1.5000   -0.3360    0.0050 ca        1 6NH     -0.111000
      3 C3          2.1540   -0.3320    1.2270 ca        1 6NH     -0.106000
      4 C4          1.3700   -0.2280    2.3840 ca        1 6NH     -0.036200
      5 C5         -0.0870   -0.1300    2.3070 ca        1 6NH      0.082400
      6 C6         -0.7140   -0.1440    1.0600 ca        1 6NH     -0.027000
      7 C7         -0.5510   -0.2970   -1.3990 ce        1 6NH      0.601800
      8 N1         -0.3050    0.9770   -2.1740 n4        1 6NH     -0.827600
      9 N2         -1.2550   -1.1880   -1.9800 n2        1 6NH     -0.717100
     10 N3          1.6820   -0.1930    3.7360 na        1 6NH     -0.251300
     11 N4         -0.6200   -0.0380    3.6020 nc        1 6NH     -0.592100
     12 C8          0.4510   -0.0810    4.4360 cd        1 6NH      0.461800
     13 C5'         0.4010   -0.0230    5.8800 cd        1 6NH      0.173000
     14 C4'        -0.7750    0.0330    6.7210 cd        1 6NH      0.037800
     15 O4'        -2.0900    0.0130    6.4020 oh        1 6NH     -0.457100
     16 C3'        -0.2870    0.0820    8.0540 cc        1 6NH     -0.073300
     17 N2'         1.1160    0.0440    7.9230 na        1 6NH      0.042400
     18 N1'         1.5300   -0.0120    6.6790 nc        1 6NH     -0.485800
     19 C1B        -0.9910    0.1430    9.3160 ca        1 6NH     -0.031000
     20 C2B        -0.3720    0.6410   10.4730 ca        1 6NH     -0.110500
     21 C3B        -1.0730    0.6860   11.6760 ca        1 6NH     -0.124500
     22 C4B        -2.3930    0.2400   11.7380 ca        1 6NH     -0.110000
     23 C5B        -3.0150   -0.2500   10.5890 ca        1 6NH     -0.124500
     24 C6B        -2.3210   -0.3000    9.3820 ca        1 6NH     -0.110500
     25 H2          2.0920   -0.4430   -0.9160 ha        1 6NH      0.135000
     26 H3          3.2490   -0.4160    1.2840 ha        1 6NH      0.165000
     27 H6         -1.8110   -0.0830    0.9880 ha        1 6NH      0.162000
     28 HN11       -0.7700    1.7450   -1.6790 hn        1 6NH      0.467800
     29 HN12        0.7060    1.1490   -2.1840 hn        1 6NH      0.467800
     30 HN2        -1.4290   -2.0460   -1.4960 hn        1 6NH      0.490400
     31 HN3         2.5810   -0.2510    4.1440 hn        1 6NH      0.338700
     32 H4'        -2.1740    0.1660    5.4470 ho        1 6NH      0.450000
     33 H2'         1.7700    0.0530    8.6770 hn        1 6NH      0.342700
     34 H2B         0.6610    1.0160   10.4430 ha        1 6NH      0.139000
     35 H3B        -0.5820    1.0790   12.5790 ha        1 6NH      0.142500
     36 H4B        -2.9430    0.2760   12.6910 ha        1 6NH      0.143000
     37 H5B        -4.0580   -0.5990   10.6330 ha        1 6NH      0.142500
     38 H6B        -2.8160   -0.6830    8.4740 ha        1 6NH      0.139000
     39 H13        -0.6590    0.9250   -3.1360 hn        1 6NH      0.467800
@<TRIPOS>BOND
     1    1    2 ar  
     2    1    6 ar  
     3    1    7 1   
     4    2    3 ar  
     5    2   25 1   
     6    3    4 ar  
     7    3   26 1   
     8    4    5 ar  
     9    4   10 1   
    10    5    6 ar  
    11    5   11 1   
    12    6   27 1   
    13    7    8 1   
    14    7    9 2   
    15    8   28 1   
    16    8   29 1   
    17    8   39 1   
    18    9   30 1   
    19   10   12 1   
    20   10   31 1   
    21   11   12 2   
    22   12   13 1   
    23   13   14 1   
    24   13   18 2   
    25   14   15 1   
    26   14   16 2   
    27   15   32 1   
    28   16   17 1   
    29   16   19 1   
    30   17   18 1   
    31   17   33 1   
    32   19   20 ar  
    33   19   24 ar  
    34   20   21 ar  
    35   20   34 1   
    36   21   22 ar  
    37   21   35 1   
    38   22   23 ar  
    39   22   36 1   
    40   23   24 ar  
    41   23   37 1   
    42   24   38 1   
@<TRIPOS>SUBSTRUCTURE
     1 6NH         1 TEMP              0 ****  ****    0 ROOT
