@<TRIPOS>MOLECULE
6NI
   17    11     1     0     0
SMALL
bcc


@<TRIPOS>ATOM
      1 C6         -0.8970    0.0230   -1.1870 c1        1 6NI     -0.101000
      2 C7          0.4830    0.1010   -1.1060 c1        1 6NI     -0.069500
      3 C8          1.1170    0.0670    0.1510 c1        1 6NI     -0.059500
      4 C9          0.3740   -0.0420    1.2860 c1        1 6NI     -0.059500
      5 C4         -1.0300   -0.1220    1.2030 c1        1 6NI     -0.069500
      6 C5         -1.6530   -0.0890   -0.0340 c1        1 6NI     -0.111000
      7 N1          2.4360    0.1260    0.5140 n1        1 6NI     -0.189000
      8 N2          2.5030    0.0520    1.8870 n2        1 6NI     -0.017000
      9 C3          1.2410   -0.0510    2.3640 c1        1 6NI     -0.161000
     10 N10        -1.6340    0.0390   -2.4000 no        1 6NI      0.566000
     11 O11        -1.6600   -1.0680   -3.1990 o         1 6NI     -0.356500
     12 O12        -2.2390    1.0480   -2.7340 o         1 6NI     -0.356500
     13 H71         1.0160    0.1790   -1.9200 ha        1 6NI      0.166000
     14 H41        -1.5630   -0.2000    2.0170 ha        1 6NI      0.166000
     15 H51        -2.6260   -0.1440   -0.0910 ha        1 6NI      0.173000
     16 HN11        3.1450    0.2010   -0.0540 DU        1 6NI      0.239500
     17 H31         0.9870   -0.1200    3.3040 DU        1 6NI      0.239500
@<TRIPOS>BOND
     1    1    6 1   
     2    1   10 1   
     3    2    3 1   
     4    2   13 1   
     5    4    5 1   
     6    5   14 1   
     7    6   15 1   
     8    7    8 1   
     9    8    9 1   
    10   10   11 1   
    11   10   12 1   
@<TRIPOS>SUBSTRUCTURE
     1 6NI         1 TEMP              0 ****  ****    0 ROOT
