@<TRIPOS>MOLECULE
6NI
   17    18     1     0     0
SMALL
bcc


@<TRIPOS>ATOM
      1 C6          1.1290   -0.0980    0.0010 ca        1 6NI     -0.146200
      2 C7          0.2120    0.9560    0.0020 ca        1 6NI     -0.071000
      3 C8         -1.1410    0.6010    0.0010 ca        1 6NI     -0.068200
      4 C9         -1.5640   -0.7840   -0.0000 ca        1 6NI     -0.179900
      5 C4         -0.6110   -1.8000   -0.0010 ca        1 6NI     -0.068000
      6 C5          0.7320   -1.4590   -0.0000 ca        1 6NI     -0.111000
      7 N1         -2.3210    1.3630    0.0010 na        1 6NI     -0.014100
      8 N2         -3.4080    0.5870    0.0000 nc        1 6NI     -0.484100
      9 C3         -3.0170   -0.7050   -0.0010 cd        1 6NI      0.339800
     10 N10         2.5840    0.2210    0.0010 no        1 6NI      0.311200
     11 O11         3.3790   -0.6790    0.0010 o         1 6NI     -0.206500
     12 O12         2.9250    1.3740    0.0030 o         1 6NI     -0.206500
     13 H71         0.5410    2.0080    0.0020 ha        1 6NI      0.177000
     14 H41        -0.9190   -2.8570   -0.0020 ha        1 6NI      0.155000
     15 H51         1.5050   -2.2470   -0.0010 ha        1 6NI      0.173000
     16 HN11       -2.3980    2.3520    0.0020 hn        1 6NI      0.334700
     17 H31        -3.7270   -1.5330   -0.0010 h4        1 6NI      0.064800
@<TRIPOS>BOND
     1    1    2 ar  
     2    1    6 ar  
     3    1   10 1   
     4    2    3 ar  
     5    2   13 1   
     6    3    4 ar  
     7    3    7 1   
     8    4    5 ar  
     9    4    9 1   
    10    5    6 ar  
    11    5   14 1   
    12    6   15 1   
    13    7    8 1   
    14    7   16 1   
    15    8    9 2   
    16    9   17 1   
    17   10   11 1   
    18   10   12 1   
@<TRIPOS>SUBSTRUCTURE
     1 6NI         1 TEMP              0 ****  ****    0 ROOT
