@<TRIPOS>MOLECULE
6NI
   17    18     1     0     0
SMALL
bcc


@<TRIPOS>ATOM
      1 C6         -0.0010   -0.0000   -0.0110 ca        1 6NI     -0.146200
      2 C7          1.3960    0.0050   -0.0400 ca        1 6NI     -0.071000
      3 C8          2.0420   -0.0010    1.2020 ca        1 6NI     -0.068200
      4 C9          1.2980   -0.0120    2.4450 ca        1 6NI     -0.179900
      5 C4         -0.0950   -0.0180    2.4210 ca        1 6NI     -0.068000
      6 C5         -0.7430   -0.0120    1.1960 ca        1 6NI     -0.111000
      7 N1          3.3970    0.0020    1.5640 na        1 6NI     -0.014100
      8 N2          3.5530   -0.0060    2.8910 nc        1 6NI     -0.484100
      9 C3          2.3330   -0.0150    3.4690 cd        1 6NI      0.339800
     10 N10        -0.7410    0.0060   -1.3040 no        1 6NI      0.311200
     11 O11        -1.9420    0.0000   -1.2880 o         1 6NI     -0.206500
     12 O12        -0.1160    0.0160   -2.3310 o         1 6NI     -0.206500
     13 H71         1.9540    0.0140   -0.9890 ha        1 6NI      0.177000
     14 H41        -0.6700   -0.0270    3.3580 ha        1 6NI      0.155000
     15 H51        -1.8460   -0.0160    1.1520 ha        1 6NI      0.173000
     16 HN11        4.1830    0.0100    0.9570 hn        1 6NI      0.334700
     17 H31         2.1960   -0.0230    4.5510 h4        1 6NI      0.064800
@<TRIPOS>BOND
     1    1    2 ar  
     2    1    6 ar  
     3    1   10 1   
     4    2    3 ar  
     5    2   13 1   
     6    3    4 ar  
     7    3    7 1   
     8    4    5 ar  
     9    4    9 1   
    10    5    6 ar  
    11    5   14 1   
    12    6   15 1   
    13    7    8 1   
    14    7   16 1   
    15    8    9 2   
    16    9   17 1   
    17   10   11 1   
    18   10   12 1   
@<TRIPOS>SUBSTRUCTURE
     1 6NI         1 TEMP              0 ****  ****    0 ROOT
