@<TRIPOS>MOLECULE
6NP
   62    67     1     0     0
SMALL
bcc


@<TRIPOS>ATOM
      1 C1          0.2340    0.4910    0.0510 ca        1 6NP      0.558200
      2 N1          1.6330    0.4810    0.1170 nb        1 6NP     -0.346000
      3 N2          2.2440    0.3440    1.2080 nb        1 6NP     -0.274000
      4 C2          1.5950    0.1980    2.4180 cp        1 6NP      0.368800
      5 C3          0.1790    0.1640    2.4590 cq        1 6NP     -0.078300
      6 C5         -0.5870   -0.0580    3.6840 cq        1 6NP     -0.011000
      7 C6         -1.5970    0.8410    4.0600 ca        1 6NP     -0.227300
      8 C7         -2.3350    0.5740    5.2260 ca        1 6NP      0.392700
      9 N3         -2.1340   -0.5060    6.0050 nb        1 6NP     -0.657000
     10 C8         -1.1650   -1.3630    5.6300 ca        1 6NP      0.392700
     11 C9         -0.3670   -1.1860    4.4850 ca        1 6NP     -0.227300
     12 C4         -0.5130    0.3260    1.2510 ca        1 6NP     -0.230300
     13 C10         0.5520    0.5090   -4.8700 c3        1 6NP     -0.035100
     14 C11        -0.3280    1.1510   -7.1280 ca        1 6NP     -0.122000
     15 C12        -0.9090    0.8160   -8.3510 ca        1 6NP     -0.127500
     16 C13        -1.2500   -0.5070   -8.6250 ca        1 6NP     -0.131000
     17 C14        -1.0100   -1.4980   -7.6720 ca        1 6NP     -0.127500
     18 C15        -0.4290   -1.1650   -6.4500 ca        1 6NP     -0.122000
     19 C16        -0.0840    0.1620   -6.1690 ca        1 6NP     -0.069300
     20 C17         2.4250    0.0940    3.6260 cp        1 6NP     -0.140500
     21 C18         3.4650   -0.8090    3.6920 ca        1 6NP     -0.081000
     22 C19         4.2740   -0.8940    4.8570 ca        1 6NP     -0.044000
     23 C20         4.0130   -0.0300    5.9500 ca        1 6NP     -0.030000
     24 C21         2.9450    0.9040    5.8510 ca        1 6NP     -0.119000
     25 C22         2.1710    0.9660    4.7210 ca        1 6NP     -0.109000
     26 C23         5.3450   -1.8260    4.9510 ca        1 6NP     -0.113000
     27 C24         6.1150   -1.8890    6.0860 ca        1 6NP     -0.129000
     28 C25         5.8520   -1.0270    7.1780 ca        1 6NP     -0.123000
     29 C26         4.8250   -0.1180    7.1130 ca        1 6NP     -0.120000
     30 C27        -0.4360    0.4270   -3.6970 c3        1 6NP      0.163500
     31 C28         0.4020    0.5210   -2.3880 c3        1 6NP      0.150800
     32 N4         -0.4320    0.5680   -1.1950 nh        1 6NP     -0.723300
     33 C29        -1.5040    1.5500   -1.2610 c3        1 6NP      0.146800
     34 C30        -2.3040    1.4480   -2.5790 c3        1 6NP      0.154800
     35 N5         -1.5070    1.4110   -3.7840 n3        1 6NP     -0.792200
     36 H6         -1.8060    1.7370    3.4600 ha        1 6NP      0.150500
     37 H7         -3.1340    1.2620    5.5560 h4        1 6NP      0.025600
     38 H8         -1.0200   -2.2410    6.2850 h4        1 6NP      0.025600
     39 H9          0.4150   -1.9150    4.2310 ha        1 6NP      0.150500
     40 H4         -1.6110    0.2960    1.2440 ha        1 6NP      0.158000
     41 H101        1.0030    1.5360   -4.9200 hc        1 6NP      0.053700
     42 H102        1.3880   -0.2130   -4.6640 hc        1 6NP      0.053700
     43 H12        -1.0990    1.6000   -9.0990 ha        1 6NP      0.130000
     44 H13        -1.7080   -0.7700   -9.5890 ha        1 6NP      0.130000
     45 H14        -1.2790   -2.5420   -7.8850 ha        1 6NP      0.130000
     46 H15        -0.2410   -1.9480   -5.7000 ha        1 6NP      0.128500
     47 H18         3.6900   -1.4740    2.8440 ha        1 6NP      0.146000
     48 H21         2.7530    1.5780    6.7000 ha        1 6NP      0.136000
     49 H22         1.3450    1.6880    4.6430 ha        1 6NP      0.137000
     50 H23         5.5430   -2.4890    4.0950 ha        1 6NP      0.135000
     51 H24         6.9450   -2.6080    6.1610 ha        1 6NP      0.133000
     52 H25         6.4830   -1.0970    8.0760 ha        1 6NP      0.133000
     53 H26         4.6140    0.5570    7.9560 ha        1 6NP      0.134000
     54 H27        -0.9360   -0.5880   -3.7240 h1        1 6NP      0.077700
     55 H281        1.0770    1.4220   -2.4540 h1        1 6NP      0.057200
     56 H282        1.0480   -0.3990   -2.3280 h1        1 6NP      0.057200
     57 H291       -2.2170    1.3730   -0.4090 h1        1 6NP      0.042700
     58 H292       -1.0970    2.5980   -1.1590 h1        1 6NP      0.042700
     59 H301       -3.0000    2.3300   -2.6280 h1        1 6NP      0.063700
     60 H302       -2.9250    0.5080   -2.5550 h1        1 6NP      0.063700
     61 HN5        -1.1270    2.3180   -3.9850 hn        1 6NP      0.352800
     62 H11        -0.0650    2.1980   -6.9160 ha        1 6NP      0.128500
@<TRIPOS>BOND
     1    1    2 ar  
     2    1   12 ar  
     3    1   32 1   
     4    2    3 ar  
     5    3    4 ar  
     6    4    5 2   
     7    4   20 1   
     8    5    6 1   
     9    5   12 1   
    10    6    7 1   
    11    6   11 2   
    12    7    8 ar  
    13    7   36 1   
    14    8    9 ar  
    15    8   37 1   
    16    9   10 ar  
    17   10   11 ar  
    18   10   38 1   
    19   11   39 1   
    20   12   40 1   
    21   13   19 1   
    22   13   30 1   
    23   13   41 1   
    24   13   42 1   
    25   14   15 ar  
    26   14   19 ar  
    27   14   62 1   
    28   15   16 ar  
    29   15   43 1   
    30   16   17 ar  
    31   16   44 1   
    32   17   18 ar  
    33   17   45 1   
    34   18   19 ar  
    35   18   46 1   
    36   20   21 ar  
    37   20   25 ar  
    38   21   22 ar  
    39   21   47 1   
    40   22   23 ar  
    41   22   26 ar  
    42   23   24 ar  
    43   23   29 ar  
    44   24   25 ar  
    45   24   48 1   
    46   25   49 1   
    47   26   27 ar  
    48   26   50 1   
    49   27   28 ar  
    50   27   51 1   
    51   28   29 ar  
    52   28   52 1   
    53   29   53 1   
    54   30   31 1   
    55   30   35 1   
    56   30   54 1   
    57   31   32 1   
    58   31   55 1   
    59   31   56 1   
    60   32   33 1   
    61   33   34 1   
    62   33   57 1   
    63   33   58 1   
    64   34   35 1   
    65   34   59 1   
    66   34   60 1   
    67   35   61 1   
@<TRIPOS>SUBSTRUCTURE
     1 6NP         1 TEMP              0 ****  ****    0 ROOT
