@<TRIPOS>MOLECULE
6NP
   62    51     1     0     0
SMALL
bcc


@<TRIPOS>ATOM
      1 C1         -0.4340    0.7920   -0.3460 c1        1 6NP      0.061000
      2 N1          0.9220    0.7700   -0.3780 n1        1 6NP     -0.091000
      3 N2          1.6380    0.7570    0.7940 n1        1 6NP     -0.005000
      4 C2          0.9910    0.7660    1.9860 c1        1 6NP     -0.084000
      5 C3         -0.3830    0.7890    2.0220 c1        1 6NP     -0.012667
      6 C5         -1.0420    0.9090    3.2370 c1        1 6NP     -0.012667
      7 C6         -1.4290    2.1400    3.6840 c1        1 6NP     -0.124875
      8 C7         -2.1840    2.2510    4.8410 c1        1 6NP     -0.124875
      9 N3         -2.5400    1.1340    5.5330 n1        1 6NP     -0.132000
     10 C8         -2.1540   -0.0950    5.0890 c1        1 6NP     -0.071000
     11 C9         -1.4000   -0.2100    3.9320 c1        1 6NP     -0.150667
     12 C4         -1.0920    0.8020    0.8610 c1        1 6NP     -0.150667
     13 C10        -0.5410   -0.8000   -4.9400 c3        1 6NP     -0.145000
     14 C11        -1.1130   -1.4050   -7.1910 c1        1 6NP     -0.133000
     15 C12        -2.0030   -1.8750   -8.1440 c1        1 6NP     -0.124875
     16 C13        -3.0570   -2.6920   -7.7660 c1        1 6NP     -0.124875
     17 C14        -3.2210   -3.0380   -6.4340 c1        1 6NP     -0.124875
     18 C15        -2.3320   -2.5680   -5.4800 c1        1 6NP     -0.124875
     19 C16        -1.2780   -1.7520   -5.8590 c1        1 6NP     -0.073000
     20 C17         1.7170    0.6940    3.1740 c1        1 6NP     -0.012667
     21 C18         2.3610   -0.5060    3.4510 c1        1 6NP     -0.109250
     22 C19         3.2440   -0.5950    4.5450 c1        1 6NP     -0.037000
     23 C20         3.4690    0.5060    5.3380 c1        1 6NP     -0.037000
     24 C21         2.8160    1.7210    5.0560 c1        1 6NP     -0.109250
     25 C22         1.9450    1.8080    3.9760 c1        1 6NP     -0.150667
     26 C23         3.8910   -1.8120    4.8330 c1        1 6NP     -0.109250
     27 C24         4.7560   -1.9010    5.9170 c1        1 6NP     -0.124875
     28 C25         4.9830   -0.7870    6.7200 c1        1 6NP     -0.124875
     29 C26         4.3450    0.4150    6.4370 c1        1 6NP     -0.109250
     30 C27        -1.5600   -0.2280   -3.8320 c3        1 6NP     -0.028000
     31 C28        -0.8960   -0.3270   -2.4370 c3        1 6NP     -0.048000
     32 N4         -1.1730    0.8990   -1.5600 n3        1 6NP     -0.232000
     33 C29        -0.4820    1.9190   -2.4980 c3        1 6NP     -0.040000
     34 C30        -1.1410    1.9980   -3.8730 c3        1 6NP     -0.082000
     35 N5         -1.8440    0.9540   -4.1130 n3        1 6NP     -0.296000
     36 H6         -1.1740    2.9410    3.1880 ha        1 6NP      0.137500
     37 H7         -2.4600    3.1310    5.1600 ha        1 6NP      0.137500
     38 H8         -2.4100   -0.8950    5.5850 ha        1 6NP      0.164000
     39 H9         -1.1240   -1.0890    3.6140 ha        1 6NP      0.149667
     40 H4         -2.0670    0.8180    0.8850 ha        1 6NP      0.149667
     41 H101        0.1890   -1.2750   -4.4970 hc        1 6NP      0.096000
     42 H102       -0.1770   -0.0580   -5.4630 hc        1 6NP      0.096000
     43 H11        -0.3720   -0.8310   -7.4570 ha        1 6NP      0.127000
     44 H12        -1.8870   -1.6310   -9.0820 ha        1 6NP      0.137500
     45 H13        -3.6830   -3.0230   -8.4370 ha        1 6NP      0.137500
     46 H14        -3.9640   -3.6130   -6.1670 ha        1 6NP      0.137500
     47 H15        -2.4480   -2.8120   -4.5430 ha        1 6NP      0.137500
     48 H18         2.2210   -1.2800    2.8730 ha        1 6NP      0.137000
     49 H21         2.9750    2.5030    5.6190 ha        1 6NP      0.137000
     50 H22         1.5030    2.6540    3.7730 ha        1 6NP      0.149667
     51 H23         3.7320   -2.5940    4.2700 ha        1 6NP      0.137000
     52 H24         5.2040   -2.7450    6.1160 ha        1 6NP      0.137500
     53 H25         5.5910   -0.8500    7.4820 ha        1 6NP      0.137500
     54 H26         4.5050    1.1970    7.0010 ha        1 6NP      0.137000
     55 H27        -2.3770   -0.7650   -3.8380 h1        1 6NP      0.114000
     56 H281       -1.2350   -1.1230   -1.9820 h1        1 6NP      0.097500
     57 H282        0.0720   -0.4180   -2.5540 h1        1 6NP      0.097500
     58 H291        0.4540    1.6590   -2.6110 h1        1 6NP      0.093000
     59 H292       -0.5160    2.8030   -2.0810 h1        1 6NP      0.093000
     60 H301       -0.4450    2.0800   -4.5570 h1        1 6NP      0.077000
     61 H302       -1.7190    2.7890   -3.9070 h1        1 6NP      0.077000
     62 HN5        -2.1670    0.9950   -4.9690 hn        1 6NP      0.170000
@<TRIPOS>BOND
     1    1    2 1   
     2    1   32 1   
     3    3    4 1   
     4    5   12 1   
     5    6   11 1   
     6    7    8 1   
     7    7   36 1   
     8    8   37 1   
     9    9   10 1   
    10   10   38 1   
    11   11   39 1   
    12   12   40 1   
    13   13   19 1   
    14   13   30 1   
    15   13   41 1   
    16   13   42 1   
    17   14   19 1   
    18   14   43 1   
    19   15   16 1   
    20   15   44 1   
    21   16   45 1   
    22   17   18 1   
    23   17   46 1   
    24   18   47 1   
    25   20   25 1   
    26   21   22 1   
    27   21   48 1   
    28   22   26 1   
    29   23   24 1   
    30   23   29 1   
    31   24   49 1   
    32   25   50 1   
    33   26   51 1   
    34   27   28 1   
    35   27   52 1   
    36   28   53 1   
    37   29   54 1   
    38   30   31 1   
    39   30   35 1   
    40   30   55 1   
    41   31   32 1   
    42   31   56 1   
    43   31   57 1   
    44   32   33 1   
    45   33   34 1   
    46   33   58 1   
    47   33   59 1   
    48   34   35 1   
    49   34   60 1   
    50   34   61 1   
    51   35   62 1   
@<TRIPOS>SUBSTRUCTURE
     1 6NP         1 TEMP              0 ****  ****    0 ROOT
