@<TRIPOS>MOLECULE
6NP
   62    67     1     0     0
SMALL
bcc


@<TRIPOS>ATOM
      1 C1          0.7840   -0.3790   -0.3220 ca        1 6NP      0.564200
      2 N1          0.3130    0.9190   -0.5600 nb        1 6NP     -0.347000
      3 N2         -0.9140    1.1920   -0.5460 nb        1 6NP     -0.272000
      4 C2         -1.8910    0.2460   -0.3060 cp        1 6NP      0.364800
      5 C3         -1.5210   -1.0920   -0.0250 cq        1 6NP     -0.077300
      6 C5         -2.4830   -2.1410    0.3080 cq        1 6NP     -0.010000
      7 C6         -2.4900   -3.3490   -0.4060 ca        1 6NP     -0.227300
      8 C7         -3.4070   -4.3470   -0.0310 ca        1 6NP      0.392700
      9 N3         -4.2800   -4.2140    0.9860 nb        1 6NP     -0.658000
     10 C8         -4.2590   -3.0520    1.6670 ca        1 6NP      0.392700
     11 C9         -3.3860   -1.9890    1.3700 ca        1 6NP     -0.227300
     12 C4         -0.1570   -1.4110   -0.0460 ca        1 6NP     -0.235300
     13 C10         5.4050    1.3680   -0.3960 c3        1 6NP     -0.037100
     14 C11         7.7600    0.6400   -0.8490 ca        1 6NP     -0.128000
     15 C12         9.0810    0.4600   -0.4430 ca        1 6NP     -0.129500
     16 C13         9.4690    0.8050    0.8510 ca        1 6NP     -0.130000
     17 C14         8.5320    1.3310    1.7400 ca        1 6NP     -0.129500
     18 C15         7.2100    1.5120    1.3360 ca        1 6NP     -0.128000
     19 C16         6.8140    1.1670    0.0380 ca        1 6NP     -0.087300
     20 C17        -3.2920    0.6850   -0.3670 cp        1 6NP     -0.138500
     21 C18        -3.7160    1.7900    0.3400 ca        1 6NP     -0.082000
     22 C19        -5.0690    2.2190    0.2660 ca        1 6NP     -0.044000
     23 C20        -5.9800    1.5080   -0.5560 ca        1 6NP     -0.030000
     24 C21        -5.5140    0.3820   -1.2880 ca        1 6NP     -0.120000
     25 C22        -4.2060   -0.0210   -1.1970 ca        1 6NP     -0.109000
     26 C23        -5.5300    3.3500    0.9940 ca        1 6NP     -0.113000
     27 C24        -6.8420    3.7480    0.9050 ca        1 6NP     -0.129000
     28 C25        -7.7520    3.0360    0.0860 ca        1 6NP     -0.123000
     29 C26        -7.3320    1.9420   -0.6290 ca        1 6NP     -0.120000
     30 C27         4.5440    0.1250   -0.1130 c3        1 6NP      0.171500
     31 C28         3.0650    0.5000   -0.4010 c3        1 6NP      0.191800
     32 N4          2.1710   -0.6430   -0.2600 nh        1 6NP     -0.727300
     33 C29         2.6130   -1.8250   -0.9890 c3        1 6NP      0.186800
     34 C30         4.0950   -2.1630   -0.7190 c3        1 6NP      0.163800
     35 N5          4.9650   -1.0230   -0.9080 n3        1 6NP     -0.823200
     36 H6         -1.7980   -3.5130   -1.2420 ha        1 6NP      0.151000
     37 H7         -3.4450   -5.3080   -0.5740 h4        1 6NP      0.025600
     38 H8         -4.9840   -2.9670    2.4960 h4        1 6NP      0.025600
     39 H9         -3.4180   -1.0600    1.9540 ha        1 6NP      0.151000
     40 H4          0.1640   -2.4380    0.1760 ha        1 6NP      0.157000
     41 H101        5.3720    1.6120   -1.4910 hc        1 6NP      0.061700
     42 H102        4.9530    2.2330    0.1590 hc        1 6NP      0.061700
     43 H12         9.8190    0.0470   -1.1470 ha        1 6NP      0.132000
     44 H13        10.5120    0.6640    1.1700 ha        1 6NP      0.132000
     45 H14         8.8350    1.6060    2.7600 ha        1 6NP      0.132000
     46 H15         6.4740    1.9310    2.0380 ha        1 6NP      0.136000
     47 H18        -3.0150    2.3620    0.9690 ha        1 6NP      0.146000
     48 H21        -6.2240   -0.1600   -1.9310 ha        1 6NP      0.136000
     49 H22        -3.8440   -0.8920   -1.7640 ha        1 6NP      0.138000
     50 H23        -4.8150    3.8980    1.6250 ha        1 6NP      0.135000
     51 H24        -7.2020    4.6230    1.4670 ha        1 6NP      0.133000
     52 H25        -8.7970    3.3740    0.0320 ha        1 6NP      0.133000
     53 H26        -8.0310    1.3830   -1.2690 ha        1 6NP      0.134000
     54 H27         4.6290   -0.1010    0.9960 h1        1 6NP      0.031700
     55 H281        2.9980    0.9510   -1.4320 h1        1 6NP      0.061700
     56 H282        2.7630    1.2810    0.3510 h1        1 6NP      0.061700
     57 H291        2.4690   -1.6880   -2.1000 h1        1 6NP      0.046700
     58 H292        2.0010   -2.7090   -0.6620 h1        1 6NP      0.046700
     59 H301        4.1760   -2.6020    0.3190 h1        1 6NP      0.039200
     60 H302        4.4020   -2.9570   -1.4560 h1        1 6NP      0.039200
     61 HN5         5.9170   -1.2580   -0.6970 hn        1 6NP      0.375800
     62 H11         7.4550    0.3700   -1.8720 ha        1 6NP      0.136000
@<TRIPOS>BOND
     1    1    2 ar  
     2    1   12 ar  
     3    1   32 1   
     4    2    3 ar  
     5    3    4 ar  
     6    4    5 2   
     7    4   20 1   
     8    5    6 1   
     9    5   12 1   
    10    6    7 1   
    11    6   11 2   
    12    7    8 ar  
    13    7   36 1   
    14    8    9 ar  
    15    8   37 1   
    16    9   10 ar  
    17   10   11 ar  
    18   10   38 1   
    19   11   39 1   
    20   12   40 1   
    21   13   19 1   
    22   13   30 1   
    23   13   41 1   
    24   13   42 1   
    25   14   15 ar  
    26   14   19 ar  
    27   14   62 1   
    28   15   16 ar  
    29   15   43 1   
    30   16   17 ar  
    31   16   44 1   
    32   17   18 ar  
    33   17   45 1   
    34   18   19 ar  
    35   18   46 1   
    36   20   21 ar  
    37   20   25 ar  
    38   21   22 ar  
    39   21   47 1   
    40   22   23 ar  
    41   22   26 ar  
    42   23   24 ar  
    43   23   29 ar  
    44   24   25 ar  
    45   24   48 1   
    46   25   49 1   
    47   26   27 ar  
    48   26   50 1   
    49   27   28 ar  
    50   27   51 1   
    51   28   29 ar  
    52   28   52 1   
    53   29   53 1   
    54   30   31 1   
    55   30   35 1   
    56   30   54 1   
    57   31   32 1   
    58   31   55 1   
    59   31   56 1   
    60   32   33 1   
    61   33   34 1   
    62   33   57 1   
    63   33   58 1   
    64   34   35 1   
    65   34   59 1   
    66   34   60 1   
    67   35   61 1   
@<TRIPOS>SUBSTRUCTURE
     1 6NP         1 TEMP              0 ****  ****    0 ROOT
