@<TRIPOS>MOLECULE
6NP
   62    67     1     0     0
SMALL
bcc


@<TRIPOS>ATOM
      1 C1          0.2340    0.4900    0.0510 ca        1 6NP      0.558200
      2 N1          1.6330    0.4840    0.1180 nb        1 6NP     -0.346000
      3 N2          2.2430    0.3470    1.2090 nb        1 6NP     -0.274000
      4 C2          1.5940    0.1980    2.4180 cp        1 6NP      0.368800
      5 C3          0.1780    0.1610    2.4580 cq        1 6NP     -0.079300
      6 C5         -0.5880   -0.0630    3.6830 cq        1 6NP     -0.011000
      7 C6         -1.6000    0.8340    4.0590 ca        1 6NP     -0.227300
      8 C7         -2.3380    0.5640    5.2250 ca        1 6NP      0.392700
      9 N3         -2.1350   -0.5170    6.0030 nb        1 6NP     -0.657000
     10 C8         -1.1650   -1.3720    5.6270 ca        1 6NP      0.392700
     11 C9         -0.3670   -1.1920    4.4830 ca        1 6NP     -0.227300
     12 C4         -0.5130    0.3230    1.2500 ca        1 6NP     -0.230300
     13 C10         0.5540    0.5110   -4.8700 c3        1 6NP     -0.035100
     14 C11        -0.3260    1.1520   -7.1290 ca        1 6NP     -0.122000
     15 C12        -0.9060    0.8170   -8.3520 ca        1 6NP     -0.127500
     16 C13        -1.2460   -0.5070   -8.6260 ca        1 6NP     -0.131000
     17 C14        -1.0050   -1.4970   -7.6730 ca        1 6NP     -0.127500
     18 C15        -0.4250   -1.1640   -6.4500 ca        1 6NP     -0.122000
     19 C16        -0.0810    0.1640   -6.1690 ca        1 6NP     -0.069300
     20 C17         2.4230    0.0960    3.6270 cp        1 6NP     -0.140500
     21 C18         3.4660   -0.8050    3.6920 ca        1 6NP     -0.081000
     22 C19         4.2740   -0.8890    4.8580 ca        1 6NP     -0.044000
     23 C20         4.0100   -0.0260    5.9520 ca        1 6NP     -0.030000
     24 C21         2.9390    0.9050    5.8540 ca        1 6NP     -0.119000
     25 C22         2.1660    0.9660    4.7230 ca        1 6NP     -0.109000
     26 C23         5.3480   -1.8170    4.9510 ca        1 6NP     -0.113000
     27 C24         6.1170   -1.8800    6.0870 ca        1 6NP     -0.129000
     28 C25         5.8510   -1.0200    7.1800 ca        1 6NP     -0.123000
     29 C26         4.8220   -0.1130    7.1160 ca        1 6NP     -0.120000
     30 C27        -0.4350    0.4280   -3.6970 c3        1 6NP      0.163500
     31 C28         0.4020    0.5220   -2.3880 c3        1 6NP      0.150800
     32 N4         -0.4320    0.5670   -1.1950 nh        1 6NP     -0.723300
     33 C29        -1.5050    1.5490   -1.2610 c3        1 6NP      0.146800
     34 C30        -2.3040    1.4460   -2.5800 c3        1 6NP      0.154800
     35 N5         -1.5070    1.4100   -3.7850 n3        1 6NP     -0.792200
     36 H6         -1.8100    1.7290    3.4610 ha        1 6NP      0.150500
     37 H7         -3.1380    1.2500    5.5550 h4        1 6NP      0.025600
     38 H8         -1.0180   -2.2500    6.2820 h4        1 6NP      0.025600
     39 H9          0.4170   -1.9190    4.2280 ha        1 6NP      0.150500
     40 H4         -1.6120    0.2900    1.2420 ha        1 6NP      0.158000
     41 H101        1.3910   -0.2100   -4.6640 hc        1 6NP      0.053700
     42 H102        1.0030    1.5390   -4.9190 hc        1 6NP      0.053700
     43 H12        -1.0960    1.6000   -9.1000 ha        1 6NP      0.130000
     44 H13        -1.7030   -0.7710   -9.5910 ha        1 6NP      0.130000
     45 H14        -1.2730   -2.5420   -7.8860 ha        1 6NP      0.130000
     46 H15        -0.2370   -1.9460   -5.7000 ha        1 6NP      0.128500
     47 H18         3.6930   -1.4680    2.8440 ha        1 6NP      0.146000
     48 H21         2.7450    1.5770    6.7030 ha        1 6NP      0.136000
     49 H22         1.3380    1.6860    4.6450 ha        1 6NP      0.137000
     50 H23         5.5480   -2.4790    4.0960 ha        1 6NP      0.135000
     51 H24         6.9490   -2.5960    6.1620 ha        1 6NP      0.133000
     52 H25         6.4820   -1.0890    8.0790 ha        1 6NP      0.133000
     53 H26         4.6080    0.5600    7.9590 ha        1 6NP      0.134000
     54 H27        -0.9330   -0.5880   -3.7250 h1        1 6NP      0.077700
     55 H281        1.0770    1.4240   -2.4530 h1        1 6NP      0.057200
     56 H282        1.0500   -0.3970   -2.3280 h1        1 6NP      0.057200
     57 H291       -2.2180    1.3700   -0.4100 h1        1 6NP      0.042700
     58 H292       -1.0990    2.5970   -1.1590 h1        1 6NP      0.042700
     59 H301       -2.9250    0.5060   -2.5560 h1        1 6NP      0.063700
     60 H302       -3.0010    2.3270   -2.6290 h1        1 6NP      0.063700
     61 HN5        -1.1270    2.3180   -3.9850 hn        1 6NP      0.352800
     62 H11        -0.0640    2.1990   -6.9160 ha        1 6NP      0.128500
@<TRIPOS>BOND
     1    1    2 ar  
     2    1   12 ar  
     3    1   32 1   
     4    2    3 ar  
     5    3    4 ar  
     6    4    5 2   
     7    4   20 1   
     8    5    6 1   
     9    5   12 1   
    10    6    7 1   
    11    6   11 2   
    12    7    8 ar  
    13    7   36 1   
    14    8    9 ar  
    15    8   37 1   
    16    9   10 ar  
    17   10   11 ar  
    18   10   38 1   
    19   11   39 1   
    20   12   40 1   
    21   13   19 1   
    22   13   30 1   
    23   13   41 1   
    24   13   42 1   
    25   14   15 ar  
    26   14   19 ar  
    27   14   62 1   
    28   15   16 ar  
    29   15   43 1   
    30   16   17 ar  
    31   16   44 1   
    32   17   18 ar  
    33   17   45 1   
    34   18   19 ar  
    35   18   46 1   
    36   20   21 ar  
    37   20   25 ar  
    38   21   22 ar  
    39   21   47 1   
    40   22   23 ar  
    41   22   26 ar  
    42   23   24 ar  
    43   23   29 ar  
    44   24   25 ar  
    45   24   48 1   
    46   25   49 1   
    47   26   27 ar  
    48   26   50 1   
    49   27   28 ar  
    50   27   51 1   
    51   28   29 ar  
    52   28   52 1   
    53   29   53 1   
    54   30   31 1   
    55   30   35 1   
    56   30   54 1   
    57   31   32 1   
    58   31   55 1   
    59   31   56 1   
    60   32   33 1   
    61   33   34 1   
    62   33   57 1   
    63   33   58 1   
    64   34   35 1   
    65   34   59 1   
    66   34   60 1   
    67   35   61 1   
@<TRIPOS>SUBSTRUCTURE
     1 6NP         1 TEMP              0 ****  ****    0 ROOT
