@<TRIPOS>MOLECULE
6NT
   16    17     1     0     0
SMALL
bcc


@<TRIPOS>ATOM
      1 O21         3.3770   -0.6990    0.0010 o         1 6NT     -0.201000
      2 NO1         2.5960    0.2120    0.0020 no        1 6NT      0.311200
      3 O11         2.9490    1.3610    0.0030 o         1 6NT     -0.201000
      4 C5          1.1360   -0.0890    0.0010 ca        1 6NT     -0.145200
      5 C6          0.7230   -1.4440   -0.0000 ca        1 6NT     -0.104000
      6 C7         -0.6220   -1.7820   -0.0010 ca        1 6NT     -0.052000
      7 C7A        -1.5580   -0.7450   -0.0000 ca        1 6NT      0.046400
      8 N1         -2.9850   -0.7040   -0.0010 nc        1 6NT     -0.211400
      9 C3A        -1.1180    0.6390    0.0010 ca        1 6NT     -0.088200
     10 C4          0.2340    0.9820    0.0020 ca        1 6NT     -0.062000
     11 N3         -2.3220    1.3620    0.0010 na        1 6NT     -0.052100
     12 N2         -3.3610    0.5030    0.0000 nd        1 6NT     -0.111400
     13 H6          1.4880   -2.2400   -0.0010 ha        1 6NT      0.178000
     14 H4          0.5780    2.0290    0.0020 ha        1 6NT      0.182000
     15 H7         -0.9450   -2.8340   -0.0020 ha        1 6NT      0.170000
     16 H3         -2.4450    2.3470    0.0020 hn        1 6NT      0.340700
@<TRIPOS>BOND
     1    1    2 1   
     2    2    3 1   
     3    2    4 1   
     4    4    5 ar  
     5    4   10 ar  
     6    5    6 ar  
     7    5   13 1   
     8    6    7 ar  
     9    6   15 1   
    10    7    8 1   
    11    7    9 ar  
    12    8   12 2   
    13    9   10 ar  
    14    9   11 1   
    15   10   14 1   
    16   11   12 1   
    17   11   16 1   
@<TRIPOS>SUBSTRUCTURE
     1 6NT         1 TEMP              0 ****  ****    0 ROOT
