@<TRIPOS>MOLECULE
6NT
   16    17     1     0     0
SMALL
bcc


@<TRIPOS>ATOM
      1 O21        -0.0050    0.0070   -0.0240 o         1 6NT     -0.201000
      2 NO1         1.1950    0.0130    0.0150 no        1 6NT      0.311200
      3 O11         1.8040    0.0260    1.0510 o         1 6NT     -0.201000
      4 C5          1.9580    0.0020   -1.2660 ca        1 6NT     -0.145200
      5 C6          1.2370   -0.0140   -2.4850 ca        1 6NT     -0.104000
      6 C7          1.8950   -0.0250   -3.7060 ca        1 6NT     -0.052000
      7 C7A         3.2920   -0.0190   -3.6970 ca        1 6NT      0.046400
      8 N1          4.2850   -0.0260   -4.7220 nc        1 6NT     -0.211400
      9 C3A         4.0160   -0.0030   -2.4380 ca        1 6NT     -0.088200
     10 C4          3.3560    0.0080   -1.2090 ca        1 6NT     -0.062000
     11 N3          5.3620   -0.0020   -2.8390 na        1 6NT     -0.052100
     12 N2          5.4290   -0.0160   -4.1850 nd        1 6NT     -0.111400
     13 H6          0.1320   -0.0180   -2.4580 ha        1 6NT      0.178000
     14 H4          3.8970    0.0210   -0.2490 ha        1 6NT      0.182000
     15 H7          1.3360   -0.0370   -4.6540 ha        1 6NT      0.170000
     16 H3          6.1710    0.0080   -2.2650 hn        1 6NT      0.340700
@<TRIPOS>BOND
     1    1    2 1   
     2    2    3 1   
     3    2    4 1   
     4    4    5 ar  
     5    4   10 ar  
     6    5    6 ar  
     7    5   13 1   
     8    6    7 ar  
     9    6   15 1   
    10    7    8 1   
    11    7    9 ar  
    12    8   12 2   
    13    9   10 ar  
    14    9   11 1   
    15   10   14 1   
    16   11   12 1   
    17   11   16 1   
@<TRIPOS>SUBSTRUCTURE
     1 6NT         1 TEMP              0 ****  ****    0 ROOT
