@<TRIPOS>MOLECULE
6NT
   16    12     1     0     0
SMALL
bcc


@<TRIPOS>ATOM
      1 O21        -1.6490    1.0610    2.8830 o         1 6NT     -0.482700
      2 NO1        -1.6800   -0.0500    2.0900 no        1 6NT      0.829400
      3 O11        -2.3340   -1.0250    2.4300 o         1 6NT     -0.482700
      4 C5         -0.9570   -0.0710    0.8700 c2        1 6NT     -0.100000
      5 C6         -1.5990    0.0090   -0.3570 c1        1 6NT     -0.104000
      6 C7         -0.8560    0.0730   -1.5250 c1        1 6NT     -0.052000
      7 C7A         0.5510    0.0570   -1.4670 c1        1 6NT     -0.093000
      8 N1          1.5010    0.1050   -2.4340 n1        1 6NT     -0.149500
      9 C3A         1.1830   -0.0220   -0.2580 c1        1 6NT     -0.043000
     10 C4          0.4280   -0.0870    0.9280 c2        1 6NT     -0.062000
     11 N3          2.5210   -0.0220   -0.4850 n1        1 6NT     -0.149500
     12 N2          2.7200    0.0560   -1.8300 n2        1 6NT      0.068000
     13 H6         -2.5740    0.0090   -0.3980 ha        1 6NT      0.178000
     14 H4          0.8800   -0.1550    1.7910 ha        1 6NT      0.182000
     15 H7         -1.3080    0.1290   -2.3890 ha        1 6NT      0.170000
     16 H3          3.1730   -0.0660    0.1510 DU        1 6NT      0.291000
@<TRIPOS>BOND
     1    1    2 2   
     2    2    3 2   
     3    2    4 1   
     4    4    5 1   
     5    4   10 1   
     6    5   13 1   
     7    6    7 1   
     8    6   15 1   
     9    8   12 1   
    10    9   10 1   
    11   10   14 1   
    12   11   12 1   
@<TRIPOS>SUBSTRUCTURE
     1 6NT         1 TEMP              0 ****  ****    0 ROOT
