@<TRIPOS>MOLECULE
6NX
   29    29     1     0     0
SMALL
bcc


@<TRIPOS>ATOM
      1 C1          0.0680    0.4670    0.4680 c3        1 6NX      0.081100
      2 N2          1.5580    0.4480    0.3130 ny        1 6NX     -0.641800
      3 C3          2.1760   -0.6870    1.0780 c         1 6NX      0.482100
      4 O4          1.4740   -1.4610    1.7060 o         1 6NX     -0.277100
      5 N5          3.6530   -0.8350    1.0670 ny        1 6NX     -0.667800
      6 C6          4.3010   -0.2910    2.3660 c3        1 6NX      0.140500
      7 C7          5.7330   -0.8260    2.4630 c3        1 6NX     -0.108900
      8 C8          6.3370   -0.3410    3.7740 c3        1 6NX     -0.078400
      9 C9          6.3060    1.1670    3.8740 c3        1 6NX     -0.101400
     10 C10         4.9030    1.7050    3.7040 c3        1 6NX     -0.078400
     11 C11         4.2820    1.2320    2.3940 c3        1 6NX     -0.108900
     12 H11C       -0.2020    0.5910    1.5540 hx        1 6NX      0.146033
     13 H12C       -0.3260    1.3380   -0.1320 hx        1 6NX      0.146033
     14 H13C       -0.3690   -0.4960    0.0800 hx        1 6NX      0.146033
     15 H2          1.7830    0.3550   -0.6920 hn        1 6NX      0.494800
     16 H5          4.0980   -0.3800    0.2600 hn        1 6NX      0.495300
     17 H6          3.6780   -0.7150    3.2130 hx        1 6NX      0.132700
     18 H71C        5.7450   -1.9480    2.4490 hc        1 6NX      0.067450
     19 H72C        6.3540   -0.4480    1.6080 hc        1 6NX      0.067450
     20 H111        3.2320    1.6200    2.3340 hc        1 6NX      0.067450
     21 H112        4.8770    1.6550    1.5410 hc        1 6NX      0.067450
     22 H81C        5.7870   -0.7990    4.6390 hc        1 6NX      0.089450
     23 H82C        7.4000   -0.7050    3.8220 hc        1 6NX      0.089450
     24 H91C        6.7000    1.4790    4.8800 hc        1 6NX      0.089700
     25 H92C        6.9860    1.6170    3.1020 hc        1 6NX      0.089700
     26 H101        4.9230    2.8280    3.7010 hc        1 6NX      0.089450
     27 H102        4.2590    1.3810    4.5650 hc        1 6NX      0.089450
     28 H22         1.9420    1.3460    0.6580 hn        1 6NX      0.494800
     29 H52         3.8630   -1.8540    1.0260 hn        1 6NX      0.495300
@<TRIPOS>BOND
     1    1    2 1   
     2    1   12 1   
     3    1   13 1   
     4    1   14 1   
     5    2    3 1   
     6    2   15 1   
     7    2   28 1   
     8    3    4 2   
     9    3    5 1   
    10    5    6 1   
    11    5   16 1   
    12    5   29 1   
    13    6    7 1   
    14    6   11 1   
    15    6   17 1   
    16    7    8 1   
    17    7   18 1   
    18    7   19 1   
    19    8    9 1   
    20    8   22 1   
    21    8   23 1   
    22    9   10 1   
    23    9   24 1   
    24    9   25 1   
    25   10   11 1   
    26   10   26 1   
    27   10   27 1   
    28   11   20 1   
    29   11   21 1   
@<TRIPOS>SUBSTRUCTURE
     1 6NX         1 TEMP              0 ****  ****    0 ROOT
