@<TRIPOS>MOLECULE
6NX
   29    29     1     0     0
SMALL
bcc


@<TRIPOS>ATOM
      1 C1          0.0690    0.4620    0.4640 c3        1 6NX      0.081100
      2 N2          1.5600    0.4570    0.3120 n4        1 6NX     -0.641800
      3 C3          2.1850   -0.6840    1.0620 c         1 6NX      0.482100
      4 O4          1.4880   -1.4720    1.6780 o         1 6NX     -0.277100
      5 N5          3.6630   -0.8210    1.0510 n4        1 6NX     -0.667800
      6 C6          4.3040   -0.2910    2.3590 c3        1 6NX      0.140500
      7 C7          5.7410   -0.8160    2.4510 c3        1 6NX     -0.108900
      8 C8          6.3380   -0.3450    3.7690 c3        1 6NX     -0.078400
      9 C9          6.2970    1.1610    3.8910 c3        1 6NX     -0.101400
     10 C10         4.8890    1.6900    3.7270 c3        1 6NX     -0.078400
     11 C11         4.2740    1.2320    2.4090 c3        1 6NX     -0.108900
     12 H11C       -0.3600   -0.4990    0.0620 hx        1 6NX      0.146033
     13 H12C       -0.2040    0.5680    1.5510 hx        1 6NX      0.146033
     14 H13C       -0.3310    1.3390   -0.1230 hx        1 6NX      0.146033
     15 H2          1.7870    0.3800   -0.6940 hn        1 6NX      0.494800
     16 H5          4.1060   -0.3520    0.2520 hn        1 6NX      0.495300
     17 H6          3.6830   -0.7320    3.1990 hx        1 6NX      0.132700
     18 H71C        5.7610   -1.9380    2.4210 hc        1 6NX      0.067450
     19 H72C        6.3600   -0.4210    1.6020 hc        1 6NX      0.067450
     20 H111        3.2210    1.6120    2.3520 hc        1 6NX      0.067450
     21 H112        4.8680    1.6710    1.5620 hc        1 6NX      0.067450
     22 H81C        7.4040   -0.7020    3.8140 hc        1 6NX      0.089450
     23 H82C        5.7910   -0.8200    4.6270 hc        1 6NX      0.089450
     24 H91C        6.6860    1.4610    4.9030 hc        1 6NX      0.089700
     25 H92C        6.9740    1.6270    3.1270 hc        1 6NX      0.089700
     26 H101        4.2470    1.3500    4.5810 hc        1 6NX      0.089450
     27 H102        4.9010    2.8140    3.7390 hc        1 6NX      0.089450
     28 H22         1.9360    1.3530    0.6710 hn        1 6NX      0.494800
     29 H52         3.8810   -1.8380    0.9960 hn        1 6NX      0.495300
@<TRIPOS>BOND
     1    1    2 1   
     2    1   12 1   
     3    1   13 1   
     4    1   14 1   
     5    2    3 1   
     6    2   15 1   
     7    2   28 1   
     8    3    4 2   
     9    3    5 1   
    10    5    6 1   
    11    5   16 1   
    12    5   29 1   
    13    6    7 1   
    14    6   11 1   
    15    6   17 1   
    16    7    8 1   
    17    7   18 1   
    18    7   19 1   
    19    8    9 1   
    20    8   22 1   
    21    8   23 1   
    22    9   10 1   
    23    9   24 1   
    24    9   25 1   
    25   10   11 1   
    26   10   26 1   
    27   10   27 1   
    28   11   20 1   
    29   11   21 1   
@<TRIPOS>SUBSTRUCTURE
     1 6NX         1 TEMP              0 ****  ****    0 ROOT
