@<TRIPOS>MOLECULE
6NZ
   37    38     1     0     0
SMALL
bcc


@<TRIPOS>ATOM
      1 C1         -0.0630   -0.2020    0.0040 c3        1 6NZ     -0.091100
      2 C2          1.4440   -0.1730   -0.0070 c3        1 6NZ     -0.079400
      3 C3          1.9980    0.0380    1.3900 c3        1 6NZ     -0.025200
      4 C4          3.4830    0.0740    1.3960 cc        1 6NZ     -0.191400
      5 C5          4.1950    1.2290    1.5260 cd        1 6NZ     -0.039000
      6 C6          5.6280    1.2170    1.5350 cd        1 6NZ     -0.184200
      7 C7          6.2740    0.0070    1.4100 cc        1 6NZ      0.004600
      8 N8          5.5870   -1.1740    1.2790 ns        1 6NZ     -0.437100
      9 C10         4.1790   -1.2140    1.2640 c         1 6NZ      0.683700
     10 O11         3.6310   -2.3290    1.1450 o         1 6NZ     -0.646500
     11 C12         6.4030    2.4820    1.6770 c3        1 6NZ     -0.003500
     12 C13         6.1190    3.4330    0.5170 c3        1 6NZ     -0.071400
     13 C14         6.9050    4.7190    0.6630 c3        1 6NZ     -0.077400
     14 C15         6.6240    5.3920    1.9910 c3        1 6NZ     -0.077400
     15 C16         6.8880    4.4510    3.1490 c3        1 6NZ     -0.077400
     16 C17         6.1020    3.1650    3.0070 c3        1 6NZ     -0.071400
     17 HN8         6.0850   -2.0320    1.1920 hn        1 6NZ      0.332500
     18 H1         -0.4530   -0.3610   -1.0300 hc        1 6NZ      0.032700
     19 H1A        -0.4750    0.7600    0.3930 hc        1 6NZ      0.032700
     20 H1B        -0.4360   -1.0310    0.6530 hc        1 6NZ      0.032700
     21 H2          1.8410   -1.1430   -0.4110 hc        1 6NZ      0.048200
     22 H2A         1.8020    0.6460   -0.6830 hc        1 6NZ      0.048200
     23 H3          1.6530   -0.8030    2.0510 hc        1 6NZ      0.053700
     24 H3A         1.5930    0.9950    1.8140 hc        1 6NZ      0.053700
     25 H5          3.6810    2.1980    1.6280 ha        1 6NZ      0.142000
     26 H7          7.3770   -0.0710    1.4090 h4        1 6NZ      0.150000
     27 H12         7.5050    2.2390    1.6580 hc        1 6NZ      0.046700
     28 H13         5.0220    3.6640    0.4840 hc        1 6NZ      0.043200
     29 H13A        6.3880    2.9330   -0.4490 hc        1 6NZ      0.043200
     30 H14         6.6390    5.4150   -0.1740 hc        1 6NZ      0.040200
     31 H14A        8.0020    4.4980    0.5810 hc        1 6NZ      0.040200
     32 H15         7.2680    6.3040    2.0940 hc        1 6NZ      0.040200
     33 H15A        5.5550    5.7280    2.0200 hc        1 6NZ      0.040200
     34 H16         7.9840    4.2160    3.1970 hc        1 6NZ      0.040200
     35 H16A        6.6090    4.9530    4.1120 hc        1 6NZ      0.040200
     36 H17         5.0040    3.3850    3.0740 hc        1 6NZ      0.043200
     37 H17A        6.3590    2.4700    3.8490 hc        1 6NZ      0.043200
@<TRIPOS>BOND
     1    1    2 1   
     2    1   18 1   
     3    1   19 1   
     4    1   20 1   
     5    2    3 1   
     6    2   21 1   
     7    2   22 1   
     8    3    4 1   
     9    3   23 1   
    10    3   24 1   
    11    4    5 2   
    12    4    9 1   
    13    5    6 1   
    14    5   25 1   
    15    6    7 2   
    16    6   11 1   
    17    7    8 1   
    18    7   26 1   
    19    8    9 1   
    20    8   17 1   
    21    9   10 2   
    22   11   12 1   
    23   11   16 1   
    24   11   27 1   
    25   12   13 1   
    26   12   28 1   
    27   12   29 1   
    28   13   14 1   
    29   13   30 1   
    30   13   31 1   
    31   14   15 1   
    32   14   32 1   
    33   14   33 1   
    34   15   16 1   
    35   15   34 1   
    36   15   35 1   
    37   16   36 1   
    38   16   37 1   
@<TRIPOS>SUBSTRUCTURE
     1 6NZ         1 TEMP              0 ****  ****    0 ROOT
