@<TRIPOS>MOLECULE
6NZ
   37    38     1     0     0
SMALL
bcc


@<TRIPOS>ATOM
      1 C1         -0.0740   -0.1770    0.0050 c3        1 6NZ     -0.091100
      2 C2          1.4330   -0.1570   -0.0050 c3        1 6NZ     -0.079400
      3 C3          1.9880    0.0550    1.3920 c3        1 6NZ     -0.025200
      4 C4          3.4730    0.0820    1.3980 cc        1 6NZ     -0.191400
      5 C5          4.1920    1.2320    1.5270 cd        1 6NZ     -0.039000
      6 C6          5.6250    1.2110    1.5370 cd        1 6NZ     -0.184200
      7 C7          6.2630   -0.0030    1.4150 cc        1 6NZ      0.004600
      8 N8          5.5680   -1.1800    1.2860 n         1 6NZ     -0.437100
      9 C10         4.1610   -1.2120    1.2700 c         1 6NZ      0.683700
     10 O11         3.6060   -2.3230    1.1530 o         1 6NZ     -0.646500
     11 C12         6.4070    2.4720    1.6770 c3        1 6NZ     -0.003500
     12 C13         6.1290    3.4220    0.5150 c3        1 6NZ     -0.071400
     13 C14         6.9230    4.7040    0.6590 c3        1 6NZ     -0.077400
     14 C15         6.6460    5.3810    1.9850 c3        1 6NZ     -0.077400
     15 C16         6.9030    4.4410    3.1460 c3        1 6NZ     -0.077400
     16 C17         6.1090    3.1590    3.0060 c3        1 6NZ     -0.071400
     17 HN8         6.0620   -2.0410    1.2010 hn        1 6NZ      0.332500
     18 H1         -0.4800    0.7890    0.3910 hc        1 6NZ      0.032700
     19 H1A        -0.4530   -1.0020    0.6550 hc        1 6NZ      0.032700
     20 H1B        -0.4640   -0.3360   -1.0290 hc        1 6NZ      0.032700
     21 H2          1.8240   -1.1310   -0.4060 hc        1 6NZ      0.048200
     22 H2A         1.7970    0.6580   -0.6830 hc        1 6NZ      0.048200
     23 H3          1.5880    1.0150    1.8130 hc        1 6NZ      0.053700
     24 H3A         1.6360   -0.7830    2.0550 hc        1 6NZ      0.053700
     25 H5          3.6840    2.2050    1.6260 ha        1 6NZ      0.142000
     26 H7          7.3650   -0.0870    1.4150 h4        1 6NZ      0.150000
     27 H12         7.5080    2.2220    1.6590 hc        1 6NZ      0.046700
     28 H13         6.3960    2.9190   -0.4500 hc        1 6NZ      0.043200
     29 H13A        5.0340    3.6590    0.4810 hc        1 6NZ      0.043200
     30 H14         8.0190    4.4760    0.5780 hc        1 6NZ      0.040200
     31 H14A        6.6620    5.3990   -0.1800 hc        1 6NZ      0.040200
     32 H15         7.2940    6.2890    2.0870 hc        1 6NZ      0.040200
     33 H15A        5.5780    5.7240    2.0130 hc        1 6NZ      0.040200
     34 H16         7.9980    4.2000    3.1950 hc        1 6NZ      0.040200
     35 H16A        6.6270    4.9470    4.1070 hc        1 6NZ      0.040200
     36 H17         5.0130    3.3860    3.0710 hc        1 6NZ      0.043200
     37 H17A        6.3610    2.4650    3.8490 hc        1 6NZ      0.043200
@<TRIPOS>BOND
     1    1    2 1   
     2    1   18 1   
     3    1   19 1   
     4    1   20 1   
     5    2    3 1   
     6    2   21 1   
     7    2   22 1   
     8    3    4 1   
     9    3   23 1   
    10    3   24 1   
    11    4    5 2   
    12    4    9 1   
    13    5    6 1   
    14    5   25 1   
    15    6    7 2   
    16    6   11 1   
    17    7    8 1   
    18    7   26 1   
    19    8    9 1   
    20    8   17 1   
    21    9   10 2   
    22   11   12 1   
    23   11   16 1   
    24   11   27 1   
    25   12   13 1   
    26   12   28 1   
    27   12   29 1   
    28   13   14 1   
    29   13   30 1   
    30   13   31 1   
    31   14   15 1   
    32   14   32 1   
    33   14   33 1   
    34   15   16 1   
    35   15   34 1   
    36   15   35 1   
    37   16   36 1   
    38   16   37 1   
@<TRIPOS>SUBSTRUCTURE
     1 6NZ         1 TEMP              0 ****  ****    0 ROOT
