@<TRIPOS>MOLECULE
6O5
   17    17     1     0     0
SMALL
bcc


@<TRIPOS>ATOM
      1 CAE         0.0350   -0.3690    0.0590 cc        1 6O5     -0.302300
      2 CAC         1.4360   -0.0330   -0.0460 cc        1 6O5     -0.261300
      3 CAD         1.8300    0.4120    1.1980 cd        1 6O5      0.192600
      4 OAH         0.7540    0.3750    2.0850 os        1 6O5     -0.376800
      5 CAJ        -0.3480   -0.1100    1.3650 cd        1 6O5      0.306000
      6 CAG        -1.6160   -0.2100    2.1070 c3        1 6O5     -0.119700
      7 CAF        -2.4240   -1.4290    1.7260 c3        1 6O5     -0.194400
      8 CAI        -3.8730   -1.3150    2.2410 c         1 6O5      0.909600
      9 OAB        -4.4640   -2.3880    2.5500 o         1 6O5     -0.846800
     10 OAA        -4.4010   -0.1680    2.3100 o         1 6O5     -0.846800
     11 H1         -0.5920   -0.7560   -0.7390 ha        1 6O5      0.160000
     12 H2          2.0420   -0.1220   -0.9410 ha        1 6O5      0.140000
     13 H3          2.7560    0.7720    1.6310 h4        1 6O5      0.032100
     14 H4         -2.2380    0.7080    1.8970 hc        1 6O5      0.076200
     15 H5         -1.4080   -0.2200    3.2100 hc        1 6O5      0.076200
     16 H6         -2.4680   -1.5330    0.6130 hc        1 6O5      0.028200
     17 H7         -1.9570   -2.3560    2.1410 hc        1 6O5      0.028200
@<TRIPOS>BOND
     1    1    2 1   
     2    1    5 2   
     3    1   11 1   
     4    2    3 2   
     5    2   12 1   
     6    3    4 1   
     7    3   13 1   
     8    4    5 1   
     9    5    6 1   
    10    6    7 1   
    11    6   14 1   
    12    6   15 1   
    13    7    8 1   
    14    7   16 1   
    15    7   17 1   
    16    8    9 1   
    17    8   10 1   
@<TRIPOS>SUBSTRUCTURE
     1 6O5         1 TEMP              0 ****  ****    0 ROOT
