@<TRIPOS>MOLECULE
6OA
   17    16     1     0     0
SMALL
bcc


@<TRIPOS>ATOM
      1 O3          0.2240    0.7250    0.1450 oh        1 6OA     -0.624800
      2 C5          1.1390   -0.2230    0.6830 c3        1 6OA      0.177600
      3 C4          2.5440    0.2440    0.5930 c2        1 6OA     -0.317200
      4 C3          3.5440   -0.1650    1.3910 ce        1 6OA     -0.032000
      5 C2          3.4360   -1.0990    2.4740 ce        1 6OA     -0.280000
      6 C1          4.4680   -1.4710    3.2690 cf        1 6OA      0.063900
      7 O2          5.7170   -0.9490    3.0600 oh        1 6OA     -0.543100
      8 C           4.3610   -2.4620    4.4300 c         1 6OA      0.887800
      9 O1          3.2520   -2.9850    4.6970 o         1 6OA     -0.812800
     10 O           5.4490   -2.6740    5.0460 o         1 6OA     -0.812800
     11 H5          0.4140    1.5680    0.5700 ho        1 6OA      0.391000
     12 H4          2.7360    0.9650   -0.2160 ha        1 6OA      0.105000
     13 H3          4.5600    0.2410    1.2210 ha        1 6OA      0.114000
     14 H2          2.4560   -1.5560    2.6890 ha        1 6OA      0.147000
     15 H1          6.3050   -1.3480    3.7340 ho        1 6OA      0.448000
     16 H6          0.8480   -0.4510    1.7450 h1        1 6OA      0.044700
     17 H7          0.9800   -1.1430    0.0560 h1        1 6OA      0.044700
@<TRIPOS>BOND
     1    1    2 1   
     2    1   11 1   
     3    2    3 1   
     4    2   16 1   
     5    2   17 1   
     6    3    4 2   
     7    3   12 1   
     8    4    5 1   
     9    4   13 1   
    10    5    6 2   
    11    5   14 1   
    12    6    7 1   
    13    6    8 1   
    14    7   15 1   
    15    8    9 1   
    16    8   10 1   
@<TRIPOS>SUBSTRUCTURE
     1 6OA         1 TEMP              0 ****  ****    0 ROOT
