@<TRIPOS>MOLECULE
6OB
   51    50     1     0     0
SMALL
bcc


@<TRIPOS>ATOM
      1 C10         1.8120   -0.9360    0.3070 c3        1 6OB      0.181300
      2 C18        -6.9260   -3.6550   -1.4800 c3        1 6OB     -0.092100
      3 C17        -6.2400   -2.3780   -1.0700 c3        1 6OB     -0.079400
      4 C16        -4.7440   -2.5700   -0.9340 c3        1 6OB     -0.080400
      5 C15        -4.0590   -1.2850   -0.5210 c3        1 6OB     -0.076400
      6 C14        -2.5630   -1.4820   -0.3880 c3        1 6OB     -0.049200
      7 C13        -1.8680   -0.2380    0.0220 c2        1 6OB     -0.179200
      8 C12        -0.5690   -0.1790    0.3350 c2        1 6OB     -0.163200
      9 C11         0.3370   -1.3500    0.3300 c3        1 6OB     -0.081200
     10 C9          2.2560   -0.3480    1.6070 c2        1 6OB     -0.200200
     11 C8          2.4520   -0.9630    2.7760 c2        1 6OB     -0.142200
     12 C7          2.2380   -2.3970    3.0820 c3        1 6OB     -0.170200
     13 C6          3.5500   -3.1490    3.1130 c         1 6OB      0.579100
     14 O3          3.9020   -3.8260    2.1390 o         1 6OB     -0.555100
     15 C5          4.3660   -3.0150    4.3610 c3        1 6OB     -0.178400
     16 C4          3.8160   -3.8680    5.4890 c3        1 6OB     -0.071400
     17 C3          4.5020   -3.5360    6.7980 c3        1 6OB     -0.068400
     18 C2          3.9490   -4.3460    7.9440 c3        1 6OB     -0.197400
     19 C1          4.3690   -3.7520    9.3020 c         1 6OB      0.909600
     20 O1          4.3370   -2.4940    9.4430 o         1 6OB     -0.849300
     21 O2          4.7040   -4.5570   10.2160 o         1 6OB     -0.849300
     22 OXT         2.6150   -2.0150   -0.1390 oh        1 6OB     -0.603800
     23 H10         1.9530   -0.1640   -0.5090 h1        1 6OB      0.066700
     24 H111        0.1260   -1.9820    1.2330 hc        1 6OB      0.058700
     25 H112        0.1420   -1.9920   -0.5730 hc        1 6OB      0.058700
     26 H9          2.4360    0.7410    1.5500 ha        1 6OB      0.122000
     27 H181       -8.0270   -3.4920   -1.5740 hc        1 6OB      0.031367
     28 H182       -6.7520   -4.4570   -0.7220 hc        1 6OB      0.031367
     29 H183       -6.5370   -4.0140   -2.4630 hc        1 6OB      0.031367
     30 H171       -6.4460   -1.5780   -1.8290 hc        1 6OB      0.037200
     31 H172       -6.6600   -2.0210   -0.0920 hc        1 6OB      0.037200
     32 H161       -4.5360   -3.3690   -0.1740 hc        1 6OB      0.040700
     33 H162       -4.3210   -2.9250   -1.9100 hc        1 6OB      0.040700
     34 H151       -4.4800   -0.9310    0.4570 hc        1 6OB      0.039700
     35 H152       -4.2680   -0.4860   -1.2800 hc        1 6OB      0.039700
     36 H141       -2.1420   -1.8370   -1.3690 hc        1 6OB      0.049200
     37 H142       -2.3560   -2.2930    0.3640 hc        1 6OB      0.049200
     38 H13        -2.4900    0.6710    0.0580 ha        1 6OB      0.118000
     39 H12        -0.1120    0.7780    0.6350 ha        1 6OB      0.122000
     40 HA          2.8050   -0.3730    3.6420 ha        1 6OB      0.132000
     41 HA1         1.7470   -2.4870    4.0900 hc        1 6OB      0.073200
     42 HB2         1.5570   -2.8800    2.3310 hc        1 6OB      0.073200
     43 HB1         5.4270   -3.3140    4.1520 hc        1 6OB      0.067700
     44 HC2         4.3670   -1.9360    4.6740 hc        1 6OB      0.067700
     45 HC1         2.7130   -3.6950    5.5960 hc        1 6OB      0.034200
     46 HD2         3.9620   -4.9520    5.2450 hc        1 6OB      0.034200
     47 HD1         4.3690   -2.4460    7.0370 hc        1 6OB      0.048700
     48 HE2         5.6040   -3.7220    6.7020 hc        1 6OB      0.048700
     49 HE1         2.8300   -4.3480    7.9100 hc        1 6OB      0.021200
     50 HF2         4.2960   -5.4070    7.8800 hc        1 6OB      0.021200
     51 HOT         2.7540   -2.6260    0.5980 ho        1 6OB      0.422000
@<TRIPOS>BOND
     1    1    9 1   
     2    1   10 1   
     3    1   22 1   
     4    1   23 1   
     5    2    3 1   
     6    2   27 1   
     7    2   28 1   
     8    2   29 1   
     9    3    4 1   
    10    3   30 1   
    11    3   31 1   
    12    4    5 1   
    13    4   32 1   
    14    4   33 1   
    15    5    6 1   
    16    5   34 1   
    17    5   35 1   
    18    6    7 1   
    19    6   36 1   
    20    6   37 1   
    21    7    8 2   
    22    7   38 1   
    23    8    9 1   
    24    8   39 1   
    25    9   24 1   
    26    9   25 1   
    27   10   11 2   
    28   10   26 1   
    29   11   12 1   
    30   11   40 1   
    31   12   13 1   
    32   12   41 1   
    33   12   42 1   
    34   13   14 2   
    35   13   15 1   
    36   15   16 1   
    37   15   43 1   
    38   15   44 1   
    39   16   17 1   
    40   16   45 1   
    41   16   46 1   
    42   17   18 1   
    43   17   47 1   
    44   17   48 1   
    45   18   19 1   
    46   18   49 1   
    47   18   50 1   
    48   19   20 1   
    49   19   21 1   
    50   22   51 1   
@<TRIPOS>SUBSTRUCTURE
     1 6OB         1 TEMP              0 ****  ****    0 ROOT
