@<TRIPOS>MOLECULE
6OB
   51    50     1     0     0
SMALL
bcc


@<TRIPOS>ATOM
      1 C10         1.8290   -1.0110    0.2900 c3        1 6OB      0.181300
      2 C18        -6.9880   -3.4920   -1.4510 c3        1 6OB     -0.092100
      3 C17        -6.2640   -2.2320   -1.0500 c3        1 6OB     -0.079400
      4 C16        -4.7750   -2.4660   -0.9150 c3        1 6OB     -0.080400
      5 C15        -4.0520   -1.1990   -0.5120 c3        1 6OB     -0.076400
      6 C14        -2.5620   -1.4380   -0.3790 c3        1 6OB     -0.049200
      7 C13        -1.8310   -0.2120    0.0200 c2        1 6OB     -0.179200
      8 C12        -0.5300   -0.1880    0.3300 c2        1 6OB     -0.163200
      9 C11         0.3430   -1.3830    0.3300 c3        1 6OB     -0.081200
     10 C9          2.3000   -0.4190    1.5780 c2        1 6OB     -0.200200
     11 C8          2.4900   -1.0250    2.7520 c2        1 6OB     -0.142200
     12 C7          2.2400   -2.4480    3.0790 c3        1 6OB     -0.170200
     13 C6          3.5310   -3.2360    3.1070 c         1 6OB      0.579100
     14 O3          3.8540   -3.9350    2.1390 o         1 6OB     -0.555100
     15 C5          4.3640   -3.1070    4.3450 c3        1 6OB     -0.178400
     16 C4          3.8030   -3.9290    5.4900 c3        1 6OB     -0.071400
     17 C3          4.5120   -3.5990    6.7870 c3        1 6OB     -0.068400
     18 C2          3.9490   -4.3780    7.9500 c3        1 6OB     -0.197400
     19 C1          4.4000   -3.7760    9.2950 c         1 6OB      0.909600
     20 O1          4.4050   -2.5170    9.4190 o         1 6OB     -0.849300
     21 O2          4.7230   -4.5780   10.2170 o         1 6OB     -0.849300
     22 OXT         2.5980   -2.1170   -0.1500 oh        1 6OB     -0.603800
     23 H10         1.9830   -0.2530   -0.5380 h1        1 6OB      0.066700
     24 H111        0.1220   -2.0300   -0.5620 hc        1 6OB      0.058700
     25 H112        0.1230   -1.9980    1.2440 hc        1 6OB      0.058700
     26 H9          2.5100    0.6640    1.5050 ha        1 6OB      0.122000
     27 H181       -8.0840   -3.2970   -1.5450 hc        1 6OB      0.031367
     28 H182       -6.8360   -4.2930   -0.6880 hc        1 6OB      0.031367
     29 H183       -6.6110   -3.8680   -2.4330 hc        1 6OB      0.031367
     30 H171       -6.4490   -1.4320   -1.8150 hc        1 6OB      0.037200
     31 H172       -6.6730   -1.8570   -0.0750 hc        1 6OB      0.037200
     32 H161       -4.3630   -2.8410   -1.8890 hc        1 6OB      0.040700
     33 H162       -4.5880   -3.2650   -0.1500 hc        1 6OB      0.040700
     34 H151       -4.2390   -0.4000   -1.2760 hc        1 6OB      0.039700
     35 H152       -4.4620   -0.8270    0.4640 hc        1 6OB      0.039700
     36 H141       -2.3780   -2.2490    0.3780 hc        1 6OB      0.049200
     37 H142       -2.1540   -1.8120   -1.3580 hc        1 6OB      0.049200
     38 H13        -2.4270    0.7150    0.0530 ha        1 6OB      0.118000
     39 H12        -0.0450    0.7580    0.6230 ha        1 6OB      0.122000
     40 HA          2.8680   -0.4330    3.6080 ha        1 6OB      0.132000
     41 HA1         1.5390   -2.9220    2.3400 hc        1 6OB      0.073200
     42 HB2         1.7570   -2.5120    4.0930 hc        1 6OB      0.073200
     43 HB1         5.4140   -3.4390    4.1280 hc        1 6OB      0.067700
     44 HC2         4.3980   -2.0250    4.6420 hc        1 6OB      0.067700
     45 HC1         3.9160   -5.0200    5.2600 hc        1 6OB      0.034200
     46 HD2         2.7060   -3.7240    5.6060 hc        1 6OB      0.034200
     47 HD1         4.4120   -2.5020    7.0120 hc        1 6OB      0.048700
     48 HE2         5.6070   -3.8170    6.6810 hc        1 6OB      0.048700
     49 HE1         2.8300   -4.3480    7.9280 hc        1 6OB      0.021200
     50 HF2         4.2660   -5.4480    7.8960 hc        1 6OB      0.021200
     51 HOT         2.7260   -2.7230    0.5930 ho        1 6OB      0.422000
@<TRIPOS>BOND
     1    1    9 1   
     2    1   10 1   
     3    1   22 1   
     4    1   23 1   
     5    2    3 1   
     6    2   27 1   
     7    2   28 1   
     8    2   29 1   
     9    3    4 1   
    10    3   30 1   
    11    3   31 1   
    12    4    5 1   
    13    4   32 1   
    14    4   33 1   
    15    5    6 1   
    16    5   34 1   
    17    5   35 1   
    18    6    7 1   
    19    6   36 1   
    20    6   37 1   
    21    7    8 2   
    22    7   38 1   
    23    8    9 1   
    24    8   39 1   
    25    9   24 1   
    26    9   25 1   
    27   10   11 2   
    28   10   26 1   
    29   11   12 1   
    30   11   40 1   
    31   12   13 1   
    32   12   41 1   
    33   12   42 1   
    34   13   14 2   
    35   13   15 1   
    36   15   16 1   
    37   15   43 1   
    38   15   44 1   
    39   16   17 1   
    40   16   45 1   
    41   16   46 1   
    42   17   18 1   
    43   17   47 1   
    44   17   48 1   
    45   18   19 1   
    46   18   49 1   
    47   18   50 1   
    48   19   20 1   
    49   19   21 1   
    50   22   51 1   
@<TRIPOS>SUBSTRUCTURE
     1 6OB         1 TEMP              0 ****  ****    0 ROOT
