@<TRIPOS>MOLECULE
6OB
   51    48     1     0     0
SMALL
bcc


@<TRIPOS>ATOM
      1 C10         0.3740   -1.8330   -0.3130 c3        1 6OB      0.061000
      2 C18        -8.7510   -1.5410    0.6400 c3        1 6OB     -0.210000
      3 C17        -7.6720   -0.8870   -0.1970 c3        1 6OB     -0.159000
      4 C16        -6.3660   -1.6130    0.0090 c3        1 6OB     -0.158000
      5 C15        -5.3230   -1.0430   -0.9160 c3        1 6OB     -0.156000
      6 C14        -3.9660   -1.6260   -0.5690 c3        1 6OB     -0.134000
      7 C13        -3.0610   -1.5370   -1.7690 c2        1 6OB     -0.157000
      8 C12        -1.7260   -1.6550   -1.6160 c1        1 6OB     -0.183000
      9 C11        -1.1350   -1.8780   -0.2310 c2        1 6OB     -0.167000
     10 C9          0.9590   -1.9100    1.0850 c2        1 6OB     -0.177000
     11 C8          2.1310   -1.2810    1.3680 c1        1 6OB     -0.148000
     12 C7          2.8550   -0.5010    0.2830 c2        1 6OB     -0.195000
     13 C6          3.9680    0.3190    0.9070 c2        1 6OB      0.236000
     14 O3          4.1930    0.2300    2.0960 o         1 6OB     -0.318000
     15 C5          4.8250    1.2220    0.0380 c3        1 6OB     -0.212000
     16 C4          5.5110    2.2550    0.9050 c3        1 6OB     -0.153000
     17 C3          6.3220    3.1890    0.0310 c3        1 6OB     -0.147000
     18 C2          6.7880    4.3670    0.8490 c3        1 6OB     -0.226000
     19 C1          7.4300    5.3840   -0.0560 c2        1 6OB      0.329000
     20 O1          6.7240    6.2620   -0.6160 o         1 6OB     -0.584500
     21 O2          8.6670    5.3430   -0.2700 o         1 6OB     -0.584500
     22 OXT         0.8340   -2.9210   -1.0740 oh        1 6OB     -0.333000
     23 H10         0.6510   -1.0010   -0.7360 h1        1 6OB      0.084000
     24 H111       -1.4170   -2.7510    0.1060 ha        1 6OB      0.102500
     25 H112       -1.4500   -1.1770    0.3740 ha        1 6OB      0.102500
     26 H9          0.4930   -2.4120    1.7840 ha        1 6OB      0.138000
     27 H181       -9.0260   -2.3840    0.2190 hc        1 6OB      0.070000
     28 H182       -9.5220   -0.9410    0.7050 hc        1 6OB      0.070000
     29 H183       -8.4020   -1.7230    1.5390 hc        1 6OB      0.070000
     30 H171       -7.9230   -0.9280   -1.1430 hc        1 6OB      0.078500
     31 H172       -7.5720    0.0480    0.0740 hc        1 6OB      0.078500
     32 H161       -6.0750   -1.5030    0.9350 hc        1 6OB      0.079000
     33 H162       -6.4880   -2.5630   -0.1830 hc        1 6OB      0.079000
     34 H151       -5.2960   -0.0700   -0.8170 hc        1 6OB      0.082000
     35 H152       -5.5490   -1.2710   -1.8430 hc        1 6OB      0.082000
     36 H141       -4.0710   -2.5630   -0.3080 hc        1 6OB      0.088000
     37 H142       -3.5760   -1.1220    0.1720 hc        1 6OB      0.088000
     38 H13        -3.4400   -1.3930   -2.6580 ha        1 6OB      0.124000
     39 H12        -1.1380   -1.5970   -2.3940 ha        1 6OB      0.123000
     40 HA          2.5080   -1.3300    2.2690 ha        1 6OB      0.145000
     41 HA1         2.2240    0.0960   -0.1670 ha        1 6OB      0.118500
     42 HB2         3.2350   -1.1240   -0.3680 ha        1 6OB      0.118500
     43 HB1         5.4980    0.6850   -0.4250 hc        1 6OB      0.108000
     44 HC2         4.2590    1.6730   -0.6210 hc        1 6OB      0.108000
     45 HC1         6.1040    1.8050    1.5400 hc        1 6OB      0.070500
     46 HD2         4.8380    2.7680    1.3950 hc        1 6OB      0.070500
     47 HD1         5.7660    3.5070   -0.7110 hc        1 6OB      0.088000
     48 HE2         7.1000    2.7110   -0.3250 hc        1 6OB      0.088000
     49 HE1         7.4380    4.0660    1.5120 hc        1 6OB      0.059500
     50 HF2         6.0230    4.7720    1.3040 hc        1 6OB      0.059500
     51 HOT         1.2270   -2.6210   -1.8120 ho        1 6OB      0.200000
@<TRIPOS>BOND
     1    1    9 1   
     2    1   10 1   
     3    1   22 1   
     4    1   23 1   
     5    2    3 1   
     6    2   27 1   
     7    2   28 1   
     8    2   29 1   
     9    3    4 1   
    10    3   30 1   
    11    3   31 1   
    12    4    5 1   
    13    4   32 1   
    14    4   33 1   
    15    5    6 1   
    16    5   34 1   
    17    5   35 1   
    18    6    7 1   
    19    6   36 1   
    20    6   37 1   
    21    7    8 1   
    22    7   38 1   
    23    8   39 1   
    24    9   24 1   
    25    9   25 1   
    26   10   11 1   
    27   10   26 1   
    28   11   40 1   
    29   12   13 1   
    30   12   41 1   
    31   12   42 1   
    32   13   14 1   
    33   13   15 1   
    34   15   16 1   
    35   15   43 1   
    36   15   44 1   
    37   16   17 1   
    38   16   45 1   
    39   16   46 1   
    40   17   18 1   
    41   17   47 1   
    42   17   48 1   
    43   18   19 1   
    44   18   49 1   
    45   18   50 1   
    46   19   20 1   
    47   19   21 1   
    48   22   51 1   
@<TRIPOS>SUBSTRUCTURE
     1 6OB         1 TEMP              0 ****  ****    0 ROOT
