@<TRIPOS>MOLECULE
6OB
   51    50     1     0     0
SMALL
bcc


@<TRIPOS>ATOM
      1 C10        -2.0670    2.0830   -0.7680 c3        1 6OB      0.178300
      2 C18        -7.3750   -4.9660    2.2440 c3        1 6OB     -0.092100
      3 C17        -7.5760   -3.7130    1.4320 c3        1 6OB     -0.079400
      4 C16        -6.2850   -2.9360    1.2810 c3        1 6OB     -0.080400
      5 C15        -6.4920   -1.6790    0.4640 c3        1 6OB     -0.076400
      6 C14        -5.1990   -0.9030    0.3160 c3        1 6OB     -0.049200
      7 C13        -5.3730    0.3310   -0.4850 c2        1 6OB     -0.181200
      8 C12        -4.3630    1.1070   -0.8910 c2        1 6OB     -0.167200
      9 C11        -2.9360    0.8310   -0.6120 c3        1 6OB     -0.080200
     10 C9         -0.6580    1.7750   -0.3810 c2        1 6OB     -0.232200
     11 C8          0.4120    2.1150   -1.1030 c2        1 6OB     -0.134200
     12 C7          1.8020    1.8200   -0.6840 c3        1 6OB     -0.161200
     13 C6          2.6950    1.4390   -1.8370 c         1 6OB      0.575100
     14 O3          2.4690    1.8110   -2.9950 o         1 6OB     -0.557100
     15 C5          3.8710    0.5750   -1.4880 c3        1 6OB     -0.182400
     16 C4          4.7580    1.1960   -0.4280 c3        1 6OB     -0.074400
     17 C3          5.8270    0.2210    0.0220 c3        1 6OB     -0.068400
     18 C2          6.7060    0.8100    1.0980 c3        1 6OB     -0.197400
     19 C1          7.5400   -0.2810    1.7960 c         1 6OB      0.909600
     20 O1          6.9740   -1.3740    2.0900 o         1 6OB     -0.849800
     21 O2          8.7470   -0.0170    2.0590 o         1 6OB     -0.849800
     22 OXT        -2.1880    2.6230   -2.0750 oh        1 6OB     -0.598800
     23 H10        -2.4660    2.9080   -0.1060 h1        1 6OB      0.078700
     24 H111       -2.5690    0.0360   -1.3170 hc        1 6OB      0.055700
     25 H112       -2.8120    0.4320    0.4310 hc        1 6OB      0.055700
     26 H9         -0.5600    1.2440    0.5800 ha        1 6OB      0.127000
     27 H181       -7.0040   -4.7160    3.2680 hc        1 6OB      0.032033
     28 H182       -8.3370   -5.5240    2.3430 hc        1 6OB      0.032033
     29 H183       -6.6270   -5.6360    1.7560 hc        1 6OB      0.032033
     30 H171       -7.9710   -3.9820    0.4160 hc        1 6OB      0.036700
     31 H172       -8.3470   -3.0640    1.9240 hc        1 6OB      0.036700
     32 H161       -5.8890   -2.6650    2.2950 hc        1 6OB      0.041200
     33 H162       -5.5130   -3.5830    0.7870 hc        1 6OB      0.041200
     34 H151       -6.8850   -1.9490   -0.5510 hc        1 6OB      0.038700
     35 H152       -7.2640   -1.0320    0.9570 hc        1 6OB      0.038700
     36 H141       -4.8070   -0.6320    1.3350 hc        1 6OB      0.048200
     37 H142       -4.4210   -1.5590   -0.1640 hc        1 6OB      0.048200
     38 H13        -6.4120    0.5950   -0.7410 ha        1 6OB      0.118000
     39 H12        -4.5540    2.0160   -1.4890 ha        1 6OB      0.136000
     40 HA          0.3180    2.6510   -2.0650 ha        1 6OB      0.147000
     41 HA1         2.2450    2.7420   -0.2110 hc        1 6OB      0.080700
     42 HB2         1.8290    1.0060    0.0900 hc        1 6OB      0.080700
     43 HB1         3.4810   -0.4120   -1.1190 hc        1 6OB      0.068700
     44 HC2         4.4760    0.3740   -2.4130 hc        1 6OB      0.068700
     45 HC1         5.2370    2.1240   -0.8350 hc        1 6OB      0.032200
     46 HD2         4.1380    1.4990    0.4570 hc        1 6OB      0.032200
     47 HD1         5.3500   -0.7140    0.4240 hc        1 6OB      0.048200
     48 HE2         6.4550   -0.0780   -0.8570 hc        1 6OB      0.048200
     49 HE1         7.3900    1.5820    0.6660 hc        1 6OB      0.020700
     50 HF2         6.0770    1.3050    1.8810 hc        1 6OB      0.020700
     51 HOT        -1.8010    1.9850   -2.6870 ho        1 6OB      0.403000
@<TRIPOS>BOND
     1    1    9 1   
     2    1   10 1   
     3    1   22 1   
     4    1   23 1   
     5    2    3 1   
     6    2   27 1   
     7    2   28 1   
     8    2   29 1   
     9    3    4 1   
    10    3   30 1   
    11    3   31 1   
    12    4    5 1   
    13    4   32 1   
    14    4   33 1   
    15    5    6 1   
    16    5   34 1   
    17    5   35 1   
    18    6    7 1   
    19    6   36 1   
    20    6   37 1   
    21    7    8 2   
    22    7   38 1   
    23    8    9 1   
    24    8   39 1   
    25    9   24 1   
    26    9   25 1   
    27   10   11 2   
    28   10   26 1   
    29   11   12 1   
    30   11   40 1   
    31   12   13 1   
    32   12   41 1   
    33   12   42 1   
    34   13   14 2   
    35   13   15 1   
    36   15   16 1   
    37   15   43 1   
    38   15   44 1   
    39   16   17 1   
    40   16   45 1   
    41   16   46 1   
    42   17   18 1   
    43   17   47 1   
    44   17   48 1   
    45   18   19 1   
    46   18   49 1   
    47   18   50 1   
    48   19   20 1   
    49   19   21 1   
    50   22   51 1   
@<TRIPOS>SUBSTRUCTURE
     1 6OB         1 TEMP              0 ****  ****    0 ROOT
