@<TRIPOS>MOLECULE
6OC
   51    50     1     0     0
SMALL
bcc


@<TRIPOS>ATOM
      1 C18        -0.0580    4.3230    0.6520 c3        1 6OC     -0.109100
      2 C17         0.7180    3.0740    0.9820 c3        1 6OC     -0.058400
      3 C16         1.7980    3.3680    2.0020 c3        1 6OC     -0.104400
      4 C15         2.5540    2.1130    2.3810 c3        1 6OC     -0.068400
      5 C14         3.6160    2.4070    3.4210 c3        1 6OC     -0.061200
      6 C13         4.4350    1.2180    3.7510 c2        1 6OC     -0.149200
      7 C12         5.4260    1.2030    4.6490 c2        1 6OC     -0.195200
      8 C11         5.8490    2.3860    5.4370 c3        1 6OC     -0.033000
      9 C10         6.6380    2.0280    6.6380 c2        1 6OC     -0.135200
     10 C9          7.5660    2.7950    7.2190 c2        1 6OC     -0.227200
     11 C8          8.0340    4.1290    6.7360 c3        1 6OC      0.173300
     12 C7          6.9260    5.1840    6.7740 c3        1 6OC     -0.217400
     13 C6          6.5730    5.7410    5.4210 c         1 6OC      0.572100
     14 O3          7.2790    5.5600    4.4220 o         1 6OC     -0.546100
     15 C5          5.3020    6.5410    5.3670 c3        1 6OC     -0.181400
     16 C4          4.0890    5.6410    5.4970 c3        1 6OC     -0.079400
     17 C3          2.8060    6.3670    5.1480 c3        1 6OC     -0.059400
     18 C2          1.6030    5.4960    5.4240 c3        1 6OC     -0.199400
     19 C1          0.3470    6.0650    4.7390 c         1 6OC      0.911600
     20 O1         -0.1290    7.1540    5.1640 o         1 6OC     -0.849800
     21 O2         -0.1480    5.3980    3.7840 o         1 6OC     -0.849800
     22 OXT         9.1550    4.5660    7.4960 oh        1 6OC     -0.597800
     23 H181       -0.4160    4.8150    1.5960 hc        1 6OC      0.044033
     24 H182       -0.9370    4.0780    0.0100 hc        1 6OC      0.044033
     25 H183        0.5870    5.0510    0.1030 hc        1 6OC      0.044033
     26 H171        0.0200    2.2990    1.3960 hc        1 6OC      0.014200
     27 H172        1.1750    2.6430    0.0520 hc        1 6OC      0.014200
     28 H161        2.5140    4.1220    1.5790 hc        1 6OC      0.074200
     29 H162        1.3220    3.8400    2.9110 hc        1 6OC      0.074200
     30 H151        1.8380    1.3500    2.7850 hc        1 6OC      0.025700
     31 H152        3.0330    1.6670    1.4700 hc        1 6OC      0.025700
     32 H141        3.1190    2.7980    4.3530 hc        1 6OC      0.059700
     33 H142        4.2890    3.2290    3.0480 hc        1 6OC      0.059700
     34 H13         4.1840    0.2970    3.1970 ha        1 6OC      0.114000
     35 H12         5.9940    0.2770    4.8340 ha        1 6OC      0.111000
     36 H111        6.4360    3.0860    4.7740 hc        1 6OC      0.069700
     37 H112        4.9360    2.9630    5.7730 hc        1 6OC      0.069700
     38 H10         6.3970    1.0430    7.0770 ha        1 6OC      0.118000
     39 H9          8.0870    2.4350    8.1230 ha        1 6OC      0.118000
     40 H8          8.4500    4.0400    5.6860 h1        1 6OC      0.110700
     41 H7C1        7.2530    6.0470    7.4150 hc        1 6OC      0.075700
     42 H7C2        5.9970    4.7510    7.2300 hc        1 6OC      0.075700
     43 H5C1        5.3060    7.2980    6.1930 hc        1 6OC      0.065700
     44 H5C2        5.2530    7.0960    4.3920 hc        1 6OC      0.065700
     45 H4C1        4.0200    5.2450    6.5440 hc        1 6OC      0.035200
     46 H4C2        4.2060    4.7580    4.8110 hc        1 6OC      0.035200
     47 H3C1        2.7210    7.3160    5.7370 hc        1 6OC      0.045200
     48 H3C2        2.8210    6.6510    4.0630 hc        1 6OC      0.045200
     49 H2C1        1.7830    4.4570    5.0440 hc        1 6OC      0.020700
     50 H2C2        1.4170    5.4360    6.5250 hc        1 6OC      0.020700
     51 HOT1        8.8710    4.6390    8.4140 ho        1 6OC      0.389000
@<TRIPOS>BOND
     1    1    2 1   
     2    1   23 1   
     3    1   24 1   
     4    1   25 1   
     5    2    3 1   
     6    2   26 1   
     7    2   27 1   
     8    3    4 1   
     9    3   28 1   
    10    3   29 1   
    11    4    5 1   
    12    4   30 1   
    13    4   31 1   
    14    5    6 1   
    15    5   32 1   
    16    5   33 1   
    17    6    7 2   
    18    6   34 1   
    19    7    8 1   
    20    7   35 1   
    21    8    9 1   
    22    8   36 1   
    23    8   37 1   
    24    9   10 2   
    25    9   38 1   
    26   10   11 1   
    27   10   39 1   
    28   11   12 1   
    29   11   22 1   
    30   11   40 1   
    31   12   13 1   
    32   12   41 1   
    33   12   42 1   
    34   13   14 2   
    35   13   15 1   
    36   15   16 1   
    37   15   43 1   
    38   15   44 1   
    39   16   17 1   
    40   16   45 1   
    41   16   46 1   
    42   17   18 1   
    43   17   47 1   
    44   17   48 1   
    45   18   19 1   
    46   18   49 1   
    47   18   50 1   
    48   19   20 1   
    49   19   21 1   
    50   22   51 1   
@<TRIPOS>SUBSTRUCTURE
     1 6OC         1 TEMP              0 ****  ****    0 ROOT
