@<TRIPOS>MOLECULE
6OC
   51    50     1     0     0
SMALL
bcc


@<TRIPOS>ATOM
      1 C18        -2.2720    5.5090    0.2690 c3        1 6OC     -0.116100
      2 C17        -3.2920    4.4100    0.4290 c3        1 6OC     -0.064400
      3 C16        -2.7140    3.0790    0.0010 c3        1 6OC     -0.093400
      4 C15        -3.7220    1.9550    0.1000 c3        1 6OC     -0.072400
      5 C14        -3.0740    0.6260   -0.2360 c3        1 6OC     -0.059200
      6 C13        -4.0260   -0.5040   -0.1340 c2        1 6OC     -0.151200
      7 C12        -3.6990   -1.7970   -0.0520 c2        1 6OC     -0.188200
      8 C11        -2.3220   -2.3480   -0.0600 c3        1 6OC     -0.033000
      9 C10        -2.0830   -3.2610    1.0850 c2        1 6OC     -0.131200
     10 C9         -1.0970   -4.1580    1.1650 c2        1 6OC     -0.227200
     11 C8         -0.0850   -4.4400    0.1030 c3        1 6OC      0.174300
     12 C7          0.9920   -3.3530    0.0410 c3        1 6OC     -0.219400
     13 C6          0.8800   -2.4580   -1.1630 c         1 6OC      0.574100
     14 O3          0.2240   -2.7680   -2.1640 o         1 6OC     -0.552100
     15 C5          1.6390   -1.1660   -1.0630 c3        1 6OC     -0.181400
     16 C4          0.8100   -0.1100   -0.3580 c3        1 6OC     -0.075400
     17 C3          1.5990    1.1660   -0.1470 c3        1 6OC     -0.065400
     18 C2          0.7180    2.2580    0.4050 c3        1 6OC     -0.201400
     19 C1          1.5100    3.4580    0.9500 c         1 6OC      0.911600
     20 O1          2.7260    3.3080    1.2550 o         1 6OC     -0.850300
     21 O2          0.8750    4.5460    1.0850 o         1 6OC     -0.850300
     22 OXT         0.5180   -5.7120    0.3100 oh        1 6OC     -0.599800
     23 H181       -2.6260    6.4430    0.7650 hc        1 6OC      0.049367
     24 H182       -1.2840    5.2100    0.7170 hc        1 6OC      0.049367
     25 H183       -2.1020    5.7280   -0.8130 hc        1 6OC      0.049367
     26 H171       -3.6140    4.3460    1.5020 hc        1 6OC      0.017200
     27 H172       -4.2090    4.6410   -0.1760 hc        1 6OC      0.017200
     28 H161       -2.3390    3.1550   -1.0540 hc        1 6OC      0.060700
     29 H162       -1.8240    2.8490    0.6480 hc        1 6OC      0.060700
     30 H151       -4.1430    1.9150    1.1390 hc        1 6OC      0.028200
     31 H152       -4.5790    2.1470   -0.5980 hc        1 6OC      0.028200
     32 H141       -2.6620    0.6660   -1.2830 hc        1 6OC      0.058200
     33 H142       -2.1940    0.4650    0.4470 hc        1 6OC      0.058200
     34 H13        -5.0920   -0.2160   -0.1360 ha        1 6OC      0.112000
     35 H12        -4.4930   -2.5600    0.0180 ha        1 6OC      0.109000
     36 H111       -2.1490   -2.8910   -1.0340 hc        1 6OC      0.070700
     37 H112       -1.5550   -1.5200   -0.0260 hc        1 6OC      0.070700
     38 H10        -2.7840   -3.1470    1.9300 ha        1 6OC      0.122000
     39 H9         -0.9960   -4.7850    2.0670 ha        1 6OC      0.117000
     40 H8         -0.5840   -4.5480   -0.9070 h1        1 6OC      0.106700
     41 H7C1        0.9600   -2.7190    0.9660 hc        1 6OC      0.077200
     42 H7C2        2.0040   -3.8420   -0.0030 hc        1 6OC      0.077200
     43 H5C1        2.5940   -1.3330   -0.5000 hc        1 6OC      0.064200
     44 H5C2        1.9030   -0.8060   -2.0920 hc        1 6OC      0.064200
     45 H4C1       -0.1100    0.1090   -0.9650 hc        1 6OC      0.034200
     46 H4C2        0.4640   -0.5010    0.6360 hc        1 6OC      0.034200
     47 H3C1        2.4500    0.9880    0.5630 hc        1 6OC      0.049700
     48 H3C2        2.0490    1.5010   -1.1180 hc        1 6OC      0.049700
     49 H2C1        0.0190    2.6240   -0.3910 hc        1 6OC      0.022200
     50 H2C2        0.0970    1.8580    1.2480 hc        1 6OC      0.022200
     51 HOT1        0.9440   -5.6930    1.1750 ho        1 6OC      0.390000
@<TRIPOS>BOND
     1    1    2 1   
     2    1   23 1   
     3    1   24 1   
     4    1   25 1   
     5    2    3 1   
     6    2   26 1   
     7    2   27 1   
     8    3    4 1   
     9    3   28 1   
    10    3   29 1   
    11    4    5 1   
    12    4   30 1   
    13    4   31 1   
    14    5    6 1   
    15    5   32 1   
    16    5   33 1   
    17    6    7 2   
    18    6   34 1   
    19    7    8 1   
    20    7   35 1   
    21    8    9 1   
    22    8   36 1   
    23    8   37 1   
    24    9   10 2   
    25    9   38 1   
    26   10   11 1   
    27   10   39 1   
    28   11   12 1   
    29   11   22 1   
    30   11   40 1   
    31   12   13 1   
    32   12   41 1   
    33   12   42 1   
    34   13   14 2   
    35   13   15 1   
    36   15   16 1   
    37   15   43 1   
    38   15   44 1   
    39   16   17 1   
    40   16   45 1   
    41   16   46 1   
    42   17   18 1   
    43   17   47 1   
    44   17   48 1   
    45   18   19 1   
    46   18   49 1   
    47   18   50 1   
    48   19   20 1   
    49   19   21 1   
    50   22   51 1   
@<TRIPOS>SUBSTRUCTURE
     1 6OC         1 TEMP              0 ****  ****    0 ROOT
