@<TRIPOS>MOLECULE
6OC
   51    50     1     0     0
SMALL
bcc


@<TRIPOS>ATOM
      1 C18         0.0230    4.2880    0.5660 c3        1 6OC     -0.109100
      2 C17         0.8170    3.0510    0.8990 c3        1 6OC     -0.058400
      3 C16         1.8680    3.3540    1.9460 c3        1 6OC     -0.104400
      4 C15         2.6410    2.1110    2.3280 c3        1 6OC     -0.068400
      5 C14         3.6740    2.4140    3.3940 c3        1 6OC     -0.061200
      6 C13         4.5090    1.2370    3.7280 c2        1 6OC     -0.149200
      7 C12         5.4810    1.2320    4.6480 c2        1 6OC     -0.195200
      8 C11         5.8620    2.4140    5.4580 c3        1 6OC     -0.033000
      9 C10         6.6300    2.0570    6.6740 c2        1 6OC     -0.135200
     10 C9          7.5280    2.8350    7.2850 c2        1 6OC     -0.227200
     11 C8          7.9810    4.1850    6.8290 c3        1 6OC      0.173300
     12 C7          6.8500    5.2180    6.8540 c3        1 6OC     -0.217400
     13 C6          6.5160    5.7830    5.5000 c         1 6OC      0.572100
     14 O3          7.2470    5.6280    4.5150 o         1 6OC     -0.546100
     15 C5          5.2300    6.5570    5.4270 c3        1 6OC     -0.181400
     16 C4          4.0330    5.6310    5.5180 c3        1 6OC     -0.079400
     17 C3          2.7430    6.3350    5.1510 c3        1 6OC     -0.059400
     18 C2          1.5530    5.4350    5.3880 c3        1 6OC     -0.199400
     19 C1          0.3010    5.9880    4.6830 c         1 6OC      0.911600
     20 O1         -0.2080    7.0610    5.1120 o         1 6OC     -0.849800
     21 O2         -0.1580    5.3250    3.7070 o         1 6OC     -0.849800
     22 OXT         9.0750    4.6350    7.6190 oh        1 6OC     -0.597800
     23 H181       -0.3660    4.7620    1.5080 hc        1 6OC      0.044033
     24 H182       -0.8370    4.0330   -0.0980 hc        1 6OC      0.044033
     25 H183        0.6650    5.0350    0.0400 hc        1 6OC      0.044033
     26 H171        0.1260    2.2570    1.2890 hc        1 6OC      0.014200
     27 H172        1.3030    2.6400   -0.0250 hc        1 6OC      0.014200
     28 H161        2.5770    4.1280    1.5480 hc        1 6OC      0.074200
     29 H162        1.3630    3.8070    2.8490 hc        1 6OC      0.074200
     30 H151        1.9320    1.3280    2.7070 hc        1 6OC      0.025700
     31 H152        3.1480    1.6850    1.4220 hc        1 6OC      0.025700
     32 H141        3.1480    2.7840    4.3190 hc        1 6OC      0.059700
     33 H142        4.3380    3.2530    3.0450 hc        1 6OC      0.059700
     34 H13         4.2900    0.3180    3.1590 ha        1 6OC      0.114000
     35 H12         6.0630    0.3160    4.8350 ha        1 6OC      0.111000
     36 H111        6.4520    3.1320    4.8170 hc        1 6OC      0.069700
     37 H112        4.9320    2.9700    5.7790 hc        1 6OC      0.069700
     38 H10         6.3990    1.0630    7.0960 ha        1 6OC      0.118000
     39 H9          8.0340    2.4760    8.1970 ha        1 6OC      0.118000
     40 H8          8.4210    4.1170    5.7880 h1        1 6OC      0.110700
     41 H7C1        7.1470    6.0790    7.5120 hc        1 6OC      0.075700
     42 H7C2        5.9210    4.7610    7.2860 hc        1 6OC      0.075700
     43 H5C1        5.1990    7.3030    6.2640 hc        1 6OC      0.065700
     44 H5C2        5.1920    7.1240    4.4590 hc        1 6OC      0.065700
     45 H4C1        3.9500    5.2170    6.5570 hc        1 6OC      0.035200
     46 H4C2        4.1840    4.7610    4.8220 hc        1 6OC      0.035200
     47 H3C1        2.6270    7.2740    5.7520 hc        1 6OC      0.045200
     48 H3C2        2.7760    6.6350    4.0710 hc        1 6OC      0.045200
     49 H2C1        1.7630    4.4060    4.9990 hc        1 6OC      0.020700
     50 H2C2        1.3440    5.3570    6.4840 hc        1 6OC      0.020700
     51 HOT1        8.7700    4.6900    8.5320 ho        1 6OC      0.389000
@<TRIPOS>BOND
     1    1    2 1   
     2    1   23 1   
     3    1   24 1   
     4    1   25 1   
     5    2    3 1   
     6    2   26 1   
     7    2   27 1   
     8    3    4 1   
     9    3   28 1   
    10    3   29 1   
    11    4    5 1   
    12    4   30 1   
    13    4   31 1   
    14    5    6 1   
    15    5   32 1   
    16    5   33 1   
    17    6    7 2   
    18    6   34 1   
    19    7    8 1   
    20    7   35 1   
    21    8    9 1   
    22    8   36 1   
    23    8   37 1   
    24    9   10 2   
    25    9   38 1   
    26   10   11 1   
    27   10   39 1   
    28   11   12 1   
    29   11   22 1   
    30   11   40 1   
    31   12   13 1   
    32   12   41 1   
    33   12   42 1   
    34   13   14 2   
    35   13   15 1   
    36   15   16 1   
    37   15   43 1   
    38   15   44 1   
    39   16   17 1   
    40   16   45 1   
    41   16   46 1   
    42   17   18 1   
    43   17   47 1   
    44   17   48 1   
    45   18   19 1   
    46   18   49 1   
    47   18   50 1   
    48   19   20 1   
    49   19   21 1   
    50   22   51 1   
@<TRIPOS>SUBSTRUCTURE
     1 6OC         1 TEMP              0 ****  ****    0 ROOT
