@<TRIPOS>MOLECULE
6OC
   51    48     1     0     0
SMALL
bcc


@<TRIPOS>ATOM
      1 C18        -9.5010   -0.3310   -1.0610 c3        1 6OC     -0.210000
      2 C17        -8.4720   -1.4150   -1.2960 c3        1 6OC     -0.158000
      3 C16        -7.0860   -0.8530   -1.0660 c3        1 6OC     -0.159000
      4 C15        -6.0710   -1.9730   -1.1280 c3        1 6OC     -0.155000
      5 C14        -4.6880   -1.4140   -0.8750 c3        1 6OC     -0.131000
      6 C13        -3.7290   -2.5500   -0.5920 c2        1 6OC     -0.179000
      7 C12        -2.4220   -2.2940   -0.3920 c1        1 6OC     -0.156000
      8 C11        -1.9120   -0.8710   -0.4510 c2        1 6OC     -0.105000
      9 C10        -0.6550   -0.7510    0.3820 c2        1 6OC     -0.169000
     10 C9          0.3650    0.0200   -0.0440 c1        1 6OC     -0.156000
     11 C8          1.6210    0.1400    0.7880 c2        1 6OC      0.073000
     12 C7          2.7860    0.5000   -0.1060 c3        1 6OC     -0.252000
     13 C6          3.8780    1.1420    0.7210 c2        1 6OC      0.237000
     14 O3          3.5970    1.9940    1.5410 o         1 6OC     -0.338000
     15 C5          5.3190    0.7250    0.5260 c3        1 6OC     -0.210000
     16 C4          6.2240    1.9140    0.7630 c3        1 6OC     -0.153000
     17 C3          7.6530    1.4380    0.9070 c3        1 6OC     -0.146000
     18 C2          8.5810    2.6330    0.9460 c3        1 6OC     -0.226000
     19 C1          9.9700    2.1800    1.3370 c2        1 6OC      0.329000
     20 O1         10.7470    1.7070    0.4660 o         1 6OC     -0.584500
     21 O2         10.3530    2.2830    2.5320 o         1 6OC     -0.584500
     22 OXT         1.4470    1.1450    1.7590 oh        1 6OC     -0.342000
     23 H181       -9.2740    0.4570   -1.5980 hc        1 6OC      0.070667
     24 H182      -10.3870   -0.6600   -1.3220 hc        1 6OC      0.070667
     25 H183       -9.5100   -0.0890   -0.1120 hc        1 6OC      0.070667
     26 H171       -8.6310   -2.1550   -0.6770 hc        1 6OC      0.077000
     27 H172       -8.5430   -1.7380   -2.2170 hc        1 6OC      0.077000
     28 H161       -6.8840   -0.1910   -1.7560 hc        1 6OC      0.079500
     29 H162       -7.0490   -0.4280   -0.1850 hc        1 6OC      0.079500
     30 H151       -6.2820   -2.6420   -0.4460 hc        1 6OC      0.079000
     31 H152       -6.0980   -2.3880   -2.0130 hc        1 6OC      0.079000
     32 H141       -4.3860   -0.9210   -1.6640 hc        1 6OC      0.087500
     33 H142       -4.7160   -0.8120   -0.1050 hc        1 6OC      0.087500
     34 H13        -4.0580   -3.4680   -0.5540 ha        1 6OC      0.119000
     35 H12        -1.8030   -3.0270   -0.2100 ha        1 6OC      0.125000
     36 H111       -1.7120   -0.6340   -1.3780 ha        1 6OC      0.095500
     37 H112       -2.5950   -0.2650   -0.0990 ha        1 6OC      0.095500
     38 H10        -0.5800   -1.2360    1.2260 ha        1 6OC      0.124000
     39 H9          0.2900    0.5050   -0.8880 ha        1 6OC      0.141000
     40 H8          1.8020   -0.7130    1.2300 h4        1 6OC      0.082000
     41 H7C1        3.1330   -0.3090   -0.5320 hc        1 6OC      0.126000
     42 H7C2        2.4870    1.1280   -0.7950 hc        1 6OC      0.126000
     43 H5C1        5.5410    0.0150    1.1610 hc        1 6OC      0.109000
     44 H5C2        5.4430    0.3980   -0.3870 hc        1 6OC      0.109000
     45 H4C1        6.1600    2.5290    0.0050 hc        1 6OC      0.073000
     46 H4C2        5.9500    2.3750    1.5810 hc        1 6OC      0.073000
     47 H3C1        7.8860    0.8690    0.1470 hc        1 6OC      0.087500
     48 H3C2        7.7450    0.9270    1.7370 hc        1 6OC      0.087500
     49 H2C1        8.2520    3.2800    1.6020 hc        1 6OC      0.060500
     50 H2C2        8.6110    3.0510    0.0620 hc        1 6OC      0.060500
     51 HOT1        1.2050    0.7730    2.5300 ho        1 6OC      0.226000
@<TRIPOS>BOND
     1    1    2 1   
     2    1   23 1   
     3    1   24 1   
     4    1   25 1   
     5    2    3 1   
     6    2   26 1   
     7    2   27 1   
     8    3    4 1   
     9    3   28 1   
    10    3   29 1   
    11    4    5 1   
    12    4   30 1   
    13    4   31 1   
    14    5    6 1   
    15    5   32 1   
    16    5   33 1   
    17    6    7 1   
    18    6   34 1   
    19    7   35 1   
    20    8    9 1   
    21    8   36 1   
    22    8   37 1   
    23    9   10 1   
    24    9   38 1   
    25   10   39 1   
    26   11   12 1   
    27   11   22 1   
    28   11   40 1   
    29   12   13 1   
    30   12   41 1   
    31   12   42 1   
    32   13   14 1   
    33   13   15 1   
    34   15   16 1   
    35   15   43 1   
    36   15   44 1   
    37   16   17 1   
    38   16   45 1   
    39   16   46 1   
    40   17   18 1   
    41   17   47 1   
    42   17   48 1   
    43   18   19 1   
    44   18   49 1   
    45   18   50 1   
    46   19   20 1   
    47   19   21 1   
    48   22   51 1   
@<TRIPOS>SUBSTRUCTURE
     1 6OC         1 TEMP              0 ****  ****    0 ROOT
