@<TRIPOS>MOLECULE
6OD
   17    16     1     0     0
SMALL
bcc


@<TRIPOS>ATOM
      1 O2          1.1330   -1.9300    0.2170 o         1 6OD     -0.755300
      2 C5          2.0030   -1.0730   -0.0140 c         1 6OD      0.937800
      3 O1          3.0380   -0.7990    0.6550 o         1 6OD     -0.755300
      4 C4          1.8290   -0.1960   -1.3020 ce        1 6OD     -0.133200
      5 N           2.9120    0.7890   -1.4350 nz        1 6OD     -0.738400
      6 C3          0.8640   -0.2460   -2.2410 cf        1 6OD     -0.109000
      7 C2         -0.2510   -1.1710   -2.1930 cf        1 6OD     -0.033000
      8 C1         -1.3030   -1.1360   -3.0280 ce        1 6OD     -0.275200
      9 C          -1.5470   -0.1960   -4.1230 c         1 6OD      0.567100
     10 O          -0.8140    0.7510   -4.4320 o         1 6OD     -0.560100
     11 H2          3.5470    0.6170   -0.6140 hn        1 6OD      0.453133
     12 H3          0.8740    0.4380   -3.1150 ha        1 6OD      0.146000
     13 H5         -0.2030   -1.9450   -1.3940 ha        1 6OD      0.201000
     14 H7         -2.1000   -1.8910   -2.9010 ha        1 6OD      0.145000
     15 H9         -2.4830   -0.3920   -4.6980 h4        1 6OD      0.002200
     16 H4          2.5450    1.7380   -1.3930 hn        1 6OD      0.453133
     17 HN3         3.4250    0.6550   -2.3040 hn        1 6OD      0.453133
@<TRIPOS>BOND
     1    1    2 1   
     2    2    3 1   
     3    2    4 1   
     4    4    5 1   
     5    4    6 2   
     6    5   11 1   
     7    5   16 1   
     8    5   17 1   
     9    6    7 1   
    10    6   12 1   
    11    7    8 2   
    12    7   13 1   
    13    8    9 1   
    14    8   14 1   
    15    9   10 2   
    16    9   15 1   
@<TRIPOS>SUBSTRUCTURE
     1 6OD         1 TEMP              0 ****  ****    0 ROOT
