@<TRIPOS>MOLECULE
6OD
   17    16     1     0     0
SMALL
bcc


@<TRIPOS>ATOM
      1 O2          1.1710   -2.0000    0.1590 o         1 6OD     -0.755300
      2 C5          2.0310   -1.1290   -0.0520 c         1 6OD      0.937800
      3 O1          3.0700   -0.8670    0.6150 o         1 6OD     -0.755300
      4 C4          1.8360   -0.2110   -1.3100 ce        1 6OD     -0.133200
      5 N           2.9090    0.7860   -1.4220 n4        1 6OD     -0.738400
      6 C3          0.8620   -0.2400   -2.2400 cf        1 6OD     -0.109000
      7 C2         -0.2450   -1.1750   -2.2100 cf        1 6OD     -0.033000
      8 C1         -1.3080   -1.1190   -3.0300 ce        1 6OD     -0.275200
      9 C          -1.5740   -0.1440   -4.0870 c         1 6OD      0.567100
     10 O          -0.8530    0.8200   -4.3720 o         1 6OD     -0.560100
     11 H2          3.5540    0.5940   -0.6130 hn        1 6OD      0.453133
     12 H3          0.8570    0.4720   -3.0920 ha        1 6OD      0.146000
     13 H5         -0.1800   -1.9770   -1.4400 ha        1 6OD      0.201000
     14 H7         -2.0980   -1.8850   -2.9190 ha        1 6OD      0.145000
     15 H9         -2.5160   -0.3270   -4.6570 h4        1 6OD      0.002200
     16 H4          3.4160    0.6850   -2.3000 hn        1 6OD      0.453133
     17 HN3         2.5350    1.7310   -1.3460 hn        1 6OD      0.453133
@<TRIPOS>BOND
     1    1    2 1   
     2    2    3 1   
     3    2    4 1   
     4    4    5 1   
     5    4    6 2   
     6    5   11 1   
     7    5   16 1   
     8    5   17 1   
     9    6    7 1   
    10    6   12 1   
    11    7    8 2   
    12    7   13 1   
    13    8    9 1   
    14    8   14 1   
    15    9   10 2   
    16    9   15 1   
@<TRIPOS>SUBSTRUCTURE
     1 6OD         1 TEMP              0 ****  ****    0 ROOT
