@<TRIPOS>MOLECULE
6OD
   17    16     1     0     0
SMALL
bcc


@<TRIPOS>ATOM
      1 O2          1.1490   -1.9280    0.2170 o         1 6OD     -0.755300
      2 C5          2.0040   -1.0540   -0.0070 c         1 6OD      0.937800
      3 O1          3.0510   -0.7880    0.6460 o         1 6OD     -0.755300
      4 C4          1.7880   -0.1370   -1.2610 ce        1 6OD     -0.133200
      5 N           2.8850    0.8290   -1.4180 n4        1 6OD     -0.738400
      6 C3          0.7730   -0.1320   -2.1460 cf        1 6OD     -0.109000
      7 C2         -0.3460   -1.0500   -2.0850 cf        1 6OD     -0.033000
      8 C1         -1.2880   -1.1650   -3.0360 ce        1 6OD     -0.275200
      9 C          -1.3880   -0.4210   -4.2920 c         1 6OD      0.567100
     10 O          -0.5810    0.4280   -4.6900 o         1 6OD     -0.560100
     11 H2          3.5290    0.6540   -0.6050 hn        1 6OD      0.453133
     12 H3          0.7470    0.5900   -2.9890 ha        1 6OD      0.146000
     13 H5         -0.3950   -1.6930   -1.1770 ha        1 6OD      0.201000
     14 H7         -2.1000   -1.9010   -2.8870 ha        1 6OD      0.145000
     15 H9         -2.2840   -0.6750   -4.9080 h4        1 6OD      0.002200
     16 H4          2.5390    1.7860   -1.3860 hn        1 6OD      0.453133
     17 HN3         3.3840    0.6710   -2.2920 hn        1 6OD      0.453133
@<TRIPOS>BOND
     1    1    2 1   
     2    2    3 1   
     3    2    4 1   
     4    4    5 1   
     5    4    6 2   
     6    5   11 1   
     7    5   16 1   
     8    5   17 1   
     9    6    7 1   
    10    6   12 1   
    11    7    8 2   
    12    7   13 1   
    13    8    9 1   
    14    8   14 1   
    15    9   10 2   
    16    9   15 1   
@<TRIPOS>SUBSTRUCTURE
     1 6OD         1 TEMP              0 ****  ****    0 ROOT
