@<TRIPOS>MOLECULE
6OG
   38    40     1     0     0
SMALL
bcc


@<TRIPOS>ATOM
      1 P          -4.7890    0.3950    0.8890 p5        1 6OG      1.331900
      2 OP1        -4.2930   -0.9180    1.4620 o         1 6OG     -0.930167
      3 OP2        -4.1890    1.6090    1.5390 o         1 6OG     -0.930167
      4 O5'        -3.9040    0.3450   -0.6180 os        1 6OG     -0.553200
      5 N9          1.2540   -0.4960   -0.1470 na        1 6OG     -0.260000
      6 C4          2.6490   -0.5410   -0.1820 ca        1 6OG      0.449800
      7 N3          3.4980   -1.5530   -0.5230 nb        1 6OG     -0.749000
      8 C2          4.8280   -1.2250   -0.4190 ca        1 6OG      0.845900
      9 N2          5.7700   -2.2680   -0.6540 nh        1 6OG     -0.899500
     10 N1          5.3630    0.0100   -0.0540 nb        1 6OG     -0.841000
     11 C6          4.4920    0.9860    0.2790 ca        1 6OG      0.713600
     12 O6          4.9290    2.2380    0.6600 os        1 6OG     -0.421100
     13 C5          3.0910    0.7960    0.2430 ca        1 6OG     -0.185200
     14 N7          1.9760    1.6030    0.5060 nc        1 6OG     -0.554100
     15 C8          0.9130    0.8150    0.2610 cd        1 6OG      0.453700
     16 C2'        -0.2960   -2.3310    0.6190 c3        1 6OG     -0.129400
     17 C5'        -2.5480    0.3440   -0.4560 c3        1 6OG      0.227400
     18 C4'        -1.9770   -1.0820   -0.6480 c3        1 6OG      0.052100
     19 O4'        -0.7030   -1.0140   -1.3440 os        1 6OG     -0.435600
     20 C1'         0.3400   -1.5650   -0.5600 c3        1 6OG      0.254800
     21 C3'        -1.7530   -1.8470    0.6720 c3        1 6OG      0.157100
     22 O3'        -2.5970   -2.9710    0.7600 oh        1 6OG     -0.672800
     23 C           6.3360    2.4460    0.7430 c3        1 6OG      0.126700
     24 HN21        5.4000   -3.0110   -1.2090 hn        1 6OG      0.389300
     25 HN22        6.6450   -1.9350   -0.9980 hn        1 6OG      0.389300
     26 H8         -0.1530    1.1090    0.3450 h5        1 6OG      0.127800
     27 H2'        -0.2590   -3.4260    0.3990 hc        1 6OG      0.054200
     28 H2''        0.2230   -2.1500    1.5880 hc        1 6OG      0.054200
     29 H5'        -2.0680    0.9970   -1.2450 h1        1 6OG     -0.004300
     30 H5''       -2.2630    0.7360    0.5630 h1        1 6OG     -0.004300
     31 H4'        -2.6510   -1.6650   -1.3310 h1        1 6OG      0.081700
     32 H1'         0.9340   -2.2440   -1.2390 h2        1 6OG      0.069700
     33 H3'        -1.9320   -1.1740    1.5560 h1        1 6OG      0.103700
     34 HO3'       -3.4800   -2.6090    1.0090 ho        1 6OG      0.501000
     35 H1          6.7980    1.7530    1.4860 h1        1 6OG      0.038700
     36 H2          6.8150    2.3210   -0.2570 h1        1 6OG      0.038700
     37 H3          6.4130    3.5080    1.0890 h1        1 6OG      0.038700
     38 OP3        -6.2210    0.4520    0.4570 o         1 6OG     -0.930167
@<TRIPOS>BOND
     1    1    2 1   
     2    1    3 1   
     3    1    4 1   
     4    1   38 1   
     5    4   17 1   
     6    5    6 1   
     7    5   15 1   
     8    5   20 1   
     9    6    7 ar  
    10    6   13 ar  
    11    7    8 ar  
    12    8    9 1   
    13    8   10 ar  
    14    9   24 1   
    15    9   25 1   
    16   10   11 ar  
    17   11   12 1   
    18   11   13 ar  
    19   12   23 1   
    20   13   14 1   
    21   14   15 2   
    22   15   26 1   
    23   16   20 1   
    24   16   21 1   
    25   16   27 1   
    26   16   28 1   
    27   17   18 1   
    28   17   29 1   
    29   17   30 1   
    30   18   19 1   
    31   18   21 1   
    32   18   31 1   
    33   19   20 1   
    34   20   32 1   
    35   21   22 1   
    36   21   33 1   
    37   22   34 1   
    38   23   35 1   
    39   23   36 1   
    40   23   37 1   
@<TRIPOS>SUBSTRUCTURE
     1 6OG         1 TEMP              0 ****  ****    0 ROOT
