@<TRIPOS>MOLECULE
6OG
   38    33     1     0     0
SMALL
bcc


@<TRIPOS>ATOM
      1 P           3.7010   -5.0390    0.9590 p3        1 6OG      2.524000
      2 OP1         5.2080   -4.6770    0.9420 o         1 6OG     -1.251500
      3 OP2         3.2580   -5.3000    2.3930 os        1 6OG     -1.246000
      4 O5'         2.8430   -3.8060    0.3440 os        1 6OG     -0.715000
      5 N9         -0.4010    0.4910    0.3310 n2        1 6OG     -0.177000
      6 C4         -1.3910    1.1260   -0.4010 c1        1 6OG      0.028000
      7 N3         -1.3950    1.6750   -1.6570 n1        1 6OG     -0.175000
      8 C2         -2.5110    2.3040   -2.1210 c1        1 6OG      0.127000
      9 N2         -2.7200    2.7610   -3.4610 n3        1 6OG     -0.297000
     10 N1         -3.6370    2.3880   -1.3290 n1        1 6OG     -0.315000
     11 C6         -3.6370    1.8560   -0.1070 c1        1 6OG      0.215000
     12 O6         -4.5990    2.2770    0.8770 os        1 6OG     -0.179000
     13 C5         -2.4940    1.2090    0.3730 c1        1 6OG     -0.194000
     14 N7         -2.2020    0.6270    1.5960 n1        1 6OG     -0.175000
     15 C8         -0.9140    0.1900    1.5590 c1        1 6OG      0.028000
     16 C2'         1.8280    0.8930    0.3410 c3        1 6OG     -0.208000
     17 C5'         3.0160   -2.4730    0.9290 c3        1 6OG      0.077000
     18 C4'         2.4960   -1.4120   -0.0600 c3        1 6OG     -0.059000
     19 O4'         1.2340   -1.3310    0.0110 os        1 6OG     -0.292000
     20 C1'         0.8770    0.1810   -0.2450 c2        1 6OG      0.163000
     21 C3'         3.0220    0.0130    0.3420 c3        1 6OG      0.046000
     22 O3'         3.9360    0.4590   -0.5740 oh        1 6OG     -0.400000
     23 C          -5.9480    2.1840    0.4370 c3        1 6OG     -0.063000
     24 HN21       -2.0900    2.6260   -4.0840 hn        1 6OG      0.184500
     25 HN22       -3.5420    3.1730   -3.6990 hn        1 6OG      0.184500
     26 H8         -0.4260   -0.2510    2.3040 DU        1 6OG      0.257000
     27 H2'         2.0080    1.7220   -0.1800 hc        1 6OG      0.093500
     28 H2''        1.5760    1.1110    1.2370 hc        1 6OG      0.093500
     29 H5'         2.5070   -2.4130    1.7730 h1        1 6OG      0.035000
     30 H5''        3.9760   -2.3140    1.1120 h1        1 6OG      0.035000
     31 H4'         2.7660   -1.6290   -0.9520 h1        1 6OG      0.121000
     32 H1'         0.8650    0.3660   -1.2130 h4        1 6OG      0.109000
     33 H3'         3.4260   -0.0140    1.2450 h1        1 6OG      0.143000
     34 HO3'        4.6810    0.8270   -0.1240 ho        1 6OG      0.300000
     35 H1         -6.1930    3.0180   -0.0770 h1        1 6OG      0.078000
     36 H2         -6.0480    1.3940   -0.1490 h1        1 6OG      0.078000
     37 H3         -6.5430    2.0930    1.2180 h1        1 6OG      0.078000
     38 OP3         3.4660   -6.3050    0.1110 o         1 6OG     -1.251500
@<TRIPOS>BOND
     1    1    2 1   
     2    1    4 1   
     3    1   38 1   
     4    4   17 1   
     5    5    6 1   
     6    5   15 1   
     7    6    7 1   
     8    8    9 1   
     9    8   10 1   
    10    9   24 1   
    11    9   25 1   
    12   11   12 1   
    13   11   13 1   
    14   12   23 1   
    15   14   15 1   
    16   16   20 1   
    17   16   21 1   
    18   16   27 1   
    19   16   28 1   
    20   17   18 1   
    21   17   29 1   
    22   17   30 1   
    23   18   19 1   
    24   18   21 1   
    25   18   31 1   
    26   19   20 1   
    27   20   32 1   
    28   21   22 1   
    29   21   33 1   
    30   22   34 1   
    31   23   35 1   
    32   23   36 1   
    33   23   37 1   
@<TRIPOS>SUBSTRUCTURE
     1 6OG         1 TEMP              0 ****  ****    0 ROOT
