@<TRIPOS>MOLECULE
6OH
   15    14     1     0     0
SMALL
bcc


@<TRIPOS>ATOM
      1 CA6         0.2970    0.2090    1.1190 c         1 6OH      0.579100
      2 OA4         1.4880    0.0900    0.7890 o         1 6OH     -0.611100
      3 CA5        -0.7770   -0.5830    0.5590 ce        1 6OH     -0.384200
      4 CA4        -2.0840   -0.4830    0.8920 cf        1 6OH      0.040000
      5 CA3        -2.6440    0.4170    1.8510 cf        1 6OH     -0.300000
      6 CA2        -3.9740    0.4680    2.1410 ce        1 6OH      0.093900
      7 OA3        -4.3520    1.3860    3.0840 oh        1 6OH     -0.536100
      8 CA1        -5.1330   -0.3550    1.5670 c         1 6OH      0.887800
      9 OA2        -6.2650   -0.0610    2.0520 o         1 6OH     -0.804800
     10 OA1        -4.9220   -1.2310    0.6930 o         1 6OH     -0.804800
     11 H1          0.0140    0.9640    1.8910 h4        1 6OH     -0.024800
     12 H2         -0.4700   -1.3210   -0.2000 ha        1 6OH      0.125000
     13 H4         -2.8160   -1.1530    0.3860 ha        1 6OH      0.174000
     14 H6         -1.9660    1.1040    2.3820 ha        1 6OH      0.112000
     15 H9         -5.3230    1.3140    3.1920 ho        1 6OH      0.453000
@<TRIPOS>BOND
     1    1    2 2   
     2    1    3 1   
     3    1   11 1   
     4    3    4 2   
     5    3   12 1   
     6    4    5 1   
     7    4   13 1   
     8    5    6 2   
     9    5   14 1   
    10    6    7 1   
    11    6    8 1   
    12    7   15 1   
    13    8    9 1   
    14    8   10 1   
@<TRIPOS>SUBSTRUCTURE
     1 6OH         1 TEMP              0 ****  ****    0 ROOT
