@<TRIPOS>MOLECULE
6P3
   23    24     1     0     0
SMALL
bcc


@<TRIPOS>ATOM
      1 C1          0.0180    0.0410   -0.0110 cp        1 6P3     -0.103500
      2 C2          1.3620   -0.3530    0.0460 ca        1 6P3     -0.115000
      3 C3          2.0370   -0.3670    1.2660 ca        1 6P3     -0.142500
      4 C4          1.3840    0.0140    2.4370 ca        1 6P3     -0.147000
      5 C5          0.0500    0.4160    2.3850 ca        1 6P3     -0.142500
      6 C6         -0.6310    0.4320    1.1690 ca        1 6P3     -0.115000
      7 C12        -0.7170    0.0430   -1.2890 cp        1 6P3      0.401800
      8 N13        -0.0710    0.4510   -2.4170 nb        1 6P3     -0.691000
      9 C14        -0.7690    0.4420   -3.5640 ca        1 6P3      0.404200
     10 C15        -2.1170    0.0350   -3.6740 ca        1 6P3     -0.220900
     11 C16        -2.7620   -0.3860   -2.5110 ca        1 6P3     -0.088000
     12 C17        -2.0620   -0.3840   -1.3020 ca        1 6P3     -0.254300
     13 C21        -2.8290    0.0560   -5.0170 c         1 6P3      0.912200
     14 O22        -4.0350   -0.3140   -5.0460 o         1 6P3     -0.824800
     15 O23        -2.1710    0.4420   -6.0230 o         1 6P3     -0.824800
     16 H1          1.8840   -0.6480   -0.8760 ha        1 6P3      0.142000
     17 H2          3.0910   -0.6800    1.3020 ha        1 6P3      0.118500
     18 H3          1.9190    0.0020    3.3960 ha        1 6P3      0.115000
     19 H4         -0.4680    0.7240    3.3040 ha        1 6P3      0.118500
     20 H5         -1.6810    0.7600    1.1310 ha        1 6P3      0.142000
     21 H6         -0.2380    0.7800   -4.4750 h4        1 6P3      0.041100
     22 H7         -3.8120   -0.7120   -2.5710 ha        1 6P3      0.156000
     23 H8         -2.5440   -0.7190   -0.3750 ha        1 6P3      0.119000
@<TRIPOS>BOND
     1    1    2 ar  
     2    1    6 ar  
     3    1    7 1   
     4    2    3 ar  
     5    2   16 1   
     6    3    4 ar  
     7    3   17 1   
     8    4    5 ar  
     9    4   18 1   
    10    5    6 ar  
    11    5   19 1   
    12    6   20 1   
    13    7    8 ar  
    14    7   12 ar  
    15    8    9 ar  
    16    9   10 ar  
    17    9   21 1   
    18   10   11 ar  
    19   10   13 1   
    20   11   12 ar  
    21   11   22 1   
    22   12   23 1   
    23   13   14 1   
    24   13   15 1   
@<TRIPOS>SUBSTRUCTURE
     1 6P3         1 TEMP              0 ****  ****    0 ROOT
