@<TRIPOS>MOLECULE
6P3
   23    24     1     0     0
SMALL
bcc


@<TRIPOS>ATOM
      1 C1          1.9400    0.0220    0.0360 cp        1 6P3     -0.103500
      2 C2          2.6400    1.1720   -0.3530 ca        1 6P3     -0.115000
      3 C3          4.0340    1.1730   -0.3700 ca        1 6P3     -0.142500
      4 C4          4.7430    0.0330    0.0040 ca        1 6P3     -0.147000
      5 C5          4.0530   -1.1120    0.4000 ca        1 6P3     -0.142500
      6 C6          2.6590   -1.1190    0.4190 ca        1 6P3     -0.115000
      7 C12         0.4660   -0.0030    0.0400 cp        1 6P3      0.401800
      8 N13        -0.2080    1.1060    0.4570 nb        1 6P3     -0.691000
      9 C14        -1.5490    1.0510    0.4500 ca        1 6P3      0.404200
     10 C15        -2.2990   -0.0730    0.0380 ca        1 6P3     -0.220900
     11 C16        -1.5940   -1.1980   -0.3910 ca        1 6P3     -0.088000
     12 C17        -0.1980   -1.1710   -0.3920 ca        1 6P3     -0.254300
     13 C21        -3.8180   -0.0460    0.0620 c         1 6P3      0.912200
     14 O22        -4.4290   -1.0860   -0.3130 o         1 6P3     -0.824800
     15 O23        -4.3800    1.0140    0.4550 o         1 6P3     -0.824800
     16 H1          2.0850    2.0780   -0.6420 ha        1 6P3      0.142000
     17 H2          4.5750    2.0790   -0.6780 ha        1 6P3      0.118500
     18 H3          5.8420    0.0360   -0.0110 ha        1 6P3      0.115000
     19 H4          4.6070   -2.0120    0.7020 ha        1 6P3      0.118500
     20 H5          2.1180   -2.0210    0.7420 ha        1 6P3      0.142000
     21 H6         -2.0890    1.9540    0.7940 h4        1 6P3      0.041100
     22 H7         -2.1560   -2.0860   -0.7220 ha        1 6P3      0.156000
     23 H8          0.3800   -2.0390   -0.7330 ha        1 6P3      0.119000
@<TRIPOS>BOND
     1    1    2 ar  
     2    1    6 ar  
     3    1    7 1   
     4    2    3 ar  
     5    2   16 1   
     6    3    4 ar  
     7    3   17 1   
     8    4    5 ar  
     9    4   18 1   
    10    5    6 ar  
    11    5   19 1   
    12    6   20 1   
    13    7    8 ar  
    14    7   12 ar  
    15    8    9 ar  
    16    9   10 ar  
    17    9   21 1   
    18   10   11 ar  
    19   10   13 1   
    20   11   12 ar  
    21   11   22 1   
    22   12   23 1   
    23   13   14 1   
    24   13   15 1   
@<TRIPOS>SUBSTRUCTURE
     1 6P3         1 TEMP              0 ****  ****    0 ROOT
