@<TRIPOS>MOLECULE
6P3
   23    19     1     0     0
SMALL
bcc


@<TRIPOS>ATOM
      1 C1          0.6550    0.0220    1.0320 c1        1 6P3      0.004000
      2 C2          1.0450   -1.1690    1.6220 c1        1 6P3     -0.139750
      3 C3          1.7720   -1.1530    2.8020 c1        1 6P3     -0.139750
      4 C4          2.1090    0.0550    3.3910 c1        1 6P3     -0.139750
      5 C5          1.7200    1.2470    2.8010 c1        1 6P3     -0.139750
      6 C6          0.9930    1.2310    1.6210 c1        1 6P3     -0.103000
      7 C12        -0.0880    0.0060   -0.2860 c2        1 6P3     -0.034000
      8 N13         0.6050    0.0290   -1.4590 n1        1 6P3     -0.165000
      9 C14        -0.0630    0.0150   -2.6470 c1        1 6P3     -0.061000
     10 C15        -1.4480   -0.0210   -2.6630 c1        1 6P3     -0.135000
     11 C16        -2.1440   -0.0440   -1.4890 c1        1 6P3     -0.088000
     12 C17        -1.4740   -0.0310   -0.3000 c2        1 6P3     -0.189000
     13 C21        -2.1880   -0.0890   -3.9820 c2        1 6P3      0.361000
     14 O22        -2.5470    0.9710   -4.5580 o         1 6P3     -0.559500
     15 O23        -2.4530   -1.2070   -4.4980 o         1 6P3     -0.559500
     16 H1          0.8110   -2.0200    1.2050 ha        1 6P3      0.121750
     17 H2          2.0460   -1.9920    3.2180 ha        1 6P3      0.121750
     18 H3          2.6390    0.0670    4.2110 ha        1 6P3      0.121750
     19 H4          1.9570    2.0980    3.2160 ha        1 6P3      0.121750
     20 H5          0.7080    2.0700    1.2120 ha        1 6P3      0.149000
     21 H6          0.4350    0.0320   -3.4870 ha        1 6P3      0.178000
     22 H7         -3.1190   -0.0690   -1.5000 ha        1 6P3      0.156000
     23 H8         -1.9700   -0.0470    0.5400 ha        1 6P3      0.119000
@<TRIPOS>BOND
     1    1    6 1   
     2    1    7 1   
     3    2    3 1   
     4    2   16 1   
     5    3   17 1   
     6    4    5 1   
     7    4   18 1   
     8    5   19 1   
     9    6   20 1   
    10    7    8 1   
    11    7   12 1   
    12    9   10 1   
    13    9   21 1   
    14   10   13 1   
    15   11   12 1   
    16   11   22 1   
    17   12   23 1   
    18   13   14 1   
    19   13   15 1   
@<TRIPOS>SUBSTRUCTURE
     1 6P3         1 TEMP              0 ****  ****    0 ROOT
