@<TRIPOS>MOLECULE
6PB
   25    27     1     0     0
SMALL
bcc


@<TRIPOS>ATOM
      1 N1         -0.0360   -0.0790   -0.0420 nb        1 6PB     -0.730000
      2 C2          1.3630   -0.0500   -0.0010 ca        1 6PB      0.849900
      3 N2          2.0220    0.0010   -1.2420 nv        1 6PB     -0.914500
      4 N3          2.1550   -0.0020    1.1320 nb        1 6PB     -0.691000
      5 C4          1.4670    0.0750    2.2950 ca        1 6PB      0.594300
      6 C5         -0.0020    0.0720    2.3380 ca        1 6PB     -0.359800
      7 C6         -0.7080   -0.0150    1.1190 cp        1 6PB      0.545800
      8 N7         -0.3540    0.1600    3.6860 na        1 6PB     -0.266300
      9 C8          0.8510    0.2200    4.3980 cc        1 6PB      0.447700
     10 N9          1.9530    0.1640    3.6290 nd        1 6PB     -0.637700
     11 C61        -2.1820   -0.0320    1.1130 cp        1 6PB     -0.154500
     12 C62        -2.8690   -0.8850    1.9860 ca        1 6PB     -0.100000
     13 C63        -4.2660   -0.8840    2.0020 ca        1 6PB     -0.033900
     14 Br63       -5.1830   -2.0190    3.1760 br        1 6PB     -0.083100
     15 C64        -4.9780   -0.0410    1.1420 ca        1 6PB     -0.092000
     16 C65        -4.2890    0.7950    0.2660 ca        1 6PB     -0.134000
     17 C66        -2.8950    0.8020    0.2430 ca        1 6PB     -0.075000
     18 HN2         2.9850   -0.2490   -1.2270 hn        1 6PB      0.420800
     19 HN2A        1.5060   -0.3480   -2.0180 hn        1 6PB      0.420800
     20 H8          0.8670    0.2970    5.4940 h5        1 6PB      0.074800
     21 H62        -2.3050   -1.5690    2.6390 ha        1 6PB      0.150000
     22 H64        -6.0790   -0.0370    1.1500 ha        1 6PB      0.150000
     23 H65        -4.8500    1.4520   -0.4160 ha        1 6PB      0.144000
     24 H66        -2.3550    1.4580   -0.4580 ha        1 6PB      0.157000
     25 HN7        -1.2710    0.2320    4.0390 hn        1 6PB      0.315700
@<TRIPOS>BOND
     1    1    2 ar  
     2    1    7 ar  
     3    2    3 1   
     4    2    4 ar  
     5    3   18 1   
     6    3   19 1   
     7    4    5 ar  
     8    5    6 ar  
     9    5   10 1   
    10    6    7 ar  
    11    6    8 1   
    12    7   11 1   
    13    8    9 1   
    14    8   25 1   
    15    9   10 2   
    16    9   20 1   
    17   11   12 ar  
    18   11   17 ar  
    19   12   13 ar  
    20   12   21 1   
    21   13   14 1   
    22   13   15 ar  
    23   15   16 ar  
    24   15   22 1   
    25   16   17 ar  
    26   16   23 1   
    27   17   24 1   
@<TRIPOS>SUBSTRUCTURE
     1 6PB         1 TEMP              0 ****  ****    0 ROOT
