@<TRIPOS>MOLECULE
6PB
   25    16     1     0     0
SMALL
bcc


@<TRIPOS>ATOM
      1 N1          1.0800   -0.0490   -1.1380 n1        1 6PB     -0.204000
      2 C2          2.4410   -0.1570   -1.1060 c1        1 6PB      0.133000
      3 N2          3.4450    0.0190   -2.0910 n3        1 6PB     -0.314000
      4 N3          3.0950   -0.1880    0.0900 n1        1 6PB     -0.165000
      5 C4          2.3920   -0.1100    1.2550 c1        1 6PB     -0.069000
      6 C5          1.0480   -0.0030    1.2240 c1        1 6PB     -0.069000
      7 C6          0.3840    0.0280    0.0080 c1        1 6PB      0.111000
      8 N7          0.6030    0.0630    2.5070 n1        1 6PB     -0.177500
      9 C8          1.6770   -0.0040    3.3270 c1        1 6PB     -0.009000
     10 N9          2.7830   -0.1110    2.5580 n1        1 6PB     -0.177500
     11 C61        -0.9440   -0.0110   -0.3890 c1        1 6PB     -0.048000
     12 C62        -1.6390    1.1700   -0.6000 c1        1 6PB     -0.062000
     13 C63        -2.9780    1.1320   -0.9550 c1        1 6PB     -0.173000
     14 BR63       -3.9540    2.7610   -1.1820 br        1 6PB      0.062000
     15 C64        -3.6220   -0.0870   -1.0990 c2        1 6PB     -0.092000
     16 C65        -2.9270   -1.2680   -0.8870 c1        1 6PB     -0.135000
     17 C66        -1.5890   -1.2300   -0.5320 c1        1 6PB     -0.112000
     18 HN2         3.2240   -0.0040   -2.9780 hn        1 6PB      0.217500
     19 HN2A        4.3140    0.1480   -1.8400 hn        1 6PB      0.217500
     20 H8          1.6580    0.0370    4.3020 DU        1 6PB      0.233500
     21 H62        -1.1780    2.0270   -0.5240 ha        1 6PB      0.166000
     22 H64        -4.5660   -0.1140   -1.3490 ha        1 6PB      0.150000
     23 H65        -3.3810   -2.1260   -0.9880 ha        1 6PB      0.141000
     24 H66        -1.0990   -2.0610   -0.3830 ha        1 6PB      0.141000
     25 HN7        -0.2670    0.1390    2.7700 DU        1 6PB      0.233500
@<TRIPOS>BOND
     1    1    7 1   
     2    2    3 1   
     3    2    4 1   
     4    3   18 1   
     5    3   19 1   
     6    5    6 1   
     7    8    9 1   
     8    9   10 1   
     9   11   17 1   
    10   12   13 1   
    11   12   21 1   
    12   13   15 1   
    13   15   16 1   
    14   15   22 1   
    15   16   23 1   
    16   17   24 1   
@<TRIPOS>SUBSTRUCTURE
     1 6PB         1 TEMP              0 ****  ****    0 ROOT
