@<TRIPOS>MOLECULE
6PB
   26    28     1     0     0
SMALL
bcc


@<TRIPOS>ATOM
      1 N1         -0.0220   -0.0700   -0.0260 nb        1 6PB     -0.675000
      2 C2          1.3560   -0.0740    0.0640 ca        1 6PB      0.663900
      3 N2          2.0700   -0.1480   -1.2480 n4        1 6PB     -0.808300
      4 N3          2.1640   -0.0260    1.1610 nb        1 6PB     -0.596000
      5 C4          1.4770    0.0360    2.3310 ca        1 6PB      0.562300
      6 C5         -0.0030    0.0400    2.3580 ca        1 6PB     -0.270800
      7 C6         -0.7140   -0.0170    1.1310 cp        1 6PB      0.570800
      8 N7         -0.3550    0.1190    3.6940 na        1 6PB     -0.237300
      9 C8          0.8490    0.1610    4.4240 cc        1 6PB      0.480700
     10 N9          1.9570    0.1120    3.6600 nd        1 6PB     -0.589700
     11 C61        -2.1830   -0.0160    1.1150 cp        1 6PB     -0.199500
     12 C62        -2.8770   -0.8850    1.9670 ca        1 6PB     -0.095000
     13 C63        -4.2740   -0.8810    1.9770 ca        1 6PB     -0.031900
     14 BR63       -5.1970   -2.0370    3.1180 br        1 6PB     -0.038100
     15 C64        -4.9750   -0.0130    1.1310 ca        1 6PB     -0.063000
     16 C65        -4.2790    0.8410    0.2770 ca        1 6PB     -0.123000
     17 C66        -2.8850    0.8410    0.2590 ca        1 6PB     -0.069000
     18 HN2         1.7850   -1.0060   -1.7350 hn        1 6PB      0.479133
     19 HN2A        1.8140    0.6690   -1.8140 hn        1 6PB      0.479133
     20 H8          0.8560    0.2260    5.5260 h5        1 6PB      0.110800
     21 H62        -2.3230   -1.5920    2.6060 ha        1 6PB      0.148000
     22 H64        -6.0790   -0.0040    1.1330 ha        1 6PB      0.170000
     23 H65        -4.8360    1.5180   -0.3910 ha        1 6PB      0.161000
     24 H66        -2.3440    1.5160   -0.4210 ha        1 6PB      0.150000
     25 HN7        -1.2790    0.1570    4.0520 hn        1 6PB      0.343700
     26 H23         3.0870   -0.1590   -1.0940 hn        1 6PB      0.479133
@<TRIPOS>BOND
     1    1    2 ar  
     2    1    7 ar  
     3    2    3 1   
     4    2    4 ar  
     5    3   18 1   
     6    3   19 1   
     7    3   26 1   
     8    4    5 ar  
     9    5    6 ar  
    10    5   10 1   
    11    6    7 ar  
    12    6    8 1   
    13    7   11 1   
    14    8    9 1   
    15    8   25 1   
    16    9   10 2   
    17    9   20 1   
    18   11   12 ar  
    19   11   17 ar  
    20   12   13 ar  
    21   12   21 1   
    22   13   14 1   
    23   13   15 ar  
    24   15   16 ar  
    25   15   22 1   
    26   16   17 ar  
    27   16   23 1   
    28   17   24 1   
@<TRIPOS>SUBSTRUCTURE
     1 6PB         1 TEMP              0 ****  ****    0 ROOT
