@<TRIPOS>MOLECULE
6PB
   25    27     1     0     0
SMALL
bcc


@<TRIPOS>ATOM
      1 N1         -0.0340   -0.0820   -0.0410 nb        1 6PB     -0.730000
      2 C2          1.3640   -0.0500    0.0000 ca        1 6PB      0.849900
      3 N2          2.0240   -0.0020   -1.2410 nh        1 6PB     -0.914500
      4 N3          2.1560    0.0040    1.1340 nb        1 6PB     -0.691000
      5 C4          1.4670    0.0840    2.2960 ca        1 6PB      0.594300
      6 C5         -0.0020    0.0780    2.3380 ca        1 6PB     -0.359800
      7 C6         -0.7070   -0.0160    1.1200 cp        1 6PB      0.545800
      8 N7         -0.3540    0.1690    3.6850 na        1 6PB     -0.266300
      9 C8          0.8500    0.2350    4.3990 cc        1 6PB      0.447700
     10 N9          1.9520    0.1790    3.6300 nd        1 6PB     -0.637700
     11 C61        -2.1810   -0.0360    1.1130 cp        1 6PB     -0.154500
     12 C62        -2.8670   -0.8880    1.9880 ca        1 6PB     -0.100000
     13 C63        -4.2630   -0.8910    2.0040 ca        1 6PB     -0.033900
     14 BR63       -5.1780   -2.0230    3.1820 br        1 6PB     -0.083100
     15 C64        -4.9770   -0.0530    1.1410 ca        1 6PB     -0.092000
     16 C65        -4.2900    0.7820    0.2620 ca        1 6PB     -0.134000
     17 C66        -2.8960    0.7930    0.2400 ca        1 6PB     -0.075000
     18 HN2         2.9880   -0.2490   -1.2240 hn        1 6PB      0.420800
     19 HN2A        1.5080   -0.3550   -2.0160 hn        1 6PB      0.420800
     20 H8          0.8660    0.3170    5.4940 h5        1 6PB      0.074800
     21 H62        -2.3010   -1.5690    2.6440 ha        1 6PB      0.150000
     22 H64        -6.0780   -0.0510    1.1490 ha        1 6PB      0.150000
     23 H65        -4.8520    1.4350   -0.4220 ha        1 6PB      0.144000
     24 H66        -2.3570    1.4470   -0.4630 ha        1 6PB      0.157000
     25 HN7        -1.2720    0.2410    4.0380 hn        1 6PB      0.315700
@<TRIPOS>BOND
     1    1    2 ar  
     2    1    7 ar  
     3    2    3 1   
     4    2    4 ar  
     5    3   18 1   
     6    3   19 1   
     7    4    5 ar  
     8    5    6 ar  
     9    5   10 1   
    10    6    7 ar  
    11    6    8 1   
    12    7   11 1   
    13    8    9 1   
    14    8   25 1   
    15    9   10 2   
    16    9   20 1   
    17   11   12 ar  
    18   11   17 ar  
    19   12   13 ar  
    20   12   21 1   
    21   13   14 1   
    22   13   15 ar  
    23   15   16 ar  
    24   15   22 1   
    25   16   17 ar  
    26   16   23 1   
    27   17   24 1   
@<TRIPOS>SUBSTRUCTURE
     1 6PB         1 TEMP              0 ****  ****    0 ROOT
