@<TRIPOS>MOLECULE
6PB
   25    27     1     0     0
SMALL
bcc


@<TRIPOS>ATOM
      1 N1         -2.4270   -1.4530   -0.3830 nb        1 6PB     -0.730000
      2 C2         -3.7470   -1.0150   -0.5430 ca        1 6PB      0.849900
      3 N2         -4.6960   -2.0010   -0.8660 nh        1 6PB     -0.914500
      4 N3         -4.2190    0.2720   -0.3540 nb        1 6PB     -0.691000
      5 C4         -3.2860    1.1530    0.0780 ca        1 6PB      0.594300
      6 C5         -1.8840    0.7690    0.2920 ca        1 6PB     -0.359800
      7 C6         -1.5080   -0.5660    0.0340 cp        1 6PB      0.545800
      8 N7         -1.2260    1.9190    0.7290 na        1 6PB     -0.266300
      9 C8         -2.1980    2.9280    0.7770 cc        1 6PB      0.447700
     10 N9         -3.4250    2.5340    0.3950 nd        1 6PB     -0.637700
     11 C61        -0.1110   -0.9960    0.2240 cp        1 6PB     -0.154500
     12 C62         0.9300   -0.2230   -0.3060 ca        1 6PB     -0.100000
     13 C63         2.2560   -0.6120   -0.1050 ca        1 6PB     -0.033900
     14 BR63        3.6470    0.4280   -0.8050 br        1 6PB     -0.083100
     15 C64         2.5450   -1.7750    0.6160 ca        1 6PB     -0.092000
     16 C65         1.5050   -2.5490    1.1280 ca        1 6PB     -0.134000
     17 C66         0.1780   -2.1670    0.9330 ca        1 6PB     -0.075000
     18 HN2        -4.3360   -2.8180   -1.3030 hn        1 6PB      0.420800
     19 HN2A       -5.5550   -1.6630   -1.2390 hn        1 6PB      0.420800
     20 H8         -1.9500    3.9500    1.0950 h5        1 6PB      0.074800
     21 H62         0.6970    0.6760   -0.8990 ha        1 6PB      0.150000
     22 H64         3.5890   -2.0870    0.7770 ha        1 6PB      0.150000
     23 H65         1.7340   -3.4680    1.6880 ha        1 6PB      0.144000
     24 H66        -0.6410   -2.7860    1.3320 ha        1 6PB      0.157000
     25 HN7        -0.2820    1.9740    1.0070 hn        1 6PB      0.315700
@<TRIPOS>BOND
     1    1    2 ar  
     2    1    7 ar  
     3    2    3 1   
     4    2    4 ar  
     5    3   18 1   
     6    3   19 1   
     7    4    5 ar  
     8    5    6 ar  
     9    5   10 1   
    10    6    7 ar  
    11    6    8 1   
    12    7   11 1   
    13    8    9 1   
    14    8   25 1   
    15    9   10 2   
    16    9   20 1   
    17   11   12 ar  
    18   11   17 ar  
    19   12   13 ar  
    20   12   21 1   
    21   13   14 1   
    22   13   15 ar  
    23   15   16 ar  
    24   15   22 1   
    25   16   17 ar  
    26   16   23 1   
    27   17   24 1   
@<TRIPOS>SUBSTRUCTURE
     1 6PB         1 TEMP              0 ****  ****    0 ROOT
