@<TRIPOS>MOLECULE
6PC
   13    10     1     0     0
SMALL
bcc


@<TRIPOS>ATOM
      1 C1         -0.6300   -0.0550   -0.6310 c1        1 6PC     -0.025000
      2 C3         -0.4400   -0.1370    1.7210 c1        1 6PC     -0.159500
      3 C4          0.9270    0.0680    1.6190 c1        1 6PC     -0.159500
      4 C2         -1.4780   -0.1510   -1.8800 c1        1 6PC      0.383000
      5 C5          1.5050    0.2110    0.3910 c1        1 6PC     -0.116000
      6 C6          0.7370    0.1500   -0.7350 c2        1 6PC     -0.176000
      7 O1         -2.0290    0.8800   -2.3470 o         1 6PC     -0.546000
      8 O2         -1.6210   -1.2590   -2.4600 o         1 6PC     -0.546000
      9 N2         -1.2060   -0.1970    0.5960 n1        1 6PC     -0.136000
     10 H3         -0.8540   -0.2380    2.5990 ha        1 6PC      0.118000
     11 H4          1.4790    0.0820    2.4230 ha        1 6PC      0.118000
     12 H5          2.4620    0.3930    0.3200 ha        1 6PC      0.106000
     13 H6          1.1490    0.2520   -1.6140 ha        1 6PC      0.139000
@<TRIPOS>BOND
     1    1    6 1   
     2    1    9 1   
     3    2    3 1   
     4    2   10 1   
     5    3   11 1   
     6    4    7 1   
     7    4    8 1   
     8    5    6 1   
     9    5   12 1   
    10    6   13 1   
@<TRIPOS>SUBSTRUCTURE
     1 6PC         1 TEMP              0 ****  ****    0 ROOT
