@<TRIPOS>MOLECULE
6PC
   13    13     1     0     0
SMALL
bcc


@<TRIPOS>ATOM
      1 C1         -0.0440   -0.2200   -0.0160 ca        1 6PC      0.392800
      2 C3         -0.1510   -0.2630    2.2880 ca        1 6PC      0.378200
      3 C4          1.2350   -0.1060    2.4290 ca        1 6PC     -0.297300
      4 C2         -0.7040   -0.2780   -1.4130 c         1 6PC      0.824100
      5 C5          2.0040   -0.0020    1.2640 ca        1 6PC     -0.116000
      6 C6          1.3650   -0.0590    0.0320 ca        1 6PC     -0.241300
      7 O1         -0.7950   -1.4110   -1.9500 o         1 6PC     -0.811300
      8 O2         -1.0510    0.8190   -1.9210 o         1 6PC     -0.811300
      9 N2         -0.7920   -0.3210    1.1020 nb        1 6PC     -0.662000
     10 H3         -0.7970   -0.3480    3.1790 h4        1 6PC     -0.010900
     11 H4          1.6990   -0.0650    3.4200 ha        1 6PC      0.110000
     12 H5          3.0930    0.1220    1.3290 ha        1 6PC      0.106000
     13 H6          1.9230    0.0170   -0.9100 ha        1 6PC      0.139000
@<TRIPOS>BOND
     1    1    4 1   
     2    1    6 ar  
     3    1    9 ar  
     4    2    3 ar  
     5    2    9 ar  
     6    2   10 1   
     7    3    5 ar  
     8    3   11 1   
     9    4    7 1   
    10    4    8 1   
    11    5    6 ar  
    12    5   12 1   
    13    6   13 1   
@<TRIPOS>SUBSTRUCTURE
     1 6PC         1 TEMP              0 ****  ****    0 ROOT
