@<TRIPOS>MOLECULE
6PC
   13    13     1     0     0
SMALL
bcc


@<TRIPOS>ATOM
      1 C1         -0.0370   -0.2560   -0.0180 ca        1 6PC      0.392800
      2 C3         -0.1250   -0.4210    2.2810 ca        1 6PC      0.378200
      3 C4          1.2330   -0.1060    2.4300 ca        1 6PC     -0.297300
      4 C2         -0.6920   -0.3250   -1.4170 c         1 6PC      0.824100
      5 C5          1.9770    0.1440    1.2720 ca        1 6PC     -0.116000
      6 C6          1.3430    0.0700    0.0380 ca        1 6PC     -0.241300
      7 O1         -0.6490   -1.4340   -2.0080 o         1 6PC     -0.811800
      8 O2         -1.1730    0.7440   -1.8710 o         1 6PC     -0.811800
      9 N2         -0.7610   -0.4990    1.0930 nb        1 6PC     -0.662000
     10 H3         -0.7510   -0.6270    3.1670 h4        1 6PC     -0.010900
     11 H4          1.6940   -0.0580    3.4220 ha        1 6PC      0.110000
     12 H5          3.0440    0.3950    1.3430 ha        1 6PC      0.106000
     13 H6          1.8830    0.2580   -0.8990 ha        1 6PC      0.139000
@<TRIPOS>BOND
     1    1    4 1   
     2    1    6 ar  
     3    1    9 ar  
     4    2    3 ar  
     5    2    9 ar  
     6    2   10 1   
     7    3    5 ar  
     8    3   11 1   
     9    4    7 1   
    10    4    8 1   
    11    5    6 ar  
    12    5   12 1   
    13    6   13 1   
@<TRIPOS>SUBSTRUCTURE
     1 6PC         1 TEMP              0 ****  ****    0 ROOT
