@<TRIPOS>MOLECULE
6PC
   13    13     1     0     0
SMALL
bcc


@<TRIPOS>ATOM
      1 C1          0.1590    0.0220    0.0560 ca        1 6PC      0.392800
      2 C3         -1.8100    1.2080    0.2580 ca        1 6PC      0.378200
      3 C4         -2.6020    0.0790    0.0040 ca        1 6PC     -0.297300
      4 C2          1.7020   -0.0720    0.0720 c         1 6PC      0.824100
      5 C5         -1.9520   -1.1370   -0.2340 ca        1 6PC     -0.116000
      6 C6         -0.5630   -1.1710   -0.2090 ca        1 6PC     -0.241300
      7 O1          2.2400   -0.3590    1.1710 o         1 6PC     -0.811300
      8 O2          2.2910    0.0990   -1.0250 o         1 6PC     -0.811300
      9 N2         -0.4610    1.1980    0.2870 nb        1 6PC     -0.662000
     10 H3         -2.2800    2.1880    0.4510 h4        1 6PC     -0.010900
     11 H4         -3.6950    0.1490   -0.0070 ha        1 6PC      0.110000
     12 H5         -2.5340   -2.0460   -0.4380 ha        1 6PC      0.106000
     13 H6         -0.0060   -2.0990   -0.3900 ha        1 6PC      0.139000
@<TRIPOS>BOND
     1    1    4 1   
     2    1    6 ar  
     3    1    9 ar  
     4    2    3 ar  
     5    2    9 ar  
     6    2   10 1   
     7    3    5 ar  
     8    3   11 1   
     9    4    7 1   
    10    4    8 1   
    11    5    6 ar  
    12    5   12 1   
    13    6   13 1   
@<TRIPOS>SUBSTRUCTURE
     1 6PC         1 TEMP              0 ****  ****    0 ROOT
