@<TRIPOS>MOLECULE
6PE
   61    60     1     0     0
SMALL
bcc


@<TRIPOS>ATOM
      1 O1          0.4940   -0.4540   -0.3890 o         1 6PE     -0.795300
      2 O2          2.7730   -1.1760   -1.4940 oh        1 6PE     -0.742400
      3 P1          1.9320   -0.6170   -0.2670 p5        1 6PE      1.636500
      4 O3          2.4420   -1.6790    0.8230 os        1 6PE     -0.584200
      5 C1          1.5060   -2.2660    1.6930 c3        1 6PE      0.170400
      6 C2          1.7660   -1.8900    3.1570 c3        1 6PE      0.116100
      7 C3          3.2460   -1.7830    3.5210 c3        1 6PE      0.121400
      8 O4          3.6910   -0.4540    3.2400 os        1 6PE     -0.435900
      9 C4          4.9280   -0.2920    2.6710 c         1 6PE      0.644100
     10 O5          5.6350   -1.2840    2.4890 o         1 6PE     -0.547000
     11 C5          5.2030    1.1440    2.3520 c3        1 6PE     -0.134400
     12 C6          6.6570    1.3640    1.9940 c3        1 6PE     -0.077400
     13 C7          6.8900    2.7940    1.5560 c3        1 6PE     -0.078400
     14 C8          8.3380    3.0210    1.1790 c3        1 6PE     -0.080400
     15 C9          8.5790    4.4440    0.7450 c3        1 6PE     -0.093100
     16 O6          1.0850   -0.6450    3.3720 os        1 6PE     -0.437900
     17 C10         0.7040   -0.3390    4.6530 c         1 6PE      0.643100
     18 O7          0.9460   -1.1530    5.5460 o         1 6PE     -0.544000
     19 C11         0.0360    0.9970    4.7400 c3        1 6PE     -0.126400
     20 C12        -1.0110    1.0130    5.8330 c3        1 6PE     -0.079400
     21 C13        -1.5860    2.4020    6.0050 c3        1 6PE     -0.079400
     22 C14        -2.6470    2.4230    7.0850 c3        1 6PE     -0.079400
     23 C15        -3.2220    3.8040    7.2650 c3        1 6PE     -0.093100
     24 O8          2.7910    0.6880    0.0840 os        1 6PE     -0.588200
     25 C16         2.1510    1.9460    0.0230 c3        1 6PE      0.164400
     26 C17         3.0030    2.9080   -0.8170 c3        1 6PE      0.145800
     27 N1          3.0390    2.5660   -2.2150 n3        1 6PE     -0.919800
     28 H1          1.6340   -3.3820    1.6010 h1        1 6PE      0.073700
     29 H2          0.4630   -1.9620    1.3940 h1        1 6PE      0.073700
     30 H3          1.3020   -2.6840    3.8120 h1        1 6PE      0.083700
     31 H4          3.3770   -1.9300    4.6270 h1        1 6PE      0.077700
     32 H5          3.8360   -2.5430    2.9450 h1        1 6PE      0.077700
     33 H6          4.5340    1.4300    1.4910 hc        1 6PE      0.086200
     34 H7          4.9130    1.7760    3.2320 hc        1 6PE      0.086200
     35 H8          6.9510    0.6570    1.1730 hc        1 6PE      0.056700
     36 H9          7.3040    1.1240    2.8780 hc        1 6PE      0.056700
     37 H10         6.2300    3.0320    0.6790 hc        1 6PE      0.038200
     38 H11         6.6030    3.4940    2.3850 hc        1 6PE      0.038200
     39 H12         8.6230    2.3200    0.3500 hc        1 6PE      0.042200
     40 H13         8.9950    2.7780    2.0560 hc        1 6PE      0.042200
     41 H14         7.9520    4.6970   -0.1440 hc        1 6PE      0.033033
     42 H15         9.6520    4.5900    0.4720 hc        1 6PE      0.033033
     43 H16         8.3240    5.1560    1.5670 hc        1 6PE      0.033033
     44 H17        -0.4230    1.2530    3.7490 hc        1 6PE      0.080700
     45 H18         0.8370    1.7560    4.9530 hc        1 6PE      0.080700
     46 H19        -0.5510    0.6640    6.7970 hc        1 6PE      0.057700
     47 H20        -1.8310    0.2910    5.5790 hc        1 6PE      0.057700
     48 H21        -0.7660    3.1210    6.2700 hc        1 6PE      0.040700
     49 H22        -2.0310    2.7490    5.0350 hc        1 6PE      0.040700
     50 H23        -3.4670    1.7050    6.8170 hc        1 6PE      0.042200
     51 H24        -2.2020    2.0700    8.0520 hc        1 6PE      0.042200
     52 H25        -4.0020    3.7970    8.0650 hc        1 6PE      0.034033
     53 H26        -2.4240    4.5290    7.5580 hc        1 6PE      0.034033
     54 H27        -3.6920    4.1640    6.3180 hc        1 6PE      0.034033
     55 H28         2.0990    2.3530    1.0720 h1        1 6PE      0.064200
     56 H29         1.1140    1.8270   -0.3980 h1        1 6PE      0.064200
     57 H30         4.0320    2.9460   -0.3460 h1        1 6PE      0.035200
     58 H31         2.5410    3.9320   -0.7170 h1        1 6PE      0.035200
     59 H32         3.4900    1.6860   -2.3620 hn        1 6PE      0.356800
     60 H33         3.5160    3.2730   -2.7370 hn        1 6PE      0.356800
     61 H131        3.6220   -1.5610   -1.2860 ho        1 6PE      0.486000
@<TRIPOS>BOND
     1    1    3 2   
     2    2    3 1   
     3    2   61 1   
     4    3    4 1   
     5    3   24 1   
     6    4    5 1   
     7    5    6 1   
     8    5   28 1   
     9    5   29 1   
    10    6    7 1   
    11    6   16 1   
    12    6   30 1   
    13    7    8 1   
    14    7   31 1   
    15    7   32 1   
    16    8    9 1   
    17    9   10 2   
    18    9   11 1   
    19   11   12 1   
    20   11   33 1   
    21   11   34 1   
    22   12   13 1   
    23   12   35 1   
    24   12   36 1   
    25   13   14 1   
    26   13   37 1   
    27   13   38 1   
    28   14   15 1   
    29   14   39 1   
    30   14   40 1   
    31   15   41 1   
    32   15   42 1   
    33   15   43 1   
    34   16   17 1   
    35   17   18 2   
    36   17   19 1   
    37   19   20 1   
    38   19   44 1   
    39   19   45 1   
    40   20   21 1   
    41   20   46 1   
    42   20   47 1   
    43   21   22 1   
    44   21   48 1   
    45   21   49 1   
    46   22   23 1   
    47   22   50 1   
    48   22   51 1   
    49   23   52 1   
    50   23   53 1   
    51   23   54 1   
    52   24   25 1   
    53   25   26 1   
    54   25   55 1   
    55   25   56 1   
    56   26   27 1   
    57   26   57 1   
    58   26   58 1   
    59   27   59 1   
    60   27   60 1   
@<TRIPOS>SUBSTRUCTURE
     1 6PE         1 TEMP              0 ****  ****    0 ROOT
