@<TRIPOS>MOLECULE
6PE
   60    59     1     0     0
SMALL
bcc


@<TRIPOS>ATOM
      1 O1         -0.7830   -0.9440   -4.1410 o         1 6PE     -0.830000
      2 O2         -1.3670    1.4490   -4.2930 o         1 6PE     -0.830000
      3 P1         -1.7130    0.1380   -3.6330 p5        1 6PE      1.434800
      4 O3         -1.5490    0.2800   -2.0500 os        1 6PE     -0.575200
      5 C1         -0.3070    0.8070   -1.5300 c3        1 6PE      0.189400
      6 C2         -0.2760    0.6410   -0.0320 c3        1 6PE      0.106100
      7 C3          1.1790    0.4500    0.4310 c3        1 6PE      0.112400
      8 O4          1.7220   -0.7490   -0.1660 os        1 6PE     -0.438900
      9 C4          3.0250   -1.1170    0.3450 c         1 6PE      0.664100
     10 O5          3.5070   -0.5040    1.2910 o         1 6PE     -0.574000
     11 C5          3.8420   -2.2510   -0.3460 c3        1 6PE     -0.160400
     12 C6          5.2620   -2.3240    0.2870 c3        1 6PE     -0.068400
     13 C7          6.1510   -3.2780   -0.5460 c3        1 6PE     -0.080400
     14 C8          7.5190   -3.4850    0.1830 c3        1 6PE     -0.079400
     15 C9          8.4630   -4.2720   -0.7180 c3        1 6PE     -0.091100
     16 O6         -0.8130    1.7800    0.5740 os        1 6PE     -0.429900
     17 C10        -1.5820    1.5050    1.7580 c         1 6PE      0.633100
     18 O7         -1.9330    0.3810    2.0000 o         1 6PE     -0.557000
     19 C11        -1.9050    2.6410    2.7430 c3        1 6PE     -0.132400
     20 C12        -3.1470    2.2870    3.5370 c3        1 6PE     -0.078400
     21 C13        -3.5060    3.4550    4.4730 c3        1 6PE     -0.078400
     22 C14        -4.7590    3.1260    5.2290 c3        1 6PE     -0.080400
     23 C15        -5.0290    4.2200    6.2670 c3        1 6PE     -0.092100
     24 O8         -3.2260   -0.2530   -3.9810 os        1 6PE     -0.567200
     25 C16        -3.5090   -0.7810   -5.2590 c3        1 6PE      0.136400
     26 C17        -4.9660   -0.5100   -5.6080 c3        1 6PE      0.132800
     27 N1         -5.3090   -1.2150   -6.7790 n3        1 6PE     -0.907800
     28 H1         -0.2360    1.7640   -1.7550 h1        1 6PE      0.049700
     29 H2          0.4470    0.3210   -1.9280 h1        1 6PE      0.049700
     30 H3         -0.8070   -0.1460    0.2220 h1        1 6PE      0.096700
     31 H4          1.2040    0.3680    1.4120 h1        1 6PE      0.064700
     32 H5          1.7170    1.2280    0.1530 h1        1 6PE      0.064700
     33 H6          3.3840   -3.1060   -0.2200 hc        1 6PE      0.123700
     34 H7          3.9210   -2.0600   -1.3000 hc        1 6PE      0.123700
     35 H8          5.1940   -2.6570    1.1980 hc        1 6PE      0.042200
     36 H9          5.6600   -1.4340    0.2960 hc        1 6PE      0.042200
     37 H10         6.3090   -2.8860   -1.4370 hc        1 6PE      0.047700
     38 H11         5.7020   -4.1400   -0.6440 hc        1 6PE      0.047700
     39 H12         7.3740   -3.9790    1.0130 hc        1 6PE      0.034200
     40 H13         7.9180   -2.6070    0.3890 hc        1 6PE      0.034200
     41 H14         8.5630   -3.8030   -1.5770 hc        1 6PE      0.028033
     42 H15         9.3390   -4.3520   -0.2850 hc        1 6PE      0.028033
     43 H16         8.0960   -5.1610   -0.8750 hc        1 6PE      0.028033
     44 H17        -1.1520    2.7660    3.3550 hc        1 6PE      0.075700
     45 H18        -2.0610    3.4610    2.2500 hc        1 6PE      0.075700
     46 H19        -3.8950    2.1190    2.9190 hc        1 6PE      0.054200
     47 H20        -2.9750    1.4810    4.0700 hc        1 6PE      0.054200
     48 H21        -3.6490    4.2680    3.9410 hc        1 6PE      0.039200
     49 H22        -2.7700    3.6040    5.1080 hc        1 6PE      0.039200
     50 H23        -4.6500    2.2660    5.6820 hc        1 6PE      0.039700
     51 H24        -5.5140    3.0730    4.6050 hc        1 6PE      0.039700
     52 H25        -5.1640    5.0810    5.8090 hc        1 6PE      0.030033
     53 H26        -5.8330    3.9940    6.7800 hc        1 6PE      0.030033
     54 H27        -4.2610    4.2910    6.8750 hc        1 6PE      0.030033
     55 H28        -2.9320   -0.3570   -5.9220 h1        1 6PE      0.028700
     56 H29        -3.3470   -1.7520   -5.2570 h1        1 6PE      0.028700
     57 H30        -5.5390   -0.8060   -4.8690 h1        1 6PE      0.053200
     58 H31        -5.0940    0.4500   -5.7560 h1        1 6PE      0.053200
     59 H32        -4.8870   -2.0260   -6.7810 hn        1 6PE      0.332300
     60 H33        -5.0520   -0.7370   -7.5070 hn        1 6PE      0.332300
@<TRIPOS>BOND
     1    1    3 1   
     2    2    3 1   
     3    3    4 1   
     4    3   24 1   
     5    4    5 1   
     6    5    6 1   
     7    5   28 1   
     8    5   29 1   
     9    6    7 1   
    10    6   16 1   
    11    6   30 1   
    12    7    8 1   
    13    7   31 1   
    14    7   32 1   
    15    8    9 1   
    16    9   10 2   
    17    9   11 1   
    18   11   12 1   
    19   11   33 1   
    20   11   34 1   
    21   12   13 1   
    22   12   35 1   
    23   12   36 1   
    24   13   14 1   
    25   13   37 1   
    26   13   38 1   
    27   14   15 1   
    28   14   39 1   
    29   14   40 1   
    30   15   41 1   
    31   15   42 1   
    32   15   43 1   
    33   16   17 1   
    34   17   18 2   
    35   17   19 1   
    36   19   20 1   
    37   19   44 1   
    38   19   45 1   
    39   20   21 1   
    40   20   46 1   
    41   20   47 1   
    42   21   22 1   
    43   21   48 1   
    44   21   49 1   
    45   22   23 1   
    46   22   50 1   
    47   22   51 1   
    48   23   52 1   
    49   23   53 1   
    50   23   54 1   
    51   24   25 1   
    52   25   26 1   
    53   25   55 1   
    54   25   56 1   
    55   26   27 1   
    56   26   57 1   
    57   26   58 1   
    58   27   59 1   
    59   27   60 1   
@<TRIPOS>SUBSTRUCTURE
     1 6PE         1 TEMP              0 ****  ****    0 ROOT
