@<TRIPOS>MOLECULE
6PE
   61    60     1     0     0
SMALL
bcc


@<TRIPOS>ATOM
      1 O1          2.5400   -0.9360   -1.0310 o         1 6PE     -0.817300
      2 O2          3.1700    1.3980    0.0070 oh        1 6PE     -0.748400
      3 P1          2.1160    0.2490   -0.2990 p5        1 6PE      1.639500
      4 O3          1.4360   -0.0250    1.1210 os        1 6PE     -0.550200
      5 C1          1.3380   -1.3610    1.5620 c3        1 6PE      0.146400
      6 C2          1.8620   -1.5160    2.9940 c3        1 6PE      0.114100
      7 C3          3.3700   -1.7460    3.1110 c3        1 6PE      0.129400
      8 O4          4.1060   -0.6550    2.5670 os        1 6PE     -0.439900
      9 C4          4.7280    0.2210    3.4200 c         1 6PE      0.649100
     10 O5          4.7530   -0.0370    4.6230 o         1 6PE     -0.542000
     11 C5          5.3160    1.3930    2.6950 c3        1 6PE     -0.133400
     12 C6          6.8300    1.3270    2.7160 c3        1 6PE     -0.076400
     13 C7          7.4270    2.5590    2.0690 c3        1 6PE     -0.078400
     14 C8          8.9400    2.4990    2.0730 c3        1 6PE     -0.080400
     15 C9          9.5410    3.7240    1.4350 c3        1 6PE     -0.092100
     16 O6          1.5680   -0.3550    3.7800 os        1 6PE     -0.415900
     17 C10         0.2810   -0.2000    4.2250 c         1 6PE      0.644100
     18 O7         -0.5400   -1.0840    3.9700 o         1 6PE     -0.554000
     19 C11         0.0940    1.0820    4.9740 c3        1 6PE     -0.126400
     20 C12        -0.9630    0.9380    6.0470 c3        1 6PE     -0.079400
     21 C13        -1.2420    2.2710    6.7080 c3        1 6PE     -0.079400
     22 C14        -2.2860    2.1340    7.7950 c3        1 6PE     -0.080400
     23 C15        -2.5730    3.4580    8.4550 c3        1 6PE     -0.093100
     24 O8          0.9970    1.1290   -1.0460 os        1 6PE     -0.586200
     25 C16         0.8300    0.9600   -2.4340 c3        1 6PE      0.166400
     26 C17         1.3060    2.2150   -3.1850 c3        1 6PE      0.126800
     27 N1          2.7330    2.4100   -3.1130 n3        1 6PE     -0.938800
     28 H1          1.9020   -2.0440    0.8690 h1        1 6PE      0.073200
     29 H2          0.2390   -1.6220    1.5740 h1        1 6PE      0.073200
     30 H3          1.3420   -2.4130    3.4440 h1        1 6PE      0.077700
     31 H4          3.6570   -2.6270    2.4750 h1        1 6PE      0.078200
     32 H5          3.6430   -1.9240    4.1840 h1        1 6PE      0.078200
     33 H6          4.9600    2.3210    3.2160 hc        1 6PE      0.087700
     34 H7          4.9360    1.4170    1.6370 hc        1 6PE      0.087700
     35 H8          7.1880    1.2410    3.7760 hc        1 6PE      0.053200
     36 H9          7.1740    0.4100    2.1690 hc        1 6PE      0.053200
     37 H10         7.0560    2.6480    1.0140 hc        1 6PE      0.042700
     38 H11         7.0860    3.4760    2.6190 hc        1 6PE      0.042700
     39 H12         9.2780    1.5820    1.5220 hc        1 6PE      0.040700
     40 H13         9.3070    2.4040    3.1290 hc        1 6PE      0.040700
     41 H14        10.6560    3.6590    1.4460 hc        1 6PE      0.033033
     42 H15         9.2050    3.8230    0.3750 hc        1 6PE      0.033033
     43 H16         9.2360    4.6470    1.9860 hc        1 6PE      0.033033
     44 H17         1.0730    1.4000    5.4220 hc        1 6PE      0.082200
     45 H18        -0.2090    1.8630    4.2250 hc        1 6PE      0.082200
     46 H19        -0.6200    0.1980    6.8170 hc        1 6PE      0.056700
     47 H20        -1.9050    0.5290    5.5930 hc        1 6PE      0.056700
     48 H21        -1.5960    3.0070    5.9380 hc        1 6PE      0.041200
     49 H22        -0.2940    2.6810    7.1460 hc        1 6PE      0.041200
     50 H23        -3.2310    1.7180    7.3550 hc        1 6PE      0.041200
     51 H24        -1.9290    1.3990    8.5650 hc        1 6PE      0.041200
     52 H25        -3.3430    3.3340    9.2540 hc        1 6PE      0.033367
     53 H26        -2.9550    4.1960    7.7080 hc        1 6PE      0.033367
     54 H27        -1.6480    3.8770    8.9190 hc        1 6PE      0.033367
     55 H28        -0.2750    0.8440   -2.6170 h1        1 6PE      0.063200
     56 H29         1.3730    0.0350   -2.7740 h1        1 6PE      0.063200
     57 H30         0.9240    2.1240   -4.2440 h1        1 6PE      0.042700
     58 H31         0.8090    3.1110   -2.7150 h1        1 6PE      0.042700
     59 H32         3.2250    1.6790   -3.5880 hn        1 6PE      0.359300
     60 H33         2.9920    2.2520   -0.3890 ho        1 6PE      0.492000
     61 H131        2.9890    3.2920   -3.5070 hn        1 6PE      0.359300
@<TRIPOS>BOND
     1    1    3 2   
     2    2    3 1   
     3    2   60 1   
     4    3    4 1   
     5    3   24 1   
     6    4    5 1   
     7    5    6 1   
     8    5   28 1   
     9    5   29 1   
    10    6    7 1   
    11    6   16 1   
    12    6   30 1   
    13    7    8 1   
    14    7   31 1   
    15    7   32 1   
    16    8    9 1   
    17    9   10 2   
    18    9   11 1   
    19   11   12 1   
    20   11   33 1   
    21   11   34 1   
    22   12   13 1   
    23   12   35 1   
    24   12   36 1   
    25   13   14 1   
    26   13   37 1   
    27   13   38 1   
    28   14   15 1   
    29   14   39 1   
    30   14   40 1   
    31   15   41 1   
    32   15   42 1   
    33   15   43 1   
    34   16   17 1   
    35   17   18 2   
    36   17   19 1   
    37   19   20 1   
    38   19   44 1   
    39   19   45 1   
    40   20   21 1   
    41   20   46 1   
    42   20   47 1   
    43   21   22 1   
    44   21   48 1   
    45   21   49 1   
    46   22   23 1   
    47   22   50 1   
    48   22   51 1   
    49   23   52 1   
    50   23   53 1   
    51   23   54 1   
    52   24   25 1   
    53   25   26 1   
    54   25   55 1   
    55   25   56 1   
    56   26   27 1   
    57   26   57 1   
    58   26   58 1   
    59   27   59 1   
    60   27   61 1   
@<TRIPOS>SUBSTRUCTURE
     1 6PE         1 TEMP              0 ****  ****    0 ROOT
