@<TRIPOS>MOLECULE
6PE
   61    60     1     0     0
SMALL
bcc


@<TRIPOS>ATOM
      1 O1          2.5430   -0.9720   -1.0100 o         1 6PE     -0.817300
      2 O2          3.1750    1.3720    0.0040 oh        1 6PE     -0.748400
      3 P1          2.1200    0.2210   -0.2910 p5        1 6PE      1.639500
      4 O3          1.4370   -0.0370    1.1310 os        1 6PE     -0.550200
      5 C1          1.3360   -1.3680    1.5860 c3        1 6PE      0.146400
      6 C2          1.8570   -1.5100    3.0190 c3        1 6PE      0.114100
      7 C3          3.3650   -1.7400    3.1410 c3        1 6PE      0.129400
      8 O4          4.1030   -0.6560    2.5870 os        1 6PE     -0.439900
      9 C4          4.7260    0.2280    3.4330 c         1 6PE      0.649100
     10 O5          4.7490   -0.0190    4.6380 o         1 6PE     -0.542000
     11 C5          5.3160    1.3910    2.6970 c3        1 6PE     -0.133400
     12 C6          6.8300    1.3250    2.7220 c3        1 6PE     -0.076400
     13 C7          7.4290    2.5500    2.0640 c3        1 6PE     -0.078400
     14 C8          8.9420    2.4890    2.0720 c3        1 6PE     -0.080400
     15 C9          9.5460    3.7070    1.4240 c3        1 6PE     -0.092100
     16 O6          1.5630   -0.3410    3.7930 os        1 6PE     -0.415900
     17 C10         0.2760   -0.1810    4.2350 c         1 6PE      0.644100
     18 O7         -0.5450   -1.0670    3.9890 o         1 6PE     -0.554000
     19 C11         0.0900    1.1080    4.9720 c3        1 6PE     -0.126400
     20 C12        -0.9690    0.9760    6.0460 c3        1 6PE     -0.079400
     21 C13        -1.2470    2.3150    6.6930 c3        1 6PE     -0.079400
     22 C14        -2.2930    2.1890    7.7800 c3        1 6PE     -0.080400
     23 C15        -2.5790    3.5200    8.4270 c3        1 6PE     -0.093100
     24 O8          1.0030    1.0940   -1.0490 os        1 6PE     -0.586200
     25 C16         0.8370    0.9110   -2.4350 c3        1 6PE      0.166400
     26 C17         1.3170    2.1570   -3.1990 c3        1 6PE      0.126800
     27 N1          2.7440    2.3510   -3.1270 n8        1 6PE     -0.938800
     28 H1          0.2360   -1.6270    1.5990 h1        1 6PE      0.073200
     29 H2          1.8990   -2.0590    0.9000 h1        1 6PE      0.073200
     30 H3          1.3360   -2.4020    3.4770 h1        1 6PE      0.077700
     31 H4          3.6370   -1.9080    4.2160 h1        1 6PE      0.078200
     32 H5          3.6520   -2.6280    2.5140 h1        1 6PE      0.078200
     33 H6          4.9380    1.4050    1.6380 hc        1 6PE      0.087700
     34 H7          4.9590    2.3250    3.2080 hc        1 6PE      0.087700
     35 H8          7.1860    1.2490    3.7830 hc        1 6PE      0.053200
     36 H9          7.1740    0.4020    2.1850 hc        1 6PE      0.053200
     37 H10         7.0880    3.4730    2.6040 hc        1 6PE      0.042700
     38 H11         7.0600    2.6290    1.0080 hc        1 6PE      0.042700
     39 H12         9.3070    2.4040    3.1300 hc        1 6PE      0.040700
     40 H13         9.2810    1.5660    1.5300 hc        1 6PE      0.040700
     41 H14         9.2400    4.6350    1.9650 hc        1 6PE      0.033033
     42 H15        10.6610    3.6420    1.4390 hc        1 6PE      0.033033
     43 H16         9.2120    3.7960    0.3620 hc        1 6PE      0.033033
     44 H17         1.0690    1.4300    5.4180 hc        1 6PE      0.082200
     45 H18        -0.2110    1.8820    4.2150 hc        1 6PE      0.082200
     46 H19        -1.9100    0.5640    5.5940 hc        1 6PE      0.056700
     47 H20        -0.6270    0.2420    6.8230 hc        1 6PE      0.056700
     48 H21        -1.5990    3.0440    5.9160 hc        1 6PE      0.041200
     49 H22        -0.2990    2.7280    7.1290 hc        1 6PE      0.041200
     50 H23        -1.9380    1.4610    8.5570 hc        1 6PE      0.041200
     51 H24        -3.2370    1.7710    7.3430 hc        1 6PE      0.041200
     52 H25        -1.6540    3.9420    8.8890 hc        1 6PE      0.033367
     53 H26        -2.9580    4.2520    7.6730 hc        1 6PE      0.033367
     54 H27        -3.3510    3.4040    9.2260 hc        1 6PE      0.033367
     55 H28         1.3800   -0.0180   -2.7650 h1        1 6PE      0.063200
     56 H29        -0.2680    0.7940   -2.6190 h1        1 6PE      0.063200
     57 H30         0.8200    3.0590   -2.7400 h1        1 6PE      0.042700
     58 H31         0.9360    2.0550   -4.2580 h1        1 6PE      0.042700
     59 H32         2.9980    2.2210   -0.4000 ho        1 6PE      0.492000
     60 H33         3.2350    1.6140   -3.5940 hn        1 6PE      0.359300
     61 H131        3.0020    3.2280   -3.5300 hn        1 6PE      0.359300
@<TRIPOS>BOND
     1    1    3 2   
     2    2    3 1   
     3    2   59 1   
     4    3    4 1   
     5    3   24 1   
     6    4    5 1   
     7    5    6 1   
     8    5   28 1   
     9    5   29 1   
    10    6    7 1   
    11    6   16 1   
    12    6   30 1   
    13    7    8 1   
    14    7   31 1   
    15    7   32 1   
    16    8    9 1   
    17    9   10 2   
    18    9   11 1   
    19   11   12 1   
    20   11   33 1   
    21   11   34 1   
    22   12   13 1   
    23   12   35 1   
    24   12   36 1   
    25   13   14 1   
    26   13   37 1   
    27   13   38 1   
    28   14   15 1   
    29   14   39 1   
    30   14   40 1   
    31   15   41 1   
    32   15   42 1   
    33   15   43 1   
    34   16   17 1   
    35   17   18 2   
    36   17   19 1   
    37   19   20 1   
    38   19   44 1   
    39   19   45 1   
    40   20   21 1   
    41   20   46 1   
    42   20   47 1   
    43   21   22 1   
    44   21   48 1   
    45   21   49 1   
    46   22   23 1   
    47   22   50 1   
    48   22   51 1   
    49   23   52 1   
    50   23   53 1   
    51   23   54 1   
    52   24   25 1   
    53   25   26 1   
    54   25   55 1   
    55   25   56 1   
    56   26   27 1   
    57   26   57 1   
    58   26   58 1   
    59   27   60 1   
    60   27   61 1   
@<TRIPOS>SUBSTRUCTURE
     1 6PE         1 TEMP              0 ****  ****    0 ROOT
