@<TRIPOS>MOLECULE
6PE
   60    59     1     0     0
SMALL
bcc


@<TRIPOS>ATOM
      1 O1         -0.0650    3.5640   -0.9950 o         1 6PE     -0.830000
      2 O2          2.4770    3.0440   -1.3900 o         1 6PE     -0.830000
      3 P1          1.0810    2.6450   -1.1310 p5        1 6PE      1.429800
      4 O3          0.6670    1.4580   -2.2030 os        1 6PE     -0.558200
      5 C1         -0.6340    1.4460   -2.6850 c3        1 6PE      0.183400
      6 C2         -1.3030    0.0690   -2.5190 c3        1 6PE      0.119100
      7 C3         -0.3390   -1.1110   -2.6140 c3        1 6PE      0.131400
      8 O4          0.2220   -1.3400   -1.3180 os        1 6PE     -0.421900
      9 C4          1.5440   -1.6870   -1.2560 c         1 6PE      0.656100
     10 O5          2.0950   -2.1030   -2.2790 o         1 6PE     -0.570000
     11 C5          2.1060   -1.5140    0.1190 c3        1 6PE     -0.142400
     12 C6          3.4150   -2.2530    0.2810 c3        1 6PE     -0.074400
     13 C7          4.1020   -1.8550    1.5690 c3        1 6PE     -0.086400
     14 C8          5.3650   -2.6620    1.7890 c3        1 6PE     -0.077400
     15 C9          6.0670   -2.2540    3.0580 c3        1 6PE     -0.092100
     16 O6         -1.9570    0.1030   -1.2390 os        1 6PE     -0.395900
     17 C10        -2.9710   -0.7720   -1.0110 c         1 6PE      0.638100
     18 O7         -3.3550   -1.5180   -1.9190 o         1 6PE     -0.581000
     19 C11        -3.4880   -0.6800    0.3940 c3        1 6PE     -0.131400
     20 C12        -4.9660   -0.9970    0.4580 c3        1 6PE     -0.077400
     21 C13        -5.4470   -1.0360    1.8920 c3        1 6PE     -0.079400
     22 C14        -6.9300   -1.3330    1.9640 c3        1 6PE     -0.080400
     23 C15        -7.4160   -1.3790    3.3890 c3        1 6PE     -0.091100
     24 O8          1.2020    1.7190    0.2440 os        1 6PE     -0.575200
     25 C16         1.6360    2.4180    1.3680 c3        1 6PE      0.159400
     26 C17         3.0310    1.9500    1.8230 c3        1 6PE      0.129800
     27 N1          4.1220    2.1060    0.8930 n3        1 6PE     -0.909800
     28 H1         -0.6010    1.6420   -3.7970 h1        1 6PE      0.051700
     29 H2         -1.2620    2.2320   -2.1740 h1        1 6PE      0.051700
     30 H3         -2.0860   -0.0560   -3.3210 h1        1 6PE      0.052700
     31 H4          0.4630   -0.8820   -3.3640 h1        1 6PE      0.063200
     32 H5         -0.8920   -2.0460   -2.8940 h1        1 6PE      0.063200
     33 H6          1.3530   -1.8640    0.8730 hc        1 6PE      0.098700
     34 H7          2.2410   -0.4030    0.2800 hc        1 6PE      0.098700
     35 H8          4.0820   -2.0260   -0.5930 hc        1 6PE      0.047200
     36 H9          3.2280   -3.3590    0.2730 hc        1 6PE      0.047200
     37 H10         3.4040   -2.0070    2.4340 hc        1 6PE      0.049700
     38 H11         4.3550   -0.7610    1.5350 hc        1 6PE      0.049700
     39 H12         6.0540   -2.5170    0.9150 hc        1 6PE      0.034200
     40 H13         5.1110   -3.7540    1.8320 hc        1 6PE      0.034200
     41 H14         6.3440   -1.1720    3.0220 hc        1 6PE      0.029033
     42 H15         5.4050   -2.4150    3.9430 hc        1 6PE      0.029033
     43 H16         6.9970   -2.8540    3.2000 hc        1 6PE      0.029033
     44 H17        -2.9000   -1.4110    1.0110 hc        1 6PE      0.082700
     45 H18        -3.2830    0.3470    0.7980 hc        1 6PE      0.082700
     46 H19        -5.5410   -0.2210   -0.1140 hc        1 6PE      0.052200
     47 H20        -5.1590   -1.9840   -0.0410 hc        1 6PE      0.052200
     48 H21        -4.8800   -1.8200    2.4590 hc        1 6PE      0.040700
     49 H22        -5.2370   -0.0510    2.3870 hc        1 6PE      0.040700
     50 H23        -7.4960   -0.5460    1.3980 hc        1 6PE      0.038200
     51 H24        -7.1390   -2.3140    1.4620 hc        1 6PE      0.038200
     52 H25        -6.8810   -2.1740    3.9630 hc        1 6PE      0.029700
     53 H26        -7.2370   -0.4010    3.8990 hc        1 6PE      0.029700
     54 H27        -8.5110   -1.5980    3.4200 hc        1 6PE      0.029700
     55 H28         1.6490    3.5250    1.1600 h1        1 6PE      0.016200
     56 H29         0.9120    2.2170    2.2090 h1        1 6PE      0.016200
     57 H30         3.2900    2.5290    2.7540 h1        1 6PE      0.026200
     58 H31         2.9590    0.8600    2.1000 h1        1 6PE      0.026200
     59 H32         4.0050    1.4720    0.1220 hn        1 6PE      0.361300
     60 H33         4.1150    3.0330    0.5030 hn        1 6PE      0.361300
@<TRIPOS>BOND
     1    1    3 1   
     2    2    3 1   
     3    3    4 1   
     4    3   24 1   
     5    4    5 1   
     6    5    6 1   
     7    5   28 1   
     8    5   29 1   
     9    6    7 1   
    10    6   16 1   
    11    6   30 1   
    12    7    8 1   
    13    7   31 1   
    14    7   32 1   
    15    8    9 1   
    16    9   10 2   
    17    9   11 1   
    18   11   12 1   
    19   11   33 1   
    20   11   34 1   
    21   12   13 1   
    22   12   35 1   
    23   12   36 1   
    24   13   14 1   
    25   13   37 1   
    26   13   38 1   
    27   14   15 1   
    28   14   39 1   
    29   14   40 1   
    30   15   41 1   
    31   15   42 1   
    32   15   43 1   
    33   16   17 1   
    34   17   18 2   
    35   17   19 1   
    36   19   20 1   
    37   19   44 1   
    38   19   45 1   
    39   20   21 1   
    40   20   46 1   
    41   20   47 1   
    42   21   22 1   
    43   21   48 1   
    44   21   49 1   
    45   22   23 1   
    46   22   50 1   
    47   22   51 1   
    48   23   52 1   
    49   23   53 1   
    50   23   54 1   
    51   24   25 1   
    52   25   26 1   
    53   25   55 1   
    54   25   56 1   
    55   26   27 1   
    56   26   57 1   
    57   26   58 1   
    58   27   59 1   
    59   27   60 1   
@<TRIPOS>SUBSTRUCTURE
     1 6PE         1 TEMP              0 ****  ****    0 ROOT
