@<TRIPOS>MOLECULE
6PG
   27    25     1     0     0
SMALL
bcc


@<TRIPOS>ATOM
      1 C1         -3.4240   -0.6130   -1.9370 c1        1 6PG      0.313000
      2 C2         -1.9330   -0.8650   -1.9060 c2        1 6PG     -0.057000
      3 C3         -1.4380   -0.7850   -0.4800 c3        1 6PG      0.000000
      4 C4          0.0030   -0.3300   -0.4720 c3        1 6PG     -0.002000
      5 C5          0.2770    0.4540    0.7910 c3        1 6PG     -0.028000
      6 C6          1.7660    0.6760    0.9340 c3        1 6PG      0.038000
      7 O1A        -4.2270   -1.5810   -1.8890 o         1 6PG     -0.593500
      8 O1         -3.8610    0.5650   -2.0120 o         1 6PG     -0.593500
      9 O2         -1.6630   -2.1460   -2.4240 oh        1 6PG     -0.371000
     10 O3         -1.5330   -2.0540    0.1230 oh        1 6PG     -0.344000
     11 O4          0.8500   -1.4530   -0.5200 oh        1 6PG     -0.355000
     12 O5         -0.3780    1.6980    0.7230 oh        1 6PG     -0.374000
     13 O6          2.0070    1.5830    1.9840 os        1 6PG     -0.736000
     14 P           3.5030    1.8630    2.4090 p5        1 6PG      1.553500
     15 O1P         3.5420    3.0140    3.3860 o         1 6PG     -0.935167
     16 O2P         4.0800    0.6300    3.0610 o         1 6PG     -0.935167
     17 O3P         4.3170    2.2140    1.1860 o         1 6PG     -0.935167
     18 H2         -1.4770   -0.1910   -2.4480 h4        1 6PG      0.097000
     19 H3         -1.9850   -0.1450    0.0190 h1        1 6PG      0.134000
     20 H4          0.1700    0.2380   -1.2500 h1        1 6PG      0.104000
     21 H5         -0.0530   -0.0460    1.5630 h1        1 6PG      0.079000
     22 H61         2.2050   -0.1770    1.1320 h1        1 6PG      0.044000
     23 H62         2.1230    1.0410    0.0980 h1        1 6PG      0.044000
     24 HO2        -1.5870   -2.0980   -3.3090 ho        1 6PG      0.212000
     25 HO3        -1.8730   -1.9690    0.9400 ho        1 6PG      0.195000
     26 HO4         1.4610   -1.3380   -1.1560 ho        1 6PG      0.206000
     27 HO5        -0.8710    1.8140    1.4540 ho        1 6PG      0.239000
@<TRIPOS>BOND
     1    1    7 1   
     2    1    8 1   
     3    2    3 1   
     4    2    9 1   
     5    2   18 1   
     6    3    4 1   
     7    3   10 1   
     8    3   19 1   
     9    4    5 1   
    10    4   11 1   
    11    4   20 1   
    12    5    6 1   
    13    5   12 1   
    14    5   21 1   
    15    6   13 1   
    16    6   22 1   
    17    6   23 1   
    18    9   24 1   
    19   10   25 1   
    20   11   26 1   
    21   12   27 1   
    22   13   14 1   
    23   14   15 1   
    24   14   16 1   
    25   14   17 1   
@<TRIPOS>SUBSTRUCTURE
     1 6PG         1 TEMP              0 ****  ****    0 ROOT
