@<TRIPOS>MOLECULE
6PG
   27    26     1     0     0
SMALL
bcc


@<TRIPOS>ATOM
      1 C1          0.6020   -0.3830   -4.6460 c         1 6PG      0.893600
      2 C2         -0.4370   -0.3420   -3.5020 c3        1 6PG      0.004100
      3 C3          0.0870    0.3340   -2.2160 c3        1 6PG      0.111100
      4 C4         -0.2210   -0.4990   -0.9520 c3        1 6PG      0.109100
      5 C5          0.4630    0.0750    0.3050 c3        1 6PG      0.083100
      6 C6         -0.1020   -0.5560    1.6070 c3        1 6PG      0.188400
      7 O1A         0.4860    0.4930   -5.5600 o         1 6PG     -0.858800
      8 O1          1.4730   -1.2950   -4.6690 o         1 6PG     -0.858800
      9 O2         -1.5990    0.3540   -3.9430 oh        1 6PG     -0.643800
     10 O3         -0.4830    1.6300   -2.0940 oh        1 6PG     -0.616800
     11 O4         -1.6330   -0.5710   -0.7840 oh        1 6PG     -0.627800
     12 O5          1.8560   -0.1670    0.1790 oh        1 6PG     -0.646800
     13 O6          0.8070   -0.4090    2.6230 os        1 6PG     -0.574200
     14 P           0.1440    0.0860    4.1620 p5        1 6PG      1.319900
     15 O1P        -0.3810   -1.2090    4.7220 o         1 6PG     -0.935167
     16 O2P         1.3590    0.6540    4.8430 o         1 6PG     -0.935167
     17 O3P        -0.9170    1.0750    3.7510 o         1 6PG     -0.935167
     18 H2         -0.7880   -1.3820   -3.2700 h1        1 6PG      0.058700
     19 H3          1.1960    0.5040   -2.2760 h1        1 6PG      0.094700
     20 H4          0.1160   -1.5590   -1.1210 h1        1 6PG      0.064700
     21 H5          0.3070    1.1900    0.3240 h1        1 6PG      0.039700
     22 H61        -1.0800   -0.0630    1.8660 h1        1 6PG      0.004700
     23 H62        -0.2810   -1.6510    1.3850 h1        1 6PG      0.004700
     24 HO2        -1.2800    1.0610   -4.5250 ho        1 6PG      0.413000
     25 HO3        -1.4410    1.4980   -2.0730 ho        1 6PG      0.396000
     26 HO4        -1.8770    0.0980   -0.1320 ho        1 6PG      0.407000
     27 HO5         2.1860   -0.2980    1.0830 ho        1 6PG      0.440000
@<TRIPOS>BOND
     1    1    2 1   
     2    1    7 1   
     3    1    8 1   
     4    2    3 1   
     5    2    9 1   
     6    2   18 1   
     7    3    4 1   
     8    3   10 1   
     9    3   19 1   
    10    4    5 1   
    11    4   11 1   
    12    4   20 1   
    13    5    6 1   
    14    5   12 1   
    15    5   21 1   
    16    6   13 1   
    17    6   22 1   
    18    6   23 1   
    19    9   24 1   
    20   10   25 1   
    21   11   26 1   
    22   12   27 1   
    23   13   14 1   
    24   14   15 1   
    25   14   16 1   
    26   14   17 1   
@<TRIPOS>SUBSTRUCTURE
     1 6PG         1 TEMP              0 ****  ****    0 ROOT
