@<TRIPOS>MOLECULE
6PH
   99    97     1     0     0
SMALL
bcc


@<TRIPOS>ATOM
      1 P          -7.6150    2.9950    2.2770 p3        1 6PH      2.513000
      2 O11        -6.1100    2.7690    1.8320 o         1 6PH     -0.719000
      3 O12        -8.2520    1.6630    2.5940 o         1 6PH     -1.234000
      4 O13        -8.3780    3.6640    1.1550 o         1 6PH     -1.234000
      5 O14        -7.6510    3.8760    3.5070 o         1 6PH     -1.234000
      6 C1         -5.1190    3.6590    2.3210 c3        1 6PH      0.084000
      7 C2         -3.7810    3.3110    1.7100 c3        1 6PH     -0.034000
      8 C3         -3.2270    4.5240    0.9720 c3        1 6PH     -0.114000
      9 O31        -2.6050    4.1000   -0.2490 os        1 6PH     -0.240000
     10 O32        -2.2070    6.3280   -0.6630 o         1 6PH     -0.414000
     11 C31        -2.1030    5.1830   -1.0540 c2        1 6PH      0.297000
     12 C32        -1.4500    4.8910   -2.4220 c3        1 6PH     -0.160000
     13 C33        -1.2790    6.2050   -3.1990 c3        1 6PH     -0.162000
     14 C34         0.0880    6.2140   -3.9000 c3        1 6PH     -0.153000
     15 C35        -0.1010    6.5440   -5.3840 c3        1 6PH     -0.161000
     16 C36         1.2690    6.8430   -6.0220 c3        1 6PH     -0.155000
     17 C37         1.1880    6.6160   -7.5550 c3        1 6PH     -0.159000
     18 C38         2.5960    6.7950   -8.1810 c3        1 6PH     -0.156000
     19 C39         2.6160    6.1650   -9.6050 c3        1 6PH     -0.159000
     20 C3A         4.0610    6.1910  -10.1600 c3        1 6PH     -0.157000
     21 C3B         4.1360    5.3430  -11.4390 c3        1 6PH     -0.158000
     22 C3C         5.5310    5.4680  -12.0510 c3        1 6PH     -0.159000
     23 C3D         5.6550    4.5190  -13.2300 c3        1 6PH     -0.209000
     24 O21        -2.8800    2.9280    2.7330 os        1 6PH     -0.265000
     25 O22        -3.5210    0.7410    2.4270 o         1 6PH     -0.408000
     26 C21        -2.6660    1.5110    2.8210 c2        1 6PH      0.311000
     27 C22        -1.3540    0.9650    3.4270 c3        1 6PH     -0.168000
     28 C23        -1.6180   -0.4020    4.0720 c3        1 6PH     -0.155000
     29 C24        -0.3130   -1.2150    4.1030 c3        1 6PH     -0.157000
     30 C25        -0.4190   -2.3150    5.1740 c3        1 6PH     -0.157000
     31 C26         0.4440   -3.5280    4.7580 c3        1 6PH     -0.158000
     32 C27         0.5380   -4.5230    5.9390 c3        1 6PH     -0.158000
     33 C28         0.7860   -5.9570    5.3920 c3        1 6PH     -0.157000
     34 C29         0.9930   -6.9330    6.5760 c3        1 6PH     -0.158000
     35 C2A         0.7530   -8.3870    6.0970 c3        1 6PH     -0.157000
     36 C2B         0.9440   -9.3560    7.2820 c3        1 6PH     -0.158000
     37 C2C         0.5020  -10.7580    6.8700 c3        1 6PH     -0.158000
     38 C2D         0.7440  -11.7290    8.0260 c3        1 6PH     -0.158000
     39 C2E         0.0680  -13.0510    7.7270 c3        1 6PH     -0.159000
     40 C2F         0.2260  -13.9820    8.9220 c3        1 6PH     -0.210000
     41 H1         -5.0630    3.5820    3.2930 h1        1 6PH      0.047000
     42 H1A        -5.3580    4.5770    2.0810 h1        1 6PH      0.047000
     43 H2         -3.8920    2.5730    1.0840 h1        1 6PH      0.116000
     44 H3         -3.9620    5.1470    0.7660 h1        1 6PH      0.190000
     45 H3A        -2.5640    4.9760    1.5360 h1        1 6PH      0.190000
     46 H32        -2.0170    4.2860   -2.9300 hc        1 6PH      0.094500
     47 H32A       -0.5750    4.4780   -2.2840 hc        1 6PH      0.094500
     48 H33        -1.9880    6.2820   -3.8670 hc        1 6PH      0.107500
     49 H33A       -1.3320    6.9580   -2.5810 hc        1 6PH      0.107500
     50 H34         0.6610    6.8890   -3.4870 hc        1 6PH      0.068000
     51 H34A        0.5050    5.3340   -3.8120 hc        1 6PH      0.068000
     52 H35        -0.6780    7.3250   -5.4730 hc        1 6PH      0.087500
     53 H35A       -0.5120    5.7810   -5.8380 hc        1 6PH      0.087500
     54 H36         1.5160    7.7700   -5.8430 hc        1 6PH      0.071500
     55 H36A        1.9440    6.2460   -5.6390 hc        1 6PH      0.071500
     56 H37         0.8640    5.7100   -7.7340 hc        1 6PH      0.082000
     57 H37A        0.5700    7.2670   -7.9500 hc        1 6PH      0.082000
     58 H38         3.2610    6.3510   -7.6190 hc        1 6PH      0.074500
     59 H38A        2.8070    7.7520   -8.2440 hc        1 6PH      0.074500
     60 H39         2.3020    5.2390   -9.5570 hc        1 6PH      0.080500
     61 H39A        2.0260    6.6810  -10.2010 hc        1 6PH      0.080500
     62 H3AA        4.3150    7.1160  -10.3650 hc        1 6PH      0.075500
     63 H3AB        4.6720    5.8260   -9.4920 hc        1 6PH      0.075500
     64 H3B         3.9590    4.4090  -11.2200 hc        1 6PH      0.079500
     65 H3BA        3.4670    5.6610  -12.0810 hc        1 6PH      0.079500
     66 H3C         6.2000    5.2420  -11.3810 hc        1 6PH      0.075500
     67 H3CA        5.6720    6.3870  -12.3560 hc        1 6PH      0.075500
     68 H3D         4.9290    4.6910  -13.8670 hc        1 6PH      0.068667
     69 H3DA        5.5980    3.5950  -12.9120 hc        1 6PH      0.068667
     70 H3DB        6.5210    4.6600  -13.6740 hc        1 6PH      0.068667
     71 H22        -0.6860    0.8680    2.7230 hc        1 6PH      0.109500
     72 H22A       -1.0240    1.5880    4.1070 hc        1 6PH      0.109500
     73 H23        -1.9450   -0.2730    4.9890 hc        1 6PH      0.091000
     74 H23A       -2.2910   -0.8840    3.5510 hc        1 6PH      0.091000
     75 H24         0.4350   -0.6230    4.3170 hc        1 6PH      0.075500
     76 H24A       -0.1650   -1.6240    3.2310 hc        1 6PH      0.075500
     77 H25        -0.1000   -1.9670    6.0310 hc        1 6PH      0.078500
     78 H25A       -1.3540   -2.5950    5.2640 hc        1 6PH      0.078500
     79 H26         0.0340   -3.9710    3.9900 hc        1 6PH      0.076500
     80 H26A        1.3420   -3.2220    4.5160 hc        1 6PH      0.076500
     81 H27         1.2800   -4.2650    6.5260 hc        1 6PH      0.077500
     82 H27A       -0.2980   -4.5070    6.4450 hc        1 6PH      0.077500
     83 H28         1.5890   -5.9570    4.8230 hc        1 6PH      0.077500
     84 H28A        0.0120   -6.2430    4.8650 hc        1 6PH      0.077500
     85 H29         0.3620   -6.7170    7.2890 hc        1 6PH      0.078000
     86 H29A        1.9100   -6.8470    6.9140 hc        1 6PH      0.078000
     87 H2A         1.3950   -8.6070    5.3860 hc        1 6PH      0.077500
     88 H2AA       -0.1590   -8.4700    5.7510 hc        1 6PH      0.077500
     89 H2B         1.8880   -9.3740    7.5400 hc        1 6PH      0.078000
     90 H2C         1.0180  -11.0470    6.0890 hc        1 6PH      0.078000
     91 H2D         0.3750  -11.3530    8.8480 hc        1 6PH      0.078000
     92 H2DA        1.7050  -11.8720    8.1360 hc        1 6PH      0.078000
     93 H2E        -0.8820  -12.9000    7.5560 hc        1 6PH      0.077000
     94 H2F         1.1770  -14.1940    9.0480 hc        1 6PH      0.069667
     95 H2FA       -0.1200  -13.5420    9.7260 hc        1 6PH      0.069667
     96 H58         0.4080   -9.0550    8.0360 hc        1 6PH      0.078000
     97 H59        -0.4490  -10.7470    6.6470 hc        1 6PH      0.078000
     98 H60         0.4800  -13.4580    6.9400 hc        1 6PH      0.077000
     99 H61        -0.2750  -14.8090    8.7610 hc        1 6PH      0.069667
@<TRIPOS>BOND
     1    1    3 1   
     2    1    4 1   
     3    1    5 1   
     4    2    6 1   
     5    6    7 1   
     6    6   41 1   
     7    6   42 1   
     8    7    8 1   
     9    7   24 1   
    10    7   43 1   
    11    8    9 1   
    12    8   44 1   
    13    8   45 1   
    14    9   11 1   
    15   10   11 1   
    16   11   12 1   
    17   12   13 1   
    18   12   46 1   
    19   12   47 1   
    20   13   14 1   
    21   13   48 1   
    22   13   49 1   
    23   14   15 1   
    24   14   50 1   
    25   14   51 1   
    26   15   16 1   
    27   15   52 1   
    28   15   53 1   
    29   16   17 1   
    30   16   54 1   
    31   16   55 1   
    32   17   18 1   
    33   17   56 1   
    34   17   57 1   
    35   18   19 1   
    36   18   58 1   
    37   18   59 1   
    38   19   20 1   
    39   19   60 1   
    40   19   61 1   
    41   20   21 1   
    42   20   62 1   
    43   20   63 1   
    44   21   22 1   
    45   21   64 1   
    46   21   65 1   
    47   22   23 1   
    48   22   66 1   
    49   22   67 1   
    50   23   68 1   
    51   23   69 1   
    52   23   70 1   
    53   24   26 1   
    54   25   26 1   
    55   26   27 1   
    56   27   28 1   
    57   27   71 1   
    58   27   72 1   
    59   28   29 1   
    60   28   73 1   
    61   28   74 1   
    62   29   30 1   
    63   29   75 1   
    64   29   76 1   
    65   30   31 1   
    66   30   77 1   
    67   30   78 1   
    68   31   32 1   
    69   31   79 1   
    70   31   80 1   
    71   32   33 1   
    72   32   81 1   
    73   32   82 1   
    74   33   34 1   
    75   33   83 1   
    76   33   84 1   
    77   34   35 1   
    78   34   85 1   
    79   34   86 1   
    80   35   36 1   
    81   35   87 1   
    82   35   88 1   
    83   36   37 1   
    84   36   89 1   
    85   36   96 1   
    86   37   38 1   
    87   37   90 1   
    88   37   97 1   
    89   38   39 1   
    90   38   91 1   
    91   38   92 1   
    92   39   40 1   
    93   39   93 1   
    94   39   98 1   
    95   40   94 1   
    96   40   95 1   
    97   40   99 1   
@<TRIPOS>SUBSTRUCTURE
     1 6PH         1 TEMP              0 ****  ****    0 ROOT
