@<TRIPOS>MOLECULE
6PH
   99    98     1     0     0
SMALL
bcc


@<TRIPOS>ATOM
      1 P          -4.9700   -2.2850    0.6400 p5        1 6PH      1.321900
      2 O11        -3.2530   -2.0350    0.7360 os        1 6PH     -0.566200
      3 O12        -5.1920   -3.3780    1.6400 o         1 6PH     -0.912833
      4 O13        -5.4890   -0.9080    0.9430 o         1 6PH     -0.912833
      5 O14        -5.0630   -2.6920   -0.8130 o         1 6PH     -0.912833
      6 C1         -2.4980   -3.1590    0.9060 c3        1 6PH      0.225400
      7 C2         -1.5360   -3.4540   -0.2780 c3        1 6PH      0.075100
      8 C3         -2.2630   -3.5240   -1.6210 c3        1 6PH      0.066400
      9 O31        -1.6300   -2.7550   -2.6470 os        1 6PH     -0.448900
     10 O32        -1.4690   -0.9700   -3.8450 o         1 6PH     -0.614000
     11 C31        -1.9860   -1.4360   -2.8150 c         1 6PH      0.666100
     12 C32        -2.8230   -0.7560   -1.8020 c3        1 6PH     -0.239400
     13 C33        -3.2370    0.6560   -2.1350 c3        1 6PH     -0.036400
     14 C34        -4.0870    1.1950   -0.9960 c3        1 6PH     -0.122400
     15 C35        -5.3850    1.8140   -1.4680 c3        1 6PH     -0.046400
     16 C36        -6.3320    1.9720   -0.2970 c3        1 6PH     -0.115400
     17 C37        -7.7080    2.4110   -0.7470 c3        1 6PH     -0.064400
     18 C38        -8.6530    2.5240    0.4310 c3        1 6PH     -0.082400
     19 C39       -10.0460    2.9200   -0.0090 c3        1 6PH     -0.076400
     20 C3A       -10.9870    3.0300    1.1710 c3        1 6PH     -0.080400
     21 C3B       -12.3820    3.4200    0.7330 c3        1 6PH     -0.078400
     22 C3C       -13.3230    3.5290    1.9150 c3        1 6PH     -0.081400
     23 C3D       -14.7140    3.9160    1.4840 c3        1 6PH     -0.089100
     24 O21        -0.5620   -2.3880   -0.3130 os        1 6PH     -0.394900
     25 O22         1.1520   -3.8560   -0.4400 o         1 6PH     -0.600000
     26 C21         0.7450   -2.6870   -0.4690 c         1 6PH      0.640100
     27 C22         1.5790   -1.4510   -0.6590 c3        1 6PH     -0.140400
     28 C23         3.0030   -1.6680   -0.2000 c3        1 6PH     -0.074400
     29 C24         3.8660   -0.4670   -0.5220 c3        1 6PH     -0.079400
     30 C25         5.2890   -0.6720   -0.0500 c3        1 6PH     -0.078400
     31 C26         6.1550    0.5260   -0.3760 c3        1 6PH     -0.079400
     32 C27         7.5790    0.3210    0.0960 c3        1 6PH     -0.078400
     33 C28         8.4450    1.5190   -0.2310 c3        1 6PH     -0.079400
     34 C29         9.8680    1.3150    0.2410 c3        1 6PH     -0.078400
     35 C2A        10.7340    2.5130   -0.0860 c3        1 6PH     -0.079400
     36 C2B        12.1580    2.3080    0.3850 c3        1 6PH     -0.078400
     37 C2C        13.0230    3.5070    0.0590 c3        1 6PH     -0.079400
     38 C2D        14.4470    3.3020    0.5290 c3        1 6PH     -0.079400
     39 C2E        15.3130    4.5000    0.2030 c3        1 6PH     -0.080400
     40 C2F        16.7320    4.3010    0.6700 c3        1 6PH     -0.091100
     41 H1         -1.8370   -3.0450    1.8170 h1        1 6PH      0.011700
     42 H1A        -3.1510   -4.0730    1.0320 h1        1 6PH      0.011700
     43 H2         -1.0110   -4.4280   -0.0750 h1        1 6PH      0.038700
     44 H3         -2.1960   -4.5700   -2.0270 h1        1 6PH      0.109200
     45 H3A        -3.3590   -3.2370   -1.4700 h1        1 6PH      0.109200
     46 H32        -3.7690   -1.3730   -1.5840 hc        1 6PH      0.158200
     47 H32A       -2.2470   -0.7780   -0.8290 hc        1 6PH      0.158200
     48 H33        -2.3330    1.3000   -2.2930 hc        1 6PH      0.009200
     49 H33A       -3.8070    0.6620   -3.1000 hc        1 6PH      0.009200
     50 H34        -4.3500    0.3470   -0.2720 hc        1 6PH      0.085700
     51 H34A       -3.5010    1.9530   -0.4160 hc        1 6PH      0.085700
     52 H35        -5.1990    2.8050   -1.9600 hc        1 6PH      0.006700
     53 H35A       -5.8590    1.1460   -2.2350 hc        1 6PH      0.006700
     54 H36        -6.3880    0.9760    0.2480 hc        1 6PH      0.086700
     55 H36A       -5.9170    2.7220    0.4250 hc        1 6PH      0.086700
     56 H37        -7.6480    3.3980   -1.2770 hc        1 6PH      0.016700
     57 H37A       -8.1150    1.6650   -1.4800 hc        1 6PH      0.016700
     58 H38        -8.6870    1.5380    0.9680 hc        1 6PH      0.048200
     59 H38A       -8.2590    3.2820    1.1580 hc        1 6PH      0.048200
     60 H39       -10.0070    3.9010   -0.5510 hc        1 6PH      0.029200
     61 H39A      -10.4390    2.1580   -0.7330 hc        1 6PH      0.029200
     62 H3AA      -11.0220    2.0470    1.7120 hc        1 6PH      0.040700
     63 H3AB      -10.5940    3.7910    1.8960 hc        1 6PH      0.040700
     64 H3B       -12.3460    4.4010    0.1910 hc        1 6PH      0.033700
     65 H3BA      -12.7750    2.6570    0.0100 hc        1 6PH      0.033700
     66 H3C       -13.3550    2.5460    2.4560 hc        1 6PH      0.037700
     67 H3CA      -12.9270    4.2900    2.6380 hc        1 6PH      0.037700
     68 H3D       -15.3910    3.9910    2.3700 hc        1 6PH      0.024700
     69 H3DA      -14.7050    4.9040    0.9640 hc        1 6PH      0.024700
     70 H3DB      -15.1340    3.1560    0.7820 hc        1 6PH      0.024700
     71 H22         1.5490   -1.1980   -1.7530 hc        1 6PH      0.080200
     72 H22A        1.1070   -0.5990   -0.1020 hc        1 6PH      0.080200
     73 H23         3.0150   -1.8590    0.9050 hc        1 6PH      0.048700
     74 H23A        3.4180   -2.5860   -0.6960 hc        1 6PH      0.048700
     75 H24         3.8580   -0.2850   -1.6290 hc        1 6PH      0.040200
     76 H24A        3.4350    0.4470   -0.0340 hc        1 6PH      0.040200
     77 H25         5.2960   -0.8510    1.0570 hc        1 6PH      0.037700
     78 H25A        5.7170   -1.5890   -0.5350 hc        1 6PH      0.037700
     79 H26         6.1480    0.7040   -1.4840 hc        1 6PH      0.039200
     80 H26A        5.7260    1.4420    0.1090 hc        1 6PH      0.039200
     81 H27         7.5850    0.1430    1.2030 hc        1 6PH      0.037200
     82 H27A        8.0070   -0.5960   -0.3890 hc        1 6PH      0.037200
     83 H28         8.4370    1.6980   -1.3380 hc        1 6PH      0.039200
     84 H28A        8.0160    2.4360    0.2540 hc        1 6PH      0.039200
     85 H29         9.8750    1.1370    1.3480 hc        1 6PH      0.038200
     86 H29A       10.2970    0.3980   -0.2440 hc        1 6PH      0.038200
     87 H2A        10.7260    2.6910   -1.1940 hc        1 6PH      0.039200
     88 H2AA       10.3050    3.4290    0.3990 hc        1 6PH      0.039200
     89 H2B        12.1650    2.1300    1.4930 hc        1 6PH      0.038200
     90 H2C        13.0150    3.6850   -1.0490 hc        1 6PH      0.038700
     91 H2D        14.4550    3.1240    1.6370 hc        1 6PH      0.038700
     92 H2DA       14.8750    2.3860    0.0450 hc        1 6PH      0.038700
     93 H2E        15.3020    4.6780   -0.9050 hc        1 6PH      0.037700
     94 H2F        16.7650    4.1470    1.7760 hc        1 6PH      0.030033
     95 H2FA       17.1870    3.4070    0.1790 hc        1 6PH      0.030033
     96 H58        12.5860    1.3920   -0.1000 hc        1 6PH      0.038200
     97 H59        12.5940    4.4230    0.5430 hc        1 6PH      0.038700
     98 H60        14.8820    5.4160    0.6880 hc        1 6PH      0.037700
     99 H61        17.3530    5.1950    0.4200 hc        1 6PH      0.030033
@<TRIPOS>BOND
     1    1    2 1   
     2    1    3 1   
     3    1    4 1   
     4    1    5 1   
     5    2    6 1   
     6    6    7 1   
     7    6   41 1   
     8    6   42 1   
     9    7    8 1   
    10    7   24 1   
    11    7   43 1   
    12    8    9 1   
    13    8   44 1   
    14    8   45 1   
    15    9   11 1   
    16   10   11 2   
    17   11   12 1   
    18   12   13 1   
    19   12   46 1   
    20   12   47 1   
    21   13   14 1   
    22   13   48 1   
    23   13   49 1   
    24   14   15 1   
    25   14   50 1   
    26   14   51 1   
    27   15   16 1   
    28   15   52 1   
    29   15   53 1   
    30   16   17 1   
    31   16   54 1   
    32   16   55 1   
    33   17   18 1   
    34   17   56 1   
    35   17   57 1   
    36   18   19 1   
    37   18   58 1   
    38   18   59 1   
    39   19   20 1   
    40   19   60 1   
    41   19   61 1   
    42   20   21 1   
    43   20   62 1   
    44   20   63 1   
    45   21   22 1   
    46   21   64 1   
    47   21   65 1   
    48   22   23 1   
    49   22   66 1   
    50   22   67 1   
    51   23   68 1   
    52   23   69 1   
    53   23   70 1   
    54   24   26 1   
    55   25   26 2   
    56   26   27 1   
    57   27   28 1   
    58   27   71 1   
    59   27   72 1   
    60   28   29 1   
    61   28   73 1   
    62   28   74 1   
    63   29   30 1   
    64   29   75 1   
    65   29   76 1   
    66   30   31 1   
    67   30   77 1   
    68   30   78 1   
    69   31   32 1   
    70   31   79 1   
    71   31   80 1   
    72   32   33 1   
    73   32   81 1   
    74   32   82 1   
    75   33   34 1   
    76   33   83 1   
    77   33   84 1   
    78   34   35 1   
    79   34   85 1   
    80   34   86 1   
    81   35   36 1   
    82   35   87 1   
    83   35   88 1   
    84   36   37 1   
    85   36   89 1   
    86   36   96 1   
    87   37   38 1   
    88   37   90 1   
    89   37   97 1   
    90   38   39 1   
    91   38   91 1   
    92   38   92 1   
    93   39   40 1   
    94   39   93 1   
    95   39   98 1   
    96   40   94 1   
    97   40   95 1   
    98   40   99 1   
@<TRIPOS>SUBSTRUCTURE
     1 6PH         1 TEMP              0 ****  ****    0 ROOT
