@<TRIPOS>MOLECULE
6PH
   99    98     1     0     0
SMALL
bcc


@<TRIPOS>ATOM
      1 P           0.8740    0.5950   -3.6350 p5        1 6PH      1.321900
      2 O11         1.3930    0.9560   -2.0170 os        1 6PH     -0.566200
      3 O12        -0.4690   -0.0290   -3.4100 o         1 6PH     -0.912833
      4 O13         0.9470    1.9490   -4.2820 o         1 6PH     -0.912833
      5 O14         1.9840   -0.3550   -4.0260 o         1 6PH     -0.912833
      6 C1          1.0630    0.0340   -1.0670 c3        1 6PH      0.225400
      7 C2          2.2910   -0.6500   -0.4030 c3        1 6PH      0.075100
      8 C3          3.2360   -1.2800   -1.4260 c3        1 6PH      0.066400
      9 O31         4.6090   -0.9420   -1.2120 os        1 6PH     -0.448900
     10 O32         6.3580    0.2360   -1.6590 o         1 6PH     -0.614000
     11 C31         5.1250    0.1840   -1.8130 c         1 6PH      0.666100
     12 C32         4.2250    1.1590   -2.4660 c3        1 6PH     -0.239400
     13 C33         4.9040    2.3020   -3.1790 c3        1 6PH     -0.036400
     14 C34         3.8380    3.1950   -3.7920 c3        1 6PH     -0.122400
     15 C35         4.0900    3.4990   -5.2530 c3        1 6PH     -0.046400
     16 C36         2.8290    4.0510   -5.8860 c3        1 6PH     -0.115400
     17 C37         2.9740    4.1940   -7.3850 c3        1 6PH     -0.064400
     18 C38         1.6920    4.7060   -8.0060 c3        1 6PH     -0.082400
     19 C39         1.8070    4.8120   -9.5120 c3        1 6PH     -0.076400
     20 C3A         0.5210    5.3220  -10.1290 c3        1 6PH     -0.080400
     21 C3B         0.6320    5.4220  -11.6350 c3        1 6PH     -0.078400
     22 C3C        -0.6540    5.9310  -12.2510 c3        1 6PH     -0.081400
     23 C3D        -0.5510    6.0320  -13.7510 c3        1 6PH     -0.089100
     24 O21         2.9970    0.3690    0.3390 os        1 6PH     -0.394900
     25 O22         3.0970   -0.9380    2.1820 o         1 6PH     -0.600000
     26 C21         3.4210    0.1020    1.5930 c         1 6PH      0.640100
     27 C22         4.2840    1.2080    2.1350 c3        1 6PH     -0.140400
     28 C23         4.2400    1.2550    3.6450 c3        1 6PH     -0.074400
     29 C24         5.2170    2.2780    4.1840 c3        1 6PH     -0.079400
     30 C25         5.1680    2.3400    5.6960 c3        1 6PH     -0.078400
     31 C26         6.1480    3.3580    6.2370 c3        1 6PH     -0.079400
     32 C27         6.1010    3.4190    7.7490 c3        1 6PH     -0.078400
     33 C28         7.0810    4.4370    8.2900 c3        1 6PH     -0.079400
     34 C29         7.0350    4.4970    9.8020 c3        1 6PH     -0.078400
     35 C2A         8.0160    5.5150   10.3430 c3        1 6PH     -0.079400
     36 C2B         7.9700    5.5740   11.8550 c3        1 6PH     -0.078400
     37 C2C         8.9510    6.5910   12.3960 c3        1 6PH     -0.079400
     38 C2D         8.9060    6.6510   13.9070 c3        1 6PH     -0.079400
     39 C2E         9.8870    7.6680   14.4500 c3        1 6PH     -0.080400
     40 C2F         9.8450    7.7300   15.9550 c3        1 6PH     -0.091100
     41 H1          0.4980    0.5330   -0.2240 h1        1 6PH      0.011700
     42 H1A         0.4280   -0.7920   -1.5050 h1        1 6PH      0.011700
     43 H2          1.9180   -1.4350    0.3100 h1        1 6PH      0.038700
     44 H3          3.2390   -2.3970   -1.2920 h1        1 6PH      0.109200
     45 H3A         2.8780   -1.0180   -2.4790 h1        1 6PH      0.109200
     46 H32         3.5290    1.5530   -1.6660 hc        1 6PH      0.158200
     47 H32A        3.5280    0.6260   -3.2090 hc        1 6PH      0.158200
     48 H33         5.5910    1.8970   -3.9670 hc        1 6PH      0.009200
     49 H33A        5.5440    2.8820   -2.4640 hc        1 6PH      0.009200
     50 H34         3.7750    4.1540   -3.2170 hc        1 6PH      0.085700
     51 H34A        2.8130    2.6880   -3.7150 hc        1 6PH      0.085700
     52 H35         4.9380    4.2250   -5.3700 hc        1 6PH      0.006700
     53 H35A        4.3840    2.5560   -5.7850 hc        1 6PH      0.006700
     54 H36         1.9720    3.3500   -5.6320 hc        1 6PH      0.086700
     55 H36A        2.5870    5.0480   -5.4360 hc        1 6PH      0.086700
     56 H37         3.8170    4.8940   -7.6300 hc        1 6PH      0.017200
     57 H37A        3.2310    3.1970   -7.8300 hc        1 6PH      0.017200
     58 H38         1.4410    5.7120   -7.5770 hc        1 6PH      0.048200
     59 H38A        0.8520    4.0120   -7.7350 hc        1 6PH      0.048200
     60 H39         2.0540    3.8040   -9.9390 hc        1 6PH      0.029200
     61 H39A        2.6510    5.5000   -9.7800 hc        1 6PH      0.029200
     62 H3AA        0.2740    6.3290   -9.7020 hc        1 6PH      0.040700
     63 H3AB       -0.3210    4.6320   -9.8570 hc        1 6PH      0.040700
     64 H3B         1.4750    6.1100  -11.9060 hc        1 6PH      0.033700
     65 H3BA        0.8780    4.4140  -12.0610 hc        1 6PH      0.033700
     66 H3C        -1.4960    5.2410  -11.9770 hc        1 6PH      0.037700
     67 H3CA       -0.9010    6.9380  -11.8220 hc        1 6PH      0.037700
     68 H3D        -1.5090    6.4080  -14.1850 hc        1 6PH      0.024700
     69 H3DA       -0.3300    5.0320  -14.1980 hc        1 6PH      0.024700
     70 H3DB        0.2680    6.7330  -14.0440 hc        1 6PH      0.024700
     71 H22         3.9490    2.1850    1.6960 hc        1 6PH      0.080200
     72 H22A        5.3300    1.0160    1.7740 hc        1 6PH      0.080200
     73 H23         3.2010    1.5080    3.9820 hc        1 6PH      0.049200
     74 H23A        4.4800    0.2380    4.0560 hc        1 6PH      0.049200
     75 H24         4.9770    3.2880    3.7570 hc        1 6PH      0.039700
     76 H24A        6.2560    2.0170    3.8510 hc        1 6PH      0.039700
     77 H25         5.4030    1.3280    6.1200 hc        1 6PH      0.037700
     78 H25A        4.1290    2.6040    6.0270 hc        1 6PH      0.037700
     79 H26         5.9120    4.3690    5.8120 hc        1 6PH      0.039200
     80 H26A        7.1860    3.0940    5.9040 hc        1 6PH      0.039200
     81 H27         5.0620    3.6830    8.0810 hc        1 6PH      0.037200
     82 H27A        6.3350    2.4070    8.1730 hc        1 6PH      0.037200
     83 H28         6.8460    5.4480    7.8660 hc        1 6PH      0.039200
     84 H28A        8.1190    4.1730    7.9560 hc        1 6PH      0.039200
     85 H29         7.2700    3.4850   10.2260 hc        1 6PH      0.038200
     86 H29A        5.9970    4.7610   10.1350 hc        1 6PH      0.038200
     87 H2A         9.0540    5.2510   10.0080 hc        1 6PH      0.039200
     88 H2AA        7.7800    6.5260    9.9190 hc        1 6PH      0.039200
     89 H2B         6.9320    5.8380   12.1890 hc        1 6PH      0.038200
     90 H2C         8.7150    7.6030   11.9720 hc        1 6PH      0.038700
     91 H2D         7.8680    6.9150   14.2420 hc        1 6PH      0.038700
     92 H2DA        9.1420    5.6390   14.3310 hc        1 6PH      0.038700
     93 H2E        10.9240    7.4030   14.1120 hc        1 6PH      0.037700
     94 H2F         8.8260    8.0170   16.3090 hc        1 6PH      0.030033
     95 H2FA       10.5760    8.4850   16.3330 hc        1 6PH      0.030033
     96 H58         8.2060    4.5620   12.2780 hc        1 6PH      0.038200
     97 H59         9.9890    6.3280   12.0600 hc        1 6PH      0.038700
     98 H60         9.6500    8.6780   14.0240 hc        1 6PH      0.037700
     99 H61        10.1030    6.7370   16.3980 hc        1 6PH      0.030033
@<TRIPOS>BOND
     1    1    2 1   
     2    1    3 1   
     3    1    4 1   
     4    1    5 1   
     5    2    6 1   
     6    6    7 1   
     7    6   41 1   
     8    6   42 1   
     9    7    8 1   
    10    7   24 1   
    11    7   43 1   
    12    8    9 1   
    13    8   44 1   
    14    8   45 1   
    15    9   11 1   
    16   10   11 2   
    17   11   12 1   
    18   12   13 1   
    19   12   46 1   
    20   12   47 1   
    21   13   14 1   
    22   13   48 1   
    23   13   49 1   
    24   14   15 1   
    25   14   50 1   
    26   14   51 1   
    27   15   16 1   
    28   15   52 1   
    29   15   53 1   
    30   16   17 1   
    31   16   54 1   
    32   16   55 1   
    33   17   18 1   
    34   17   56 1   
    35   17   57 1   
    36   18   19 1   
    37   18   58 1   
    38   18   59 1   
    39   19   20 1   
    40   19   60 1   
    41   19   61 1   
    42   20   21 1   
    43   20   62 1   
    44   20   63 1   
    45   21   22 1   
    46   21   64 1   
    47   21   65 1   
    48   22   23 1   
    49   22   66 1   
    50   22   67 1   
    51   23   68 1   
    52   23   69 1   
    53   23   70 1   
    54   24   26 1   
    55   25   26 2   
    56   26   27 1   
    57   27   28 1   
    58   27   71 1   
    59   27   72 1   
    60   28   29 1   
    61   28   73 1   
    62   28   74 1   
    63   29   30 1   
    64   29   75 1   
    65   29   76 1   
    66   30   31 1   
    67   30   77 1   
    68   30   78 1   
    69   31   32 1   
    70   31   79 1   
    71   31   80 1   
    72   32   33 1   
    73   32   81 1   
    74   32   82 1   
    75   33   34 1   
    76   33   83 1   
    77   33   84 1   
    78   34   35 1   
    79   34   85 1   
    80   34   86 1   
    81   35   36 1   
    82   35   87 1   
    83   35   88 1   
    84   36   37 1   
    85   36   89 1   
    86   36   96 1   
    87   37   38 1   
    88   37   90 1   
    89   37   97 1   
    90   38   39 1   
    91   38   91 1   
    92   38   92 1   
    93   39   40 1   
    94   39   93 1   
    95   39   98 1   
    96   40   94 1   
    97   40   95 1   
    98   40   99 1   
@<TRIPOS>SUBSTRUCTURE
     1 6PH         1 TEMP              0 ****  ****    0 ROOT
