@<TRIPOS>MOLECULE
6PH
   99    98     1     0     0
SMALL
bcc


@<TRIPOS>ATOM
      1 P           0.8680    0.5930   -3.6290 p5        1 6PH      1.321900
      2 O11         1.3940    0.9500   -2.0110 os        1 6PH     -0.566200
      3 O12        -0.4810   -0.0190   -3.4000 o         1 6PH     -0.912833
      4 O13         0.9500    1.9460   -4.2760 o         1 6PH     -0.912833
      5 O14         1.9680   -0.3660   -4.0220 o         1 6PH     -0.912833
      6 C1          1.0590    0.0300   -1.0610 c3        1 6PH      0.225400
      7 C2          2.2830   -0.6630   -0.4010 c3        1 6PH      0.075100
      8 C3          3.2200   -1.3020   -1.4260 c3        1 6PH      0.066400
      9 O31         4.5960   -0.9760   -1.2160 os        1 6PH     -0.448900
     10 O32         6.3540    0.1870   -1.6690 o         1 6PH     -0.614000
     11 C31         5.1200    0.1450   -1.8190 c         1 6PH      0.666100
     12 C32         4.2260    1.1280   -2.4690 c3        1 6PH     -0.239400
     13 C33         4.9120    2.2660   -3.1840 c3        1 6PH     -0.036400
     14 C34         3.8520    3.1690   -3.7910 c3        1 6PH     -0.122400
     15 C35         4.1020    3.4770   -5.2520 c3        1 6PH     -0.046400
     16 C36         2.8430    4.0400   -5.8790 c3        1 6PH     -0.115400
     17 C37         2.9850    4.1880   -7.3780 c3        1 6PH     -0.064400
     18 C38         1.7050    4.7130   -7.9940 c3        1 6PH     -0.082400
     19 C39         1.8170    4.8240   -9.4990 c3        1 6PH     -0.076400
     20 C3A         0.5340    5.3460  -10.1100 c3        1 6PH     -0.080400
     21 C3B         0.6410    5.4530  -11.6160 c3        1 6PH     -0.078400
     22 C3C        -0.6420    5.9750  -12.2270 c3        1 6PH     -0.081400
     23 C3D        -0.5420    6.0820  -13.7260 c3        1 6PH     -0.089100
     24 O21         3.0000    0.3500    0.3390 os        1 6PH     -0.394900
     25 O22         3.0900   -0.9550    2.1840 o         1 6PH     -0.600000
     26 C21         3.4220    0.0820    1.5930 c         1 6PH      0.640100
     27 C22         4.2950    1.1810    2.1320 c3        1 6PH     -0.140400
     28 C23         4.2410    1.2410    3.6410 c3        1 6PH     -0.074400
     29 C24         5.2270    2.2560    4.1790 c3        1 6PH     -0.079400
     30 C25         5.1670    2.3310    5.6900 c3        1 6PH     -0.078400
     31 C26         6.1550    3.3420    6.2300 c3        1 6PH     -0.079400
     32 C27         6.0950    3.4180    7.7410 c3        1 6PH     -0.078400
     33 C28         7.0840    4.4290    8.2810 c3        1 6PH     -0.079400
     34 C29         7.0240    4.5050    9.7920 c3        1 6PH     -0.078400
     35 C2A         8.0140    5.5150   10.3320 c3        1 6PH     -0.079400
     36 C2B         7.9540    5.5910   11.8420 c3        1 6PH     -0.078400
     37 C2C         8.9440    6.6020   12.3820 c3        1 6PH     -0.079400
     38 C2D         8.8840    6.6780   13.8920 c3        1 6PH     -0.079400
     39 C2E         9.8740    7.6880   14.4330 c3        1 6PH     -0.080400
     40 C2F         9.8180    7.7670   15.9370 c3        1 6PH     -0.091100
     41 H1          0.5000    0.5330   -0.2170 h1        1 6PH      0.011700
     42 H1A         0.4160   -0.7900   -1.4980 h1        1 6PH      0.011700
     43 H2          1.9050   -1.4450    0.3140 h1        1 6PH      0.038700
     44 H3          2.8610   -1.0370   -2.4790 h1        1 6PH      0.109200
     45 H3A         3.2130   -2.4190   -1.2920 h1        1 6PH      0.109200
     46 H32         3.5220    0.6010   -3.2100 hc        1 6PH      0.158200
     47 H32A        3.5360    1.5280   -1.6670 hc        1 6PH      0.158200
     48 H33         5.5920    1.8550   -3.9760 hc        1 6PH      0.009200
     49 H33A        5.5610    2.8400   -2.4720 hc        1 6PH      0.009200
     50 H34         2.8230    2.6690   -3.7140 hc        1 6PH      0.085700
     51 H34A        3.7960    4.1260   -3.2120 hc        1 6PH      0.085700
     52 H35         4.3880    2.5340   -5.7880 hc        1 6PH      0.006700
     53 H35A        4.9550    4.1970   -5.3670 hc        1 6PH      0.006700
     54 H36         2.6090    5.0370   -5.4250 hc        1 6PH      0.086700
     55 H36A        1.9810    3.3440   -5.6250 hc        1 6PH      0.086700
     56 H37         3.2330    3.1910   -7.8280 hc        1 6PH      0.016700
     57 H37A        3.8320    4.8820   -7.6220 hc        1 6PH      0.016700
     58 H38         0.8600    4.0240   -7.7230 hc        1 6PH      0.048200
     59 H38A        1.4630    5.7180   -7.5590 hc        1 6PH      0.048200
     60 H39         2.0540    3.8160   -9.9310 hc        1 6PH      0.029200
     61 H39A        2.6660    5.5070   -9.7670 hc        1 6PH      0.029200
     62 H3AA       -0.3130    4.6620   -9.8390 hc        1 6PH      0.040700
     63 H3AB        0.2950    6.3540   -9.6780 hc        1 6PH      0.040700
     64 H3B         0.8780    4.4450  -12.0470 hc        1 6PH      0.033700
     65 H3BA        1.4900    6.1360  -11.8860 hc        1 6PH      0.033700
     66 H3C        -0.8800    6.9820  -11.7920 hc        1 6PH      0.037700
     67 H3CA       -1.4890    5.2910  -11.9530 hc        1 6PH      0.037700
     68 H3D         0.2820    6.7780  -14.0170 hc        1 6PH      0.024700
     69 H3DA       -0.3300    5.0830  -14.1790 hc        1 6PH      0.024700
     70 H3DB       -1.4980    6.4680  -14.1550 hc        1 6PH      0.024700
     71 H22         5.3410    0.9730    1.7800 hc        1 6PH      0.080200
     72 H22A        3.9760    2.1590    1.6830 hc        1 6PH      0.080200
     73 H23         4.4660    0.2240    4.0620 hc        1 6PH      0.048700
     74 H23A        3.2030    1.5090    3.9690 hc        1 6PH      0.048700
     75 H24         5.0030    3.2650    3.7420 hc        1 6PH      0.040200
     76 H24A        6.2650    1.9790    3.8570 hc        1 6PH      0.040200
     77 H25         4.1280    2.6110    6.0110 hc        1 6PH      0.037700
     78 H25A        5.3850    1.3210    6.1250 hc        1 6PH      0.037700
     79 H26         5.9360    4.3520    5.7940 hc        1 6PH      0.039200
     80 H26A        7.1930    3.0620    5.9090 hc        1 6PH      0.039200
     81 H27         5.0570    3.6990    8.0620 hc        1 6PH      0.037200
     82 H27A        6.3140    2.4080    8.1770 hc        1 6PH      0.037200
     83 H28         6.8650    5.4390    7.8450 hc        1 6PH      0.039200
     84 H28A        8.1220    4.1480    7.9590 hc        1 6PH      0.039200
     85 H29         7.2430    3.4940   10.2280 hc        1 6PH      0.038200
     86 H29A        5.9870    4.7860   10.1130 hc        1 6PH      0.038200
     87 H2A         7.7950    6.5260    9.8950 hc        1 6PH      0.039200
     88 H2AA        9.0510    5.2340   10.0090 hc        1 6PH      0.039200
     89 H2B         6.9170    5.8720   12.1640 hc        1 6PH      0.038200
     90 H2C         8.7250    7.6120   11.9450 hc        1 6PH      0.038700
     91 H2D         9.1030    5.6680   14.3290 hc        1 6PH      0.038700
     92 H2DA        7.8470    6.9590   14.2140 hc        1 6PH      0.038700
     93 H2E         9.6540    8.6970   13.9940 hc        1 6PH      0.037700
     94 H2F         8.7990    8.0710   16.2780 hc        1 6PH      0.030033
     95 H2FA       10.0580    6.7760   16.3930 hc        1 6PH      0.030033
     96 H58         8.1730    4.5810   12.2780 hc        1 6PH      0.038200
     97 H59         9.9810    6.3210   12.0600 hc        1 6PH      0.038700
     98 H60        10.9100    7.4060   14.1080 hc        1 6PH      0.037700
     99 H61        10.5540    8.5170   16.3140 hc        1 6PH      0.030033
@<TRIPOS>BOND
     1    1    2 1   
     2    1    3 1   
     3    1    4 1   
     4    1    5 1   
     5    2    6 1   
     6    6    7 1   
     7    6   41 1   
     8    6   42 1   
     9    7    8 1   
    10    7   24 1   
    11    7   43 1   
    12    8    9 1   
    13    8   44 1   
    14    8   45 1   
    15    9   11 1   
    16   10   11 2   
    17   11   12 1   
    18   12   13 1   
    19   12   46 1   
    20   12   47 1   
    21   13   14 1   
    22   13   48 1   
    23   13   49 1   
    24   14   15 1   
    25   14   50 1   
    26   14   51 1   
    27   15   16 1   
    28   15   52 1   
    29   15   53 1   
    30   16   17 1   
    31   16   54 1   
    32   16   55 1   
    33   17   18 1   
    34   17   56 1   
    35   17   57 1   
    36   18   19 1   
    37   18   58 1   
    38   18   59 1   
    39   19   20 1   
    40   19   60 1   
    41   19   61 1   
    42   20   21 1   
    43   20   62 1   
    44   20   63 1   
    45   21   22 1   
    46   21   64 1   
    47   21   65 1   
    48   22   23 1   
    49   22   66 1   
    50   22   67 1   
    51   23   68 1   
    52   23   69 1   
    53   23   70 1   
    54   24   26 1   
    55   25   26 2   
    56   26   27 1   
    57   27   28 1   
    58   27   71 1   
    59   27   72 1   
    60   28   29 1   
    61   28   73 1   
    62   28   74 1   
    63   29   30 1   
    64   29   75 1   
    65   29   76 1   
    66   30   31 1   
    67   30   77 1   
    68   30   78 1   
    69   31   32 1   
    70   31   79 1   
    71   31   80 1   
    72   32   33 1   
    73   32   81 1   
    74   32   82 1   
    75   33   34 1   
    76   33   83 1   
    77   33   84 1   
    78   34   35 1   
    79   34   85 1   
    80   34   86 1   
    81   35   36 1   
    82   35   87 1   
    83   35   88 1   
    84   36   37 1   
    85   36   89 1   
    86   36   96 1   
    87   37   38 1   
    88   37   90 1   
    89   37   97 1   
    90   38   39 1   
    91   38   91 1   
    92   38   92 1   
    93   39   40 1   
    94   39   93 1   
    95   39   98 1   
    96   40   94 1   
    97   40   95 1   
    98   40   99 1   
@<TRIPOS>SUBSTRUCTURE
     1 6PH         1 TEMP              0 ****  ****    0 ROOT
