@<TRIPOS>MOLECULE
6PL
  136   135     1     0     0
SMALL
bcc


@<TRIPOS>ATOM
      1 C26         0.4760    2.2230   -0.0120 c3        1 6PL     -0.093100
      2 C25         1.8810    1.7120    0.1770 c3        1 6PL     -0.080400
      3 C24         2.3410    1.8710    1.6110 c3        1 6PL     -0.079400
      4 C23         3.7530    1.3570    1.7960 c3        1 6PL     -0.079400
      5 C22         4.2120    1.5160    3.2300 c3        1 6PL     -0.079400
      6 C21         5.6230    1.0010    3.4160 c3        1 6PL     -0.078400
      7 C20         6.0810    1.1580    4.8500 c3        1 6PL     -0.079400
      8 C19         7.4920    0.6420    5.0360 c3        1 6PL     -0.078400
      9 C18         7.9490    0.7970    6.4710 c3        1 6PL     -0.079400
     10 C17         9.3580    0.2790    6.6570 c3        1 6PL     -0.078400
     11 C16         9.8140    0.4300    8.0920 c3        1 6PL     -0.079400
     12 C15        11.2230   -0.0920    8.2780 c3        1 6PL     -0.077400
     13 C14        11.6760    0.0560    9.7150 c3        1 6PL     -0.081400
     14 C13        13.0820   -0.4750    9.9000 c3        1 6PL     -0.074400
     15 C12        13.5320   -0.3150   11.3360 c3        1 6PL     -0.135400
     16 C11        14.8660   -0.9560   11.5670 c         1 6PL      0.664100
     17 O11        15.3720   -1.9110   10.9640 o         1 6PL     -0.609000
     18 O3         15.5500   -0.3640   12.5830 os        1 6PL     -0.420900
     19 C3         16.7800   -0.9530   13.0280 c3        1 6PL      0.113400
     20 C2         16.7740   -1.0160   14.5540 c3        1 6PL      0.135100
     21 C1         15.6440   -1.8960   15.1020 c3        1 6PL      0.176400
     22 O3P        15.9410   -3.2230   14.7640 os        1 6PL     -0.579200
     23 P          14.7070   -4.2610   15.0580 p5        1 6PL      1.438800
     24 O1P        15.2120   -5.5970   14.6640 o         1 6PL     -0.814000
     25 O2P        13.9590   -3.8460   16.2440 o         1 6PL     -0.814000
     26 O4P        13.8550   -3.8180   13.6860 os        1 6PL     -0.578200
     27 C4         13.3240   -4.8250   12.9070 c3        1 6PL      0.197400
     28 C5         13.9510   -4.8280   11.4990 c3        1 6PL      0.079800
     29 N          15.2520   -5.5660   11.3110 n4        1 6PL     -0.576800
     30 C7         15.1850   -6.9400   11.8850 c3        1 6PL      0.075433
     31 C8         15.5040   -5.6620    9.8410 c3        1 6PL      0.075433
     32 C6         16.3890   -4.8220   11.9300 c3        1 6PL      0.075433
     33 O2         16.5550    0.2820   15.1280 os        1 6PL     -0.426900
     34 C31        17.6130    1.1460   15.1690 c         1 6PL      0.637100
     35 O31        18.6880    0.7960   14.6750 o         1 6PL     -0.555000
     36 C32        17.2600    2.4470   15.8220 c3        1 6PL     -0.127400
     37 C33        18.3920    2.9370   16.7000 c3        1 6PL     -0.079400
     38 C34        18.0880    4.3130   17.2510 c3        1 6PL     -0.078400
     39 C35        19.2060    4.8000   18.1470 c3        1 6PL     -0.079400
     40 C36        18.9080    6.1780   18.6970 c3        1 6PL     -0.079400
     41 C37        20.0250    6.6630   19.5960 c3        1 6PL     -0.079400
     42 C38        19.7280    8.0420   20.1460 c3        1 6PL     -0.078400
     43 C39        20.8430    8.5260   21.0480 c3        1 6PL     -0.079400
     44 C40        20.5460    9.9040   21.5980 c3        1 6PL     -0.079400
     45 C41        21.6610   10.3870   22.5010 c3        1 6PL     -0.079400
     46 C42        21.3640   11.7650   23.0520 c3        1 6PL     -0.079400
     47 C43        22.4780   12.2480   23.9550 c3        1 6PL     -0.079400
     48 C44        22.1810   13.6270   24.5050 c3        1 6PL     -0.079400
     49 C45        23.2950   14.1100   25.4090 c3        1 6PL     -0.079400
     50 C46        22.9990   15.4880   25.9590 c3        1 6PL     -0.079400
     51 C47        24.1120   15.9720   26.8630 c3        1 6PL     -0.080400
     52 C48        23.8210   17.3440   27.4130 c3        1 6PL     -0.092100
     53 H261        0.1570    2.0960   -1.0750 hc        1 6PL      0.032700
     54 H262        0.4120    3.3070    0.2490 hc        1 6PL      0.032700
     55 H263       -0.2380    1.6640    0.6400 hc        1 6PL      0.032700
     56 H251        1.9310    0.6290   -0.1130 hc        1 6PL      0.038200
     57 H252        2.5790    2.2680   -0.5030 hc        1 6PL      0.038200
     58 H241        1.6450    1.3150    2.2920 hc        1 6PL      0.039700
     59 H242        2.2940    2.9540    1.9020 hc        1 6PL      0.039700
     60 H231        3.8000    0.2740    1.5040 hc        1 6PL      0.039200
     61 H232        4.4490    1.9130    1.1150 hc        1 6PL      0.039200
     62 H221        4.1650    2.5980    3.5220 hc        1 6PL      0.039700
     63 H222        3.5150    0.9600    3.9120 hc        1 6PL      0.039700
     64 H211        6.3190    1.5580    2.7350 hc        1 6PL      0.039200
     65 H212        5.6700   -0.0810    3.1230 hc        1 6PL      0.039200
     66 H201        5.3840    0.6020    5.5310 hc        1 6PL      0.040200
     67 H202        6.0340    2.2400    5.1430 hc        1 6PL      0.040200
     68 H191        7.5380   -0.4390    4.7410 hc        1 6PL      0.039200
     69 H192        8.1890    1.2000    4.3570 hc        1 6PL      0.039200
     70 H181        7.2500    0.2400    7.1500 hc        1 6PL      0.040700
     71 H182        7.9030    1.8780    6.7650 hc        1 6PL      0.040700
     72 H171       10.0570    0.8370    5.9790 hc        1 6PL      0.038700
     73 H172        9.4040   -0.8020    6.3590 hc        1 6PL      0.038700
     74 H161        9.1140   -0.1270    8.7700 hc        1 6PL      0.042200
     75 H162        9.7710    1.5110    8.3890 hc        1 6PL      0.042200
     76 H151       11.2670   -1.1720    7.9790 hc        1 6PL      0.039200
     77 H152       11.9230    0.4670    7.6030 hc        1 6PL      0.039200
     78 H141       10.9720   -0.4970   10.3910 hc        1 6PL      0.045200
     79 H142       11.6400    1.1370   10.0120 hc        1 6PL      0.045200
     80 H131       13.7870    0.0710    9.2200 hc        1 6PL      0.048700
     81 H132       13.1230   -1.5600    9.6150 hc        1 6PL      0.048700
     82 H121       13.5850    0.7710   11.6160 hc        1 6PL      0.089200
     83 H122       12.8050   -0.8100   12.0370 hc        1 6PL      0.089200
     84 H31        16.9030   -1.9930   12.6260 h1        1 6PL      0.074700
     85 H32        17.5980   -0.2780   12.6630 h1        1 6PL      0.074700
     86 H2         17.7750   -1.4150   14.8830 h1        1 6PL      0.087700
     87 H11        15.5730   -1.8050   16.2190 h1        1 6PL      0.056200
     88 H12        14.6610   -1.6050   14.6420 h1        1 6PL      0.056200
     89 H41        13.4200   -5.8290   13.4050 h1        1 6PL      0.053200
     90 H42        12.2300   -4.5970   12.7330 h1        1 6PL      0.053200
     91 H51        14.1380   -3.7540   11.1980 hx        1 6PL      0.091200
     92 H52        13.2110   -5.3010   10.7950 hx        1 6PL      0.091200
     93 H71        16.0570   -7.5350   11.5090 hx        1 6PL      0.100811
     94 H72        14.2260   -7.4240   11.5700 hx        1 6PL      0.100811
     95 H73        15.2400   -6.8830   13.0170 hx        1 6PL      0.100811
     96 H81        15.5020   -4.6290    9.4010 hx        1 6PL      0.100811
     97 H82        14.7020   -6.2810    9.3620 hx        1 6PL      0.100811
     98 H83        16.5020   -6.1410    9.6660 hx        1 6PL      0.100811
     99 H61        17.3370   -5.3880   11.7430 hx        1 6PL      0.100811
    100 H62        16.2100   -4.7400   13.0460 hx        1 6PL      0.100811
    101 H63        16.4470   -3.7940   11.4820 hx        1 6PL      0.100811
    102 H321       16.3200    2.3250   16.4220 hc        1 6PL      0.078700
    103 H322       17.0520    3.1870   15.0030 hc        1 6PL      0.078700
    104 H331       19.3430    2.9620   16.1050 hc        1 6PL      0.057700
    105 H332       18.5500    2.2170   17.5460 hc        1 6PL      0.057700
    106 H341       17.1270    4.2850   17.8290 hc        1 6PL      0.040700
    107 H342       17.9440    5.0350   16.4040 hc        1 6PL      0.040700
    108 H351       19.3490    4.0790   18.9950 hc        1 6PL      0.042700
    109 H352       20.1680    4.8240   17.5690 hc        1 6PL      0.042700
    110 H361       18.7680    6.9000   17.8490 hc        1 6PL      0.039700
    111 H362       17.9450    6.1540   19.2720 hc        1 6PL      0.039700
    112 H371       20.1650    5.9420   20.4440 hc        1 6PL      0.040200
    113 H372       20.9880    6.6870   19.0210 hc        1 6PL      0.040200
    114 H381       18.7640    8.0180   20.7200 hc        1 6PL      0.039200
    115 H382       19.5900    8.7640   19.2980 hc        1 6PL      0.039200
    116 H391       21.8070    8.5500   20.4740 hc        1 6PL      0.039700
    117 H392       20.9810    7.8040   21.8950 hc        1 6PL      0.039700
    118 H401       19.5820    9.8800   22.1710 hc        1 6PL      0.039200
    119 H402       20.4090   10.6260   20.7500 hc        1 6PL      0.039200
    120 H411       22.6250   10.4110   21.9280 hc        1 6PL      0.039700
    121 H412       21.7980    9.6650   23.3490 hc        1 6PL      0.039700
    122 H421       20.3990   11.7420   23.6240 hc        1 6PL      0.039700
    123 H422       21.2270   12.4880   22.2040 hc        1 6PL      0.039700
    124 H431       22.6140   11.5260   24.8030 hc        1 6PL      0.039700
    125 H432       23.4430   12.2710   23.3830 hc        1 6PL      0.039700
    126 H441       22.0460   14.3490   23.6570 hc        1 6PL      0.039700
    127 H442       21.2160   13.6040   25.0770 hc        1 6PL      0.039700
    128 H451       24.2600   14.1320   24.8370 hc        1 6PL      0.039700
    129 H452       23.4310   13.3870   26.2570 hc        1 6PL      0.039700
    130 H461       22.8630   16.2100   25.1110 hc        1 6PL      0.039700
    131 H462       22.0340   15.4660   26.5310 hc        1 6PL      0.039700
    132 H471       24.2470   15.2480   27.7100 hc        1 6PL      0.038700
    133 H472       25.0770   15.9920   26.2910 hc        1 6PL      0.038700
    134 H481       22.8760   17.3390   28.0090 hc        1 6PL      0.032367
    135 H482       24.6540   17.6810   28.0770 hc        1 6PL      0.032367
    136 H483       23.7080   18.0850   26.5850 hc        1 6PL      0.032367
@<TRIPOS>BOND
     1    1    2 1   
     2    1   53 1   
     3    1   54 1   
     4    1   55 1   
     5    2    3 1   
     6    2   56 1   
     7    2   57 1   
     8    3    4 1   
     9    3   58 1   
    10    3   59 1   
    11    4    5 1   
    12    4   60 1   
    13    4   61 1   
    14    5    6 1   
    15    5   62 1   
    16    5   63 1   
    17    6    7 1   
    18    6   64 1   
    19    6   65 1   
    20    7    8 1   
    21    7   66 1   
    22    7   67 1   
    23    8    9 1   
    24    8   68 1   
    25    8   69 1   
    26    9   10 1   
    27    9   70 1   
    28    9   71 1   
    29   10   11 1   
    30   10   72 1   
    31   10   73 1   
    32   11   12 1   
    33   11   74 1   
    34   11   75 1   
    35   12   13 1   
    36   12   76 1   
    37   12   77 1   
    38   13   14 1   
    39   13   78 1   
    40   13   79 1   
    41   14   15 1   
    42   14   80 1   
    43   14   81 1   
    44   15   16 1   
    45   15   82 1   
    46   15   83 1   
    47   16   17 2   
    48   16   18 1   
    49   18   19 1   
    50   19   20 1   
    51   19   84 1   
    52   19   85 1   
    53   20   21 1   
    54   20   33 1   
    55   20   86 1   
    56   21   22 1   
    57   21   87 1   
    58   21   88 1   
    59   22   23 1   
    60   23   24 1   
    61   23   25 1   
    62   23   26 1   
    63   26   27 1   
    64   27   28 1   
    65   27   89 1   
    66   27   90 1   
    67   28   29 1   
    68   28   91 1   
    69   28   92 1   
    70   29   30 1   
    71   29   31 1   
    72   29   32 1   
    73   30   93 1   
    74   30   94 1   
    75   30   95 1   
    76   31   96 1   
    77   31   97 1   
    78   31   98 1   
    79   32   99 1   
    80   32  100 1   
    81   32  101 1   
    82   33   34 1   
    83   34   35 2   
    84   34   36 1   
    85   36   37 1   
    86   36  102 1   
    87   36  103 1   
    88   37   38 1   
    89   37  104 1   
    90   37  105 1   
    91   38   39 1   
    92   38  106 1   
    93   38  107 1   
    94   39   40 1   
    95   39  108 1   
    96   39  109 1   
    97   40   41 1   
    98   40  110 1   
    99   40  111 1   
   100   41   42 1   
   101   41  112 1   
   102   41  113 1   
   103   42   43 1   
   104   42  114 1   
   105   42  115 1   
   106   43   44 1   
   107   43  116 1   
   108   43  117 1   
   109   44   45 1   
   110   44  118 1   
   111   44  119 1   
   112   45   46 1   
   113   45  120 1   
   114   45  121 1   
   115   46   47 1   
   116   46  122 1   
   117   46  123 1   
   118   47   48 1   
   119   47  124 1   
   120   47  125 1   
   121   48   49 1   
   122   48  126 1   
   123   48  127 1   
   124   49   50 1   
   125   49  128 1   
   126   49  129 1   
   127   50   51 1   
   128   50  130 1   
   129   50  131 1   
   130   51   52 1   
   131   51  132 1   
   132   51  133 1   
   133   52  134 1   
   134   52  135 1   
   135   52  136 1   
@<TRIPOS>SUBSTRUCTURE
     1 6PL         1 TEMP              0 ****  ****    0 ROOT
