@<TRIPOS>MOLECULE
6PL
  136   135     1     0     0
SMALL
bcc


@<TRIPOS>ATOM
      1 C26         0.6640    2.7760    0.0350 c3        1 6PL     -0.093100
      2 C25         2.0760    2.2830    0.2140 c3        1 6PL     -0.080400
      3 C24         2.4930    2.3080    1.6700 c3        1 6PL     -0.079400
      4 C23         3.9120    1.8120    1.8450 c3        1 6PL     -0.079400
      5 C22         4.3270    1.8370    3.3000 c3        1 6PL     -0.079400
      6 C21         5.7470    1.3400    3.4750 c3        1 6PL     -0.078400
      7 C20         6.1620    1.3650    4.9310 c3        1 6PL     -0.079400
      8 C19         7.5800    0.8680    5.1060 c3        1 6PL     -0.078400
      9 C18         7.9950    0.8910    6.5620 c3        1 6PL     -0.079400
     10 C17         9.4130    0.3930    6.7370 c3        1 6PL     -0.078400
     11 C16         9.8270    0.4150    8.1930 c3        1 6PL     -0.079400
     12 C15        11.2440   -0.0850    8.3690 c3        1 6PL     -0.078400
     13 C14        11.6570   -0.0630    9.8250 c3        1 6PL     -0.080400
     14 C13        13.0720   -0.5720    9.9990 c3        1 6PL     -0.075400
     15 C12        13.4810   -0.5320   11.4550 c3        1 6PL     -0.135400
     16 C11        14.8250   -1.1600   11.6630 c         1 6PL      0.664100
     17 O11        15.3320   -2.1060   11.0450 o         1 6PL     -0.609000
     18 O3         15.5170   -0.5690   12.6730 os        1 6PL     -0.419900
     19 C3         16.7650   -1.1420   13.0900 c3        1 6PL      0.113400
     20 C2         16.7920   -1.2140   14.6150 c3        1 6PL      0.135100
     21 C1         15.6990   -2.1280   15.1790 c3        1 6PL      0.175400
     22 O3P        16.0230   -3.4440   14.8230 os        1 6PL     -0.580200
     23 P          14.8260   -4.5180   15.1380 p5        1 6PL      1.438800
     24 O1P        15.3570   -5.8350   14.7150 o         1 6PL     -0.814500
     25 O2P        14.1000   -4.1360   16.3480 o         1 6PL     -0.814500
     26 O4P        13.9270   -4.0840   13.7940 os        1 6PL     -0.577200
     27 C4         13.4050   -5.0960   13.0160 c3        1 6PL      0.197400
     28 C5         13.9980   -5.0650   11.5940 c3        1 6PL      0.079800
     29 N          15.3120   -5.7670   11.3640 n4        1 6PL     -0.576800
     30 C7         15.2950   -7.1490   11.9240 c3        1 6PL      0.075433
     31 C8         15.5290   -5.8400    9.8870 c3        1 6PL      0.075433
     32 C6         16.4450   -5.0010   11.9620 c3        1 6PL      0.075433
     33 O2         16.5500    0.0750   15.2020 os        1 6PL     -0.426900
     34 C31        17.5830    0.9690   15.2240 c         1 6PL      0.638100
     35 O31        18.6560    0.6520   14.7050 o         1 6PL     -0.555000
     36 C32        17.2050    2.2560   15.8900 c3        1 6PL     -0.127400
     37 C33        18.3530    2.7940   16.7190 c3        1 6PL     -0.079400
     38 C34        18.0160    4.1590   17.2790 c3        1 6PL     -0.078400
     39 C35        19.1510    4.6940   18.1260 c3        1 6PL     -0.079400
     40 C36        18.8210    6.0620   18.6850 c3        1 6PL     -0.079400
     41 C37        19.9550    6.5960   19.5330 c3        1 6PL     -0.079400
     42 C38        19.6260    7.9640   20.0920 c3        1 6PL     -0.078400
     43 C39        20.7590    8.4980   20.9410 c3        1 6PL     -0.079400
     44 C40        20.4300    9.8650   21.5010 c3        1 6PL     -0.079400
     45 C41        21.5640   10.3980   22.3500 c3        1 6PL     -0.079400
     46 C42        21.2350   11.7660   22.9100 c3        1 6PL     -0.079400
     47 C43        22.3680   12.2990   23.7600 c3        1 6PL     -0.079400
     48 C44        22.0390   13.6660   24.3200 c3        1 6PL     -0.079400
     49 C45        23.1720   14.1980   25.1710 c3        1 6PL     -0.079400
     50 C46        22.8430   15.5650   25.7310 c3        1 6PL     -0.079400
     51 C47        23.9760   16.0990   26.5820 c3        1 6PL     -0.080400
     52 C48        23.6530   17.4600   27.1420 c3        1 6PL     -0.092100
     53 H261        0.3770    2.7500   -1.0440 hc        1 6PL      0.032700
     54 H262        0.5630    3.8270    0.4010 hc        1 6PL      0.032700
     55 H263       -0.0530    2.1370    0.6070 hc        1 6PL      0.032700
     56 H251        2.7770    2.9210   -0.3860 hc        1 6PL      0.038200
     57 H252        2.1630    1.2360   -0.1810 hc        1 6PL      0.038200
     58 H241        2.4080    3.3540    2.0660 hc        1 6PL      0.039700
     59 H242        1.7940    1.6690    2.2710 hc        1 6PL      0.039700
     60 H231        4.6110    2.4510    1.2430 hc        1 6PL      0.039200
     61 H232        3.9970    0.7660    1.4480 hc        1 6PL      0.039200
     62 H221        4.2430    2.8830    3.6970 hc        1 6PL      0.039700
     63 H222        3.6280    1.1980    3.9020 hc        1 6PL      0.039700
     64 H211        5.8310    0.2950    3.0780 hc        1 6PL      0.039200
     65 H212        6.4460    1.9800    2.8740 hc        1 6PL      0.039200
     66 H201        6.0780    2.4110    5.3280 hc        1 6PL      0.040200
     67 H202        5.4620    0.7270    5.5320 hc        1 6PL      0.040200
     68 H191        8.2800    1.5070    4.5050 hc        1 6PL      0.039200
     69 H192        7.6640   -0.1780    4.7080 hc        1 6PL      0.039200
     70 H181        7.2950    0.2530    7.1630 hc        1 6PL      0.040200
     71 H182        7.9120    1.9370    6.9600 hc        1 6PL      0.040200
     72 H171        9.4960   -0.6530    6.3390 hc        1 6PL      0.038700
     73 H172       10.1130    1.0320    6.1370 hc        1 6PL      0.038700
     74 H161        9.7450    1.4610    8.5910 hc        1 6PL      0.041700
     75 H162        9.1250   -0.2220    8.7940 hc        1 6PL      0.041700
     76 H151       11.3260   -1.1310    7.9710 hc        1 6PL      0.039200
     77 H152       11.9460    0.5530    7.7690 hc        1 6PL      0.039200
     78 H141       11.5810    0.9840   10.2220 hc        1 6PL      0.044700
     79 H142       10.9510   -0.6960   10.4260 hc        1 6PL      0.044700
     80 H131       13.1510   -1.6240    9.6170 hc        1 6PL      0.049700
     81 H132       13.7770    0.0540    9.3920 hc        1 6PL      0.049700
     82 H121       12.7500   -1.1050   12.0890 hc        1 6PL      0.088200
     83 H122       13.4990    0.5250   11.8320 hc        1 6PL      0.088200
     84 H31        17.5660   -0.4530   12.7120 h1        1 6PL      0.074700
     85 H32        16.8960   -2.1770   12.6790 h1        1 6PL      0.074700
     86 H2         17.8100   -1.5860   14.9210 h1        1 6PL      0.087700
     87 H11        14.6980   -1.8600   14.7440 h1        1 6PL      0.056700
     88 H12        15.6500   -2.0480   16.2980 h1        1 6PL      0.056700
     89 H41        13.5410   -6.1030   13.4990 h1        1 6PL      0.053200
     90 H42        12.3020   -4.8960   12.8710 h1        1 6PL      0.053200
     91 H51        13.2540   -5.5470   10.9000 hx        1 6PL      0.091200
     92 H52        14.1510   -3.9830   11.3030 hx        1 6PL      0.091200
     93 H71        14.3410   -7.6540   11.6280 hx        1 6PL      0.100811
     94 H72        16.1710   -7.7170   11.5180 hx        1 6PL      0.100811
     95 H73        15.3780   -7.1030   13.0540 hx        1 6PL      0.100811
     96 H81        16.5340   -6.2920    9.6810 hx        1 6PL      0.100811
     97 H82        15.4890   -4.8030    9.4600 hx        1 6PL      0.100811
     98 H83        14.7320   -6.4760    9.4210 hx        1 6PL      0.100811
     99 H61        16.4660   -3.9670   11.5230 hx        1 6PL      0.100811
    100 H62        17.4020   -5.5410   11.7480 hx        1 6PL      0.100811
    101 H63        16.2910   -4.9340   13.0830 hx        1 6PL      0.100811
    102 H321       16.2970    2.0980   16.5290 hc        1 6PL      0.078700
    103 H322       16.9330    2.9850   15.0800 hc        1 6PL      0.078700
    104 H331       19.2760    2.8550   16.0840 hc        1 6PL      0.057700
    105 H332       18.5740    2.0840   17.5590 hc        1 6PL      0.057700
    106 H341       17.8060    4.8710   16.4380 hc        1 6PL      0.040700
    107 H342       17.0830    4.0930   17.8990 hc        1 6PL      0.040700
    108 H351       20.0850    4.7550   17.5070 hc        1 6PL      0.042700
    109 H352       19.3590    3.9830   18.9690 hc        1 6PL      0.042700
    110 H361       17.8860    6.0000   19.3020 hc        1 6PL      0.039700
    111 H362       18.6140    6.7730   17.8420 hc        1 6PL      0.039700
    112 H371       20.1620    5.8850   20.3760 hc        1 6PL      0.040200
    113 H372       20.8900    6.6570   18.9160 hc        1 6PL      0.040200
    114 H381       19.4190    8.6750   19.2490 hc        1 6PL      0.039200
    115 H382       18.6910    7.9020   20.7090 hc        1 6PL      0.039200
    116 H391       20.9660    7.7860   21.7830 hc        1 6PL      0.039700
    117 H392       21.6950    8.5590   20.3240 hc        1 6PL      0.039700
    118 H401       19.4950    9.8040   22.1170 hc        1 6PL      0.039200
    119 H402       20.2240   10.5770   20.6580 hc        1 6PL      0.039200
    120 H411       22.4990   10.4600   21.7340 hc        1 6PL      0.039700
    121 H412       21.7700    9.6870   23.1920 hc        1 6PL      0.039700
    122 H421       20.2990   11.7040   23.5260 hc        1 6PL      0.039700
    123 H422       21.0290   12.4780   22.0680 hc        1 6PL      0.039700
    124 H431       22.5730   11.5860   24.6020 hc        1 6PL      0.039700
    125 H432       23.3030   12.3600   23.1440 hc        1 6PL      0.039700
    126 H441       21.1030   13.6040   24.9370 hc        1 6PL      0.039700
    127 H442       21.8340   14.3780   23.4780 hc        1 6PL      0.039700
    128 H451       23.3770   13.4860   26.0130 hc        1 6PL      0.039700
    129 H452       24.1080   14.2600   24.5550 hc        1 6PL      0.039700
    130 H461       21.9070   15.5040   26.3470 hc        1 6PL      0.039700
    131 H462       22.6380   16.2780   24.8890 hc        1 6PL      0.039700
    132 H471       24.9110   16.1580   25.9650 hc        1 6PL      0.038700
    133 H472       24.1800   15.3850   27.4230 hc        1 6PL      0.038700
    134 H481       22.7370   17.4170   27.7810 hc        1 6PL      0.032367
    135 H482       24.5000   17.8350   27.7660 hc        1 6PL      0.032367
    136 H483       23.4700   18.1930   26.3190 hc        1 6PL      0.032367
@<TRIPOS>BOND
     1    1    2 1   
     2    1   53 1   
     3    1   54 1   
     4    1   55 1   
     5    2    3 1   
     6    2   56 1   
     7    2   57 1   
     8    3    4 1   
     9    3   58 1   
    10    3   59 1   
    11    4    5 1   
    12    4   60 1   
    13    4   61 1   
    14    5    6 1   
    15    5   62 1   
    16    5   63 1   
    17    6    7 1   
    18    6   64 1   
    19    6   65 1   
    20    7    8 1   
    21    7   66 1   
    22    7   67 1   
    23    8    9 1   
    24    8   68 1   
    25    8   69 1   
    26    9   10 1   
    27    9   70 1   
    28    9   71 1   
    29   10   11 1   
    30   10   72 1   
    31   10   73 1   
    32   11   12 1   
    33   11   74 1   
    34   11   75 1   
    35   12   13 1   
    36   12   76 1   
    37   12   77 1   
    38   13   14 1   
    39   13   78 1   
    40   13   79 1   
    41   14   15 1   
    42   14   80 1   
    43   14   81 1   
    44   15   16 1   
    45   15   82 1   
    46   15   83 1   
    47   16   17 2   
    48   16   18 1   
    49   18   19 1   
    50   19   20 1   
    51   19   84 1   
    52   19   85 1   
    53   20   21 1   
    54   20   33 1   
    55   20   86 1   
    56   21   22 1   
    57   21   87 1   
    58   21   88 1   
    59   22   23 1   
    60   23   24 1   
    61   23   25 1   
    62   23   26 1   
    63   26   27 1   
    64   27   28 1   
    65   27   89 1   
    66   27   90 1   
    67   28   29 1   
    68   28   91 1   
    69   28   92 1   
    70   29   30 1   
    71   29   31 1   
    72   29   32 1   
    73   30   93 1   
    74   30   94 1   
    75   30   95 1   
    76   31   96 1   
    77   31   97 1   
    78   31   98 1   
    79   32   99 1   
    80   32  100 1   
    81   32  101 1   
    82   33   34 1   
    83   34   35 2   
    84   34   36 1   
    85   36   37 1   
    86   36  102 1   
    87   36  103 1   
    88   37   38 1   
    89   37  104 1   
    90   37  105 1   
    91   38   39 1   
    92   38  106 1   
    93   38  107 1   
    94   39   40 1   
    95   39  108 1   
    96   39  109 1   
    97   40   41 1   
    98   40  110 1   
    99   40  111 1   
   100   41   42 1   
   101   41  112 1   
   102   41  113 1   
   103   42   43 1   
   104   42  114 1   
   105   42  115 1   
   106   43   44 1   
   107   43  116 1   
   108   43  117 1   
   109   44   45 1   
   110   44  118 1   
   111   44  119 1   
   112   45   46 1   
   113   45  120 1   
   114   45  121 1   
   115   46   47 1   
   116   46  122 1   
   117   46  123 1   
   118   47   48 1   
   119   47  124 1   
   120   47  125 1   
   121   48   49 1   
   122   48  126 1   
   123   48  127 1   
   124   49   50 1   
   125   49  128 1   
   126   49  129 1   
   127   50   51 1   
   128   50  130 1   
   129   50  131 1   
   130   51   52 1   
   131   51  132 1   
   132   51  133 1   
   133   52  134 1   
   134   52  135 1   
   135   52  136 1   
@<TRIPOS>SUBSTRUCTURE
     1 6PL         1 TEMP              0 ****  ****    0 ROOT
