@<TRIPOS>MOLECULE
6PL
  136   135     1     0     0
SMALL
bcc


@<TRIPOS>ATOM
      1 C26        -6.9200   -1.4730   -0.2190 c3        1 6PL     -0.092100
      2 C25        -5.6600   -1.9760    0.4730 c3        1 6PL     -0.080400
      3 C24        -5.4130   -3.4280    0.0820 c3        1 6PL     -0.079400
      4 C23        -4.1340   -3.9420    0.7810 c3        1 6PL     -0.079400
      5 C22        -3.4950   -5.0670   -0.0700 c3        1 6PL     -0.077400
      6 C21        -2.4040   -5.8000    0.7720 c3        1 6PL     -0.078400
      7 C20        -1.0250   -5.6270    0.1010 c3        1 6PL     -0.079400
      8 C19        -0.1930   -6.8670    0.3430 c3        1 6PL     -0.078400
      9 C18         1.3100   -6.4970    0.3140 c3        1 6PL     -0.078400
     10 C17         1.8980   -6.8370   -1.0770 c3        1 6PL     -0.079400
     11 C16         3.2590   -6.1370   -1.2450 c3        1 6PL     -0.079400
     12 C15         3.4460   -5.7240   -2.7250 c3        1 6PL     -0.077400
     13 C14         4.5600   -4.6690   -2.8270 c3        1 6PL     -0.083400
     14 C13         4.1780   -3.6130   -3.8900 c3        1 6PL     -0.077400
     15 C12         4.7600   -2.2390   -3.4860 c3        1 6PL     -0.130400
     16 C11         4.0370   -1.1190   -4.2710 c         1 6PL      0.653100
     17 O11         3.4870   -1.3730   -5.3190 o         1 6PL     -0.595000
     18 O3          4.0610    0.2400   -3.7770 os        1 6PL     -0.418900
     19 C3          2.9050    0.9890   -4.1020 c3        1 6PL      0.119400
     20 C2          3.1690    2.4850   -3.8350 c3        1 6PL      0.117100
     21 C1          3.9330    3.0650   -4.9750 c3        1 6PL      0.178400
     22 O3P         3.0820    3.1540   -6.1270 os        1 6PL     -0.580200
     23 P           3.7140    3.6520   -7.5000 p5        1 6PL      1.437800
     24 O1P         4.7720    2.6660   -7.9550 o         1 6PL     -0.814500
     25 O2P         4.3470    5.0150   -7.3000 o         1 6PL     -0.814500
     26 O4P         2.5440    3.7560   -8.6310 os        1 6PL     -0.572200
     27 C4          2.8950    4.2420   -9.9290 c3        1 6PL      0.198400
     28 C5          1.6600    4.1820  -10.8570 c3        1 6PL      0.088800
     29 N           2.0650    4.5150  -12.2370 n4        1 6PL     -0.581800
     30 C7          2.9520    3.4840  -12.7440 c3        1 6PL      0.077433
     31 C8          2.7390    5.7600  -12.2430 c3        1 6PL      0.077433
     32 C6          0.8850    4.5990  -13.0810 c3        1 6PL      0.077433
     33 O2          3.9200    2.6270   -2.6430 os        1 6PL     -0.427900
     34 C31         3.4210    3.6270   -1.7570 c         1 6PL      0.638100
     35 O31         2.5990    4.4270   -2.1470 o         1 6PL     -0.555000
     36 C32         3.8660    3.6350   -0.2720 c3        1 6PL     -0.127400
     37 C33         2.9100    4.5280    0.5490 c3        1 6PL     -0.079400
     38 C34         3.0930    4.2240    2.0780 c3        1 6PL     -0.078400
     39 C35         1.8320    4.7560    2.8760 c3        1 6PL     -0.079400
     40 C36         1.8550    4.1900    4.3280 c3        1 6PL     -0.078400
     41 C37         0.4900    4.4950    5.0230 c3        1 6PL     -0.079400
     42 C38         0.4030    3.7280    6.3520 c3        1 6PL     -0.079400
     43 C39        -1.1050    3.5590    6.7570 c3        1 6PL     -0.078400
     44 C40        -1.1960    3.0320    8.2090 c3        1 6PL     -0.078400
     45 C41        -1.9580    1.6860    8.2190 c3        1 6PL     -0.079400
     46 C42        -2.8030    1.5690    9.5260 c3        1 6PL     -0.078400
     47 C43        -3.0740    0.0970    9.8210 c3        1 6PL     -0.077400
     48 C44        -4.5530   -0.0890   10.2240 c3        1 6PL     -0.079400
     49 C45        -4.7940   -1.5530   10.6220 c3        1 6PL     -0.079400
     50 C46        -6.2330   -1.9340   10.3010 c3        1 6PL     -0.079400
     51 C47        -6.5100   -3.3650   10.8050 c3        1 6PL     -0.080400
     52 C48        -7.8390   -3.8620   10.2240 c3        1 6PL     -0.092100
     53 H261       -6.8320   -0.5060   -0.4010 hc        1 6PL      0.032367
     54 H262       -7.6960   -1.6280    0.3610 hc        1 6PL      0.032367
     55 H263       -7.0430   -1.9540   -1.0650 hc        1 6PL      0.032367
     56 H251       -5.7730   -1.9140    1.4360 hc        1 6PL      0.038700
     57 H252       -4.8960   -1.4300    0.1990 hc        1 6PL      0.038700
     58 H241       -5.3020   -3.4900   -0.8950 hc        1 6PL      0.039200
     59 H242       -6.1820   -3.9770    0.3600 hc        1 6PL      0.039200
     60 H231       -4.3660   -4.2960    1.6680 hc        1 6PL      0.040200
     61 H232       -3.4920   -3.2000    0.8820 hc        1 6PL      0.040200
     62 H221       -4.1920   -5.7120   -0.3380 hc        1 6PL      0.038700
     63 H222       -3.0810   -4.6740   -0.8770 hc        1 6PL      0.038700
     64 H211       -2.6220   -6.7560    0.8290 hc        1 6PL      0.039200
     65 H212       -2.3780   -5.4150    1.6800 hc        1 6PL      0.039200
     66 H201       -1.1420   -5.4970   -0.8530 hc        1 6PL      0.040200
     67 H202       -0.5740   -4.8550    0.4820 hc        1 6PL      0.040200
     68 H191       -0.3820   -7.5320   -0.3590 hc        1 6PL      0.039200
     69 H192       -0.4190   -7.2440    1.2180 hc        1 6PL      0.039200
     70 H181        1.7840   -7.0070    1.0020 hc        1 6PL      0.039700
     71 H182        1.4160   -5.5350    0.4870 hc        1 6PL      0.039700
     72 H171        1.2860   -6.5290   -1.7730 hc        1 6PL      0.039700
     73 H172        2.0190   -7.8150   -1.1530 hc        1 6PL      0.039700
     74 H161        3.9770   -6.7520   -0.9840 hc        1 6PL      0.041200
     75 H162        3.2890   -5.3400   -0.6770 hc        1 6PL      0.041200
     76 H151        3.6970   -6.5210   -3.2620 hc        1 6PL      0.039700
     77 H152        2.6100   -5.3510   -3.0680 hc        1 6PL      0.039700
     78 H141        5.4080   -5.1090   -3.0890 hc        1 6PL      0.044700
     79 H142        4.6740   -4.2320   -1.9630 hc        1 6PL      0.044700
     80 H131        3.2050   -3.5490   -3.9510 hc        1 6PL      0.053700
     81 H132        4.5430   -3.8790   -4.7600 hc        1 6PL      0.053700
     82 H121        4.6300   -2.0990   -2.5230 hc        1 6PL      0.081700
     83 H122        5.7220   -2.2170   -3.6940 hc        1 6PL      0.081700
     84 H31         2.1600    0.6880   -3.5530 h1        1 6PL      0.069700
     85 H32         2.6840    0.8570   -5.0620 h1        1 6PL      0.069700
     86 H2          2.3210    2.9520   -3.7430 h1        1 6PL      0.086700
     87 H11         4.7010    2.4910   -5.1790 h1        1 6PL      0.066200
     88 H12         4.2490    3.9560   -4.7340 h1        1 6PL      0.066200
     89 H41         3.6020    3.6930  -10.2980 h1        1 6PL      0.055200
     90 H42         3.2020    5.1630   -9.8580 h1        1 6PL      0.055200
     91 H51         1.2810    3.2830  -10.8380 hx        1 6PL      0.081700
     92 H52         0.9790    4.8340  -10.5460 hx        1 6PL      0.081700
     93 H71         2.6230    2.5990  -12.4640 hx        1 6PL      0.101478
     94 H72         3.8600    3.6260  -12.3860 hx        1 6PL      0.101478
     95 H73         2.9770    3.5290  -13.7300 hx        1 6PL      0.101478
     96 H81         2.8130    6.0860  -13.1630 hx        1 6PL      0.101478
     97 H82         2.2340    6.4110  -11.7040 hx        1 6PL      0.101478
     98 H83         3.6310    5.6480  -11.8670 hx        1 6PL      0.101478
     99 H61         0.3040    5.3330  -12.7640 hx        1 6PL      0.101478
    100 H62         1.1610    4.7760  -14.0230 hx        1 6PL      0.101478
    101 H63         0.3960    3.7590  -13.0380 hx        1 6PL      0.101478
    102 H321        4.7750    3.9850   -0.2070 hc        1 6PL      0.077200
    103 H322        3.8420    2.7180    0.0820 hc        1 6PL      0.077200
    104 H331        3.1140    5.4600    0.3790 hc        1 6PL      0.058200
    105 H332        1.9800    4.3430    0.2860 hc        1 6PL      0.058200
    106 H341        3.9020    4.6730    2.4060 hc        1 6PL      0.040700
    107 H342        3.1800    3.2530    2.2110 hc        1 6PL      0.040700
    108 H351        1.8550    5.7350    2.9070 hc        1 6PL      0.043200
    109 H352        1.0140    4.4630    2.4250 hc        1 6PL      0.043200
    110 H361        1.9970    3.2270    4.3000 hc        1 6PL      0.039200
    111 H362        2.5800    4.6140    4.8320 hc        1 6PL      0.039200
    112 H371        0.4210    5.4540    5.1960 hc        1 6PL      0.040200
    113 H372       -0.2360    4.2180    4.4420 hc        1 6PL      0.040200
    114 H381        0.8770    4.2300    7.0530 hc        1 6PL      0.039700
    115 H382        0.8140    2.8450    6.2470 hc        1 6PL      0.039700
    116 H391       -1.5620    4.4330    6.6950 hc        1 6PL      0.039700
    117 H392       -1.5360    2.9230    6.1530 hc        1 6PL      0.039700
    118 H401       -1.6730    3.6790    8.7610 hc        1 6PL      0.038700
    119 H402       -0.2940    2.8990    8.5650 hc        1 6PL      0.038700
    120 H411       -1.3160    0.9490    8.1790 hc        1 6PL      0.040700
    121 H412       -2.5470    1.6430    7.4490 hc        1 6PL      0.040700
    122 H421       -2.3050    1.9680   10.2760 hc        1 6PL      0.038700
    123 H422       -3.6490    2.0380    9.4110 hc        1 6PL      0.038700
    124 H431       -2.8880   -0.4290    9.0290 hc        1 6PL      0.038700
    125 H432       -2.4920   -0.2030   10.5580 hc        1 6PL      0.038700
    126 H441       -5.1290    0.1420    9.4700 hc        1 6PL      0.040200
    127 H442       -4.7640    0.5050   10.9980 hc        1 6PL      0.040200
    128 H451       -4.1890   -2.1270   10.1250 hc        1 6PL      0.038700
    129 H452       -4.6340   -1.6610   11.5760 hc        1 6PL      0.038700
    130 H461       -6.3730   -1.8960    9.3350 hc        1 6PL      0.039700
    131 H462       -6.8410   -1.3100   10.7440 hc        1 6PL      0.039700
    132 H471       -5.7940   -3.9520   10.5210 hc        1 6PL      0.038200
    133 H472       -6.5630   -3.3620   11.7830 hc        1 6PL      0.038200
    134 H481       -7.8960   -3.6130    9.2770 hc        1 6PL      0.032367
    135 H482       -7.8890   -4.8500   10.3090 hc        1 6PL      0.032367
    136 H483       -8.5840   -3.4530   10.7150 hc        1 6PL      0.032367
@<TRIPOS>BOND
     1    1    2 1   
     2    1   53 1   
     3    1   54 1   
     4    1   55 1   
     5    2    3 1   
     6    2   56 1   
     7    2   57 1   
     8    3    4 1   
     9    3   58 1   
    10    3   59 1   
    11    4    5 1   
    12    4   60 1   
    13    4   61 1   
    14    5    6 1   
    15    5   62 1   
    16    5   63 1   
    17    6    7 1   
    18    6   64 1   
    19    6   65 1   
    20    7    8 1   
    21    7   66 1   
    22    7   67 1   
    23    8    9 1   
    24    8   68 1   
    25    8   69 1   
    26    9   10 1   
    27    9   70 1   
    28    9   71 1   
    29   10   11 1   
    30   10   72 1   
    31   10   73 1   
    32   11   12 1   
    33   11   74 1   
    34   11   75 1   
    35   12   13 1   
    36   12   76 1   
    37   12   77 1   
    38   13   14 1   
    39   13   78 1   
    40   13   79 1   
    41   14   15 1   
    42   14   80 1   
    43   14   81 1   
    44   15   16 1   
    45   15   82 1   
    46   15   83 1   
    47   16   17 2   
    48   16   18 1   
    49   18   19 1   
    50   19   20 1   
    51   19   84 1   
    52   19   85 1   
    53   20   21 1   
    54   20   33 1   
    55   20   86 1   
    56   21   22 1   
    57   21   87 1   
    58   21   88 1   
    59   22   23 1   
    60   23   24 1   
    61   23   25 1   
    62   23   26 1   
    63   26   27 1   
    64   27   28 1   
    65   27   89 1   
    66   27   90 1   
    67   28   29 1   
    68   28   91 1   
    69   28   92 1   
    70   29   30 1   
    71   29   31 1   
    72   29   32 1   
    73   30   93 1   
    74   30   94 1   
    75   30   95 1   
    76   31   96 1   
    77   31   97 1   
    78   31   98 1   
    79   32   99 1   
    80   32  100 1   
    81   32  101 1   
    82   33   34 1   
    83   34   35 2   
    84   34   36 1   
    85   36   37 1   
    86   36  102 1   
    87   36  103 1   
    88   37   38 1   
    89   37  104 1   
    90   37  105 1   
    91   38   39 1   
    92   38  106 1   
    93   38  107 1   
    94   39   40 1   
    95   39  108 1   
    96   39  109 1   
    97   40   41 1   
    98   40  110 1   
    99   40  111 1   
   100   41   42 1   
   101   41  112 1   
   102   41  113 1   
   103   42   43 1   
   104   42  114 1   
   105   42  115 1   
   106   43   44 1   
   107   43  116 1   
   108   43  117 1   
   109   44   45 1   
   110   44  118 1   
   111   44  119 1   
   112   45   46 1   
   113   45  120 1   
   114   45  121 1   
   115   46   47 1   
   116   46  122 1   
   117   46  123 1   
   118   47   48 1   
   119   47  124 1   
   120   47  125 1   
   121   48   49 1   
   122   48  126 1   
   123   48  127 1   
   124   49   50 1   
   125   49  128 1   
   126   49  129 1   
   127   50   51 1   
   128   50  130 1   
   129   50  131 1   
   130   51   52 1   
   131   51  132 1   
   132   51  133 1   
   133   52  134 1   
   134   52  135 1   
   135   52  136 1   
@<TRIPOS>SUBSTRUCTURE
     1 6PL         1 TEMP              0 ****  ****    0 ROOT
