@<TRIPOS>MOLECULE
6PL
  136   135     1     0     0
SMALL
bcc


@<TRIPOS>ATOM
      1 C26         0.6730    2.9560    0.1480 c3        1 6PL     -0.093100
      2 C25         2.0910    2.4750    0.3150 c3        1 6PL     -0.080400
      3 C24         2.5010    2.4460    1.7720 c3        1 6PL     -0.079400
      4 C23         3.9250    1.9620    1.9350 c3        1 6PL     -0.079400
      5 C22         4.3330    1.9340    3.3920 c3        1 6PL     -0.079400
      6 C21         5.7580    1.4490    3.5550 c3        1 6PL     -0.078400
      7 C20         6.1660    1.4210    5.0120 c3        1 6PL     -0.079400
      8 C19         7.5900    0.9360    5.1750 c3        1 6PL     -0.078400
      9 C18         7.9980    0.9090    6.6330 c3        1 6PL     -0.079400
     10 C17         9.4220    0.4230    6.7950 c3        1 6PL     -0.078400
     11 C16         9.8290    0.3950    8.2530 c3        1 6PL     -0.079400
     12 C15        11.2530   -0.0910    8.4160 c3        1 6PL     -0.078400
     13 C14        11.6590   -0.1180    9.8740 c3        1 6PL     -0.080400
     14 C13        13.0810   -0.6120   10.0350 c3        1 6PL     -0.075400
     15 C12        13.4850   -0.6190   11.4930 c3        1 6PL     -0.135400
     16 C11        14.8380   -1.2330   11.6830 c         1 6PL      0.664100
     17 O11        15.3500   -2.1680   11.0510 o         1 6PL     -0.610000
     18 O3         15.5330   -0.6450   12.6920 os        1 6PL     -0.419900
     19 C3         16.7930   -1.2050   13.0890 c3        1 6PL      0.112400
     20 C2         16.8390   -1.2880   14.6130 c3        1 6PL      0.135100
     21 C1         15.7690   -2.2270   15.1820 c3        1 6PL      0.175400
     22 O3P        16.1120   -3.5330   14.8080 os        1 6PL     -0.580200
     23 P          14.9370   -4.6310   15.1280 p5        1 6PL      1.438800
     24 O1P        15.4850   -5.9350   14.6840 o         1 6PL     -0.814500
     25 O2P        14.2220   -4.2740   16.3530 o         1 6PL     -0.814500
     26 O4P        14.0120   -4.1990   13.8020 os        1 6PL     -0.577200
     27 C4         13.4980   -5.2120   13.0200 c3        1 6PL      0.197400
     28 C5         14.0710   -5.1550   11.5900 c3        1 6PL      0.079800
     29 N          15.3930   -5.8320   11.3350 n4        1 6PL     -0.576800
     30 C7         15.4070   -7.2200   11.8800 c3        1 6PL      0.075433
     31 C8         15.5910   -5.8870    9.8550 c3        1 6PL      0.075433
     32 C6         16.5220   -5.0530   11.9260 c3        1 6PL      0.075433
     33 O2         16.5800   -0.0100   15.2140 os        1 6PL     -0.426900
     34 C31        17.5970    0.9040   15.2300 c         1 6PL      0.638100
     35 O31        18.6700    0.6100   14.6970 o         1 6PL     -0.555000
     36 C32        17.2030    2.1790   15.9100 c3        1 6PL     -0.127400
     37 C33        18.3560    2.7430   16.7140 c3        1 6PL     -0.079400
     38 C34        17.9980    4.0980   17.2860 c3        1 6PL     -0.078400
     39 C35        19.1400    4.6600   18.1060 c3        1 6PL     -0.079400
     40 C36        18.7880    6.0180   18.6760 c3        1 6PL     -0.079400
     41 C37        19.9280    6.5800   19.4970 c3        1 6PL     -0.079400
     42 C38        19.5780    7.9380   20.0670 c3        1 6PL     -0.078400
     43 C39        20.7180    8.5000   20.8880 c3        1 6PL     -0.079400
     44 C40        20.3670    9.8580   21.4580 c3        1 6PL     -0.079400
     45 C41        21.5080   10.4210   22.2790 c3        1 6PL     -0.079400
     46 C42        21.1570   11.7780   22.8490 c3        1 6PL     -0.079400
     47 C43        22.2980   12.3410   23.6700 c3        1 6PL     -0.079400
     48 C44        21.9470   13.6990   24.2390 c3        1 6PL     -0.079400
     49 C45        23.0880   14.2610   25.0600 c3        1 6PL     -0.079400
     50 C46        22.7370   15.6190   25.6300 c3        1 6PL     -0.079400
     51 C47        23.8770   16.1830   26.4520 c3        1 6PL     -0.080400
     52 C48        23.5330   17.5350   27.0210 c3        1 6PL     -0.092100
     53 H261       -0.0370    2.2860    0.6890 hc        1 6PL      0.032700
     54 H262        0.3920    2.9700   -0.9330 hc        1 6PL      0.032700
     55 H263        0.5570    3.9900    0.5550 hc        1 6PL      0.032700
     56 H251        2.7870    3.1460   -0.2560 hc        1 6PL      0.038200
     57 H252        2.1940    1.4460   -0.1220 hc        1 6PL      0.038200
     58 H241        1.8070    1.7750    2.3440 hc        1 6PL      0.039700
     59 H242        2.4000    3.4740    2.2100 hc        1 6PL      0.039700
     60 H231        4.6190    2.6330    1.3630 hc        1 6PL      0.039200
     61 H232        4.0250    0.9340    1.4960 hc        1 6PL      0.039200
     62 H221        3.6400    1.2630    3.9640 hc        1 6PL      0.039700
     63 H222        4.2340    2.9620    3.8300 hc        1 6PL      0.039700
     64 H211        5.8580    0.4210    3.1170 hc        1 6PL      0.039200
     65 H212        6.4510    2.1210    2.9830 hc        1 6PL      0.039200
     66 H201        6.0660    2.4500    5.4500 hc        1 6PL      0.040200
     67 H202        5.4720    0.7500    5.5840 hc        1 6PL      0.040200
     68 H191        8.2840    1.6080    4.6030 hc        1 6PL      0.039200
     69 H192        7.6900   -0.0920    4.7370 hc        1 6PL      0.039200
     70 H181        7.3040    0.2380    7.2050 hc        1 6PL      0.040200
     71 H182        7.8990    1.9370    7.0700 hc        1 6PL      0.040200
     72 H171       10.1160    1.0940    6.2240 hc        1 6PL      0.038700
     73 H172        9.5210   -0.6050    6.3570 hc        1 6PL      0.038700
     74 H161        9.7310    1.4240    8.6910 hc        1 6PL      0.041700
     75 H162        9.1340   -0.2750    8.8250 hc        1 6PL      0.041700
     76 H151       11.9480    0.5790    7.8440 hc        1 6PL      0.039700
     77 H152       11.3520   -1.1200    7.9790 hc        1 6PL      0.039700
     78 H141       11.5670    0.9120   10.3100 hc        1 6PL      0.044700
     79 H142       10.9610   -0.7840   10.4480 hc        1 6PL      0.044700
     80 H131       13.1780   -1.6480    9.6150 hc        1 6PL      0.049700
     81 H132       13.7790    0.0470    9.4540 hc        1 6PL      0.049700
     82 H121       13.4850    0.4240   11.9090 hc        1 6PL      0.088700
     83 H122       12.7610   -1.2270   12.1020 hc        1 6PL      0.088700
     84 H31        17.5800   -0.5020   12.7070 h1        1 6PL      0.074700
     85 H32        16.9320   -2.2350   12.6680 h1        1 6PL      0.074700
     86 H2         17.8670   -1.6450   14.9050 h1        1 6PL      0.087700
     87 H11        15.7330   -2.1590   16.3020 h1        1 6PL      0.056700
     88 H12        14.7590   -1.9720   14.7610 h1        1 6PL      0.056700
     89 H41        13.6580   -6.2210   13.4900 h1        1 6PL      0.053200
     90 H42        12.3890   -5.0300   12.8910 h1        1 6PL      0.053200
     91 H51        13.3250   -5.6410   10.9010 hx        1 6PL      0.091200
     92 H52        14.2030   -4.0670   11.3100 hx        1 6PL      0.091200
     93 H71        14.4570   -7.7380   11.5920 hx        1 6PL      0.100811
     94 H72        16.2860   -7.7700   11.4570 hx        1 6PL      0.100811
     95 H73        15.5050   -7.1850   13.0100 hx        1 6PL      0.100811
     96 H81        14.7990   -6.5300    9.3930 hx        1 6PL      0.100811
     97 H82        16.6010   -6.3180    9.6310 hx        1 6PL      0.100811
     98 H83        15.5280   -4.8460    9.4390 hx        1 6PL      0.100811
     99 H61        17.4840   -5.5760   11.6940 hx        1 6PL      0.100811
    100 H62        16.3820   -5.0010   13.0500 hx        1 6PL      0.100811
    101 H63        16.5200   -4.0160   11.4970 hx        1 6PL      0.100811
    102 H321       16.8930    2.9020   15.1090 hc        1 6PL      0.079200
    103 H322       16.3140    1.9950   16.5700 hc        1 6PL      0.079200
    104 H331       18.6150    2.0370   17.5460 hc        1 6PL      0.057700
    105 H332       19.2630    2.8290   16.0580 hc        1 6PL      0.057700
    106 H341       17.0820    4.0070   17.9270 hc        1 6PL      0.040700
    107 H342       17.7500    4.8060   16.4520 hc        1 6PL      0.040700
    108 H351       20.0570    4.7470   17.4650 hc        1 6PL      0.042700
    109 H352       19.3860    3.9540   18.9420 hc        1 6PL      0.042700
    110 H361       17.8710    5.9310   19.3160 hc        1 6PL      0.039700
    111 H362       18.5420    6.7250   17.8400 hc        1 6PL      0.039700
    112 H371       20.8460    6.6660   18.8570 hc        1 6PL      0.040200
    113 H372       20.1740    5.8730   20.3330 hc        1 6PL      0.040200
    114 H381       18.6600    7.8520   20.7070 hc        1 6PL      0.039200
    115 H382       19.3320    8.6450   19.2310 hc        1 6PL      0.039200
    116 H391       21.6360    8.5860   20.2480 hc        1 6PL      0.039700
    117 H392       20.9640    7.7940   21.7240 hc        1 6PL      0.039700
    118 H401       20.1220   10.5650   20.6220 hc        1 6PL      0.039200
    119 H402       19.4500    9.7720   22.0980 hc        1 6PL      0.039200
    120 H411       21.7540    9.7140   23.1150 hc        1 6PL      0.039700
    121 H412       22.4250   10.5070   21.6390 hc        1 6PL      0.039700
    122 H421       20.9120   12.4850   22.0130 hc        1 6PL      0.039700
    123 H422       20.2400   11.6920   23.4890 hc        1 6PL      0.039700
    124 H431       23.2150   12.4270   23.0300 hc        1 6PL      0.039700
    125 H432       22.5440   11.6340   24.5060 hc        1 6PL      0.039700
    126 H441       21.7010   14.4050   23.4030 hc        1 6PL      0.039700
    127 H442       21.0300   13.6130   24.8800 hc        1 6PL      0.039700
    128 H451       24.0050   14.3480   24.4200 hc        1 6PL      0.039700
    129 H452       23.3340   13.5550   25.8960 hc        1 6PL      0.039700
    130 H461       22.4920   16.3260   24.7940 hc        1 6PL      0.039700
    131 H462       21.8200   15.5340   26.2700 hc        1 6PL      0.039700
    132 H471       24.1220   15.4740   27.2860 hc        1 6PL      0.038700
    133 H472       24.7940   16.2670   25.8100 hc        1 6PL      0.038700
    134 H481       22.6360   17.4680   27.6830 hc        1 6PL      0.032367
    135 H482       23.3090   18.2620   26.2030 hc        1 6PL      0.032367
    136 H483       24.3860   17.9320   27.6220 hc        1 6PL      0.032367
@<TRIPOS>BOND
     1    1    2 1   
     2    1   53 1   
     3    1   54 1   
     4    1   55 1   
     5    2    3 1   
     6    2   56 1   
     7    2   57 1   
     8    3    4 1   
     9    3   58 1   
    10    3   59 1   
    11    4    5 1   
    12    4   60 1   
    13    4   61 1   
    14    5    6 1   
    15    5   62 1   
    16    5   63 1   
    17    6    7 1   
    18    6   64 1   
    19    6   65 1   
    20    7    8 1   
    21    7   66 1   
    22    7   67 1   
    23    8    9 1   
    24    8   68 1   
    25    8   69 1   
    26    9   10 1   
    27    9   70 1   
    28    9   71 1   
    29   10   11 1   
    30   10   72 1   
    31   10   73 1   
    32   11   12 1   
    33   11   74 1   
    34   11   75 1   
    35   12   13 1   
    36   12   76 1   
    37   12   77 1   
    38   13   14 1   
    39   13   78 1   
    40   13   79 1   
    41   14   15 1   
    42   14   80 1   
    43   14   81 1   
    44   15   16 1   
    45   15   82 1   
    46   15   83 1   
    47   16   17 2   
    48   16   18 1   
    49   18   19 1   
    50   19   20 1   
    51   19   84 1   
    52   19   85 1   
    53   20   21 1   
    54   20   33 1   
    55   20   86 1   
    56   21   22 1   
    57   21   87 1   
    58   21   88 1   
    59   22   23 1   
    60   23   24 1   
    61   23   25 1   
    62   23   26 1   
    63   26   27 1   
    64   27   28 1   
    65   27   89 1   
    66   27   90 1   
    67   28   29 1   
    68   28   91 1   
    69   28   92 1   
    70   29   30 1   
    71   29   31 1   
    72   29   32 1   
    73   30   93 1   
    74   30   94 1   
    75   30   95 1   
    76   31   96 1   
    77   31   97 1   
    78   31   98 1   
    79   32   99 1   
    80   32  100 1   
    81   32  101 1   
    82   33   34 1   
    83   34   35 2   
    84   34   36 1   
    85   36   37 1   
    86   36  102 1   
    87   36  103 1   
    88   37   38 1   
    89   37  104 1   
    90   37  105 1   
    91   38   39 1   
    92   38  106 1   
    93   38  107 1   
    94   39   40 1   
    95   39  108 1   
    96   39  109 1   
    97   40   41 1   
    98   40  110 1   
    99   40  111 1   
   100   41   42 1   
   101   41  112 1   
   102   41  113 1   
   103   42   43 1   
   104   42  114 1   
   105   42  115 1   
   106   43   44 1   
   107   43  116 1   
   108   43  117 1   
   109   44   45 1   
   110   44  118 1   
   111   44  119 1   
   112   45   46 1   
   113   45  120 1   
   114   45  121 1   
   115   46   47 1   
   116   46  122 1   
   117   46  123 1   
   118   47   48 1   
   119   47  124 1   
   120   47  125 1   
   121   48   49 1   
   122   48  126 1   
   123   48  127 1   
   124   49   50 1   
   125   49  128 1   
   126   49  129 1   
   127   50   51 1   
   128   50  130 1   
   129   50  131 1   
   130   51   52 1   
   131   51  132 1   
   132   51  133 1   
   133   52  134 1   
   134   52  135 1   
   135   52  136 1   
@<TRIPOS>SUBSTRUCTURE
     1 6PL         1 TEMP              0 ****  ****    0 ROOT
