@<TRIPOS>MOLECULE
6PL
  136   135     1     0     0
SMALL
bcc


@<TRIPOS>ATOM
      1 C26       -18.8820    9.2520    0.9690 c3        1 6PL     -0.092100
      2 C25       -18.1880    8.1380    0.2270 c3        1 6PL     -0.080400
      3 C24       -16.7380    8.0120    0.6430 c3        1 6PL     -0.079400
      4 C23       -16.0460    6.8930   -0.1040 c3        1 6PL     -0.079400
      5 C22       -14.5960    6.7680    0.3120 c3        1 6PL     -0.079400
      6 C21       -13.9030    5.6490   -0.4350 c3        1 6PL     -0.079400
      7 C20       -12.4540    5.5240   -0.0190 c3        1 6PL     -0.079400
      8 C19       -11.7610    4.4040   -0.7660 c3        1 6PL     -0.079400
      9 C18       -10.3110    4.2800   -0.3500 c3        1 6PL     -0.079400
     10 C17        -9.6190    3.1600   -1.0970 c3        1 6PL     -0.078400
     11 C16        -8.1690    3.0360   -0.6810 c3        1 6PL     -0.079400
     12 C15        -7.4780    1.9160   -1.4280 c3        1 6PL     -0.078400
     13 C14        -6.0280    1.7920   -1.0110 c3        1 6PL     -0.079400
     14 C13        -5.3390    0.6740   -1.7640 c3        1 6PL     -0.078400
     15 C12        -3.8950    0.5450   -1.3290 c3        1 6PL     -0.128400
     16 C11        -3.1700   -0.4670   -2.1610 c         1 6PL      0.631100
     17 O11        -3.3210   -0.7500   -3.3520 o         1 6PL     -0.548000
     18 O3         -2.2080   -1.1310   -1.4520 os        1 6PL     -0.433900
     19 C3         -1.4210   -2.0920   -2.1720 c3        1 6PL      0.115400
     20 C2         -0.4660   -2.7460   -1.1780 c3        1 6PL      0.145100
     21 C1         -1.1850   -3.2650    0.0690 c3        1 6PL      0.169400
     22 O3P        -0.5980   -4.4880    0.4360 os        1 6PL     -0.556200
     23 P          -1.1870   -5.0970    1.8170 p5        1 6PL      1.428800
     24 O1P        -0.4380   -6.3040    2.2310 o         1 6PL     -0.819500
     25 O2P        -1.6710   -4.0550    2.7330 o         1 6PL     -0.819500
     26 O4P        -2.5870   -5.7920    1.1930 os        1 6PL     -0.577200
     27 C4         -3.6210   -5.9610    2.0890 c3        1 6PL      0.190400
     28 C5         -4.0670   -7.4360    2.1520 c3        1 6PL      0.086800
     29 N          -3.0480   -8.4320    2.6400 n4        1 6PL     -0.581800
     30 C7         -2.3610   -7.9330    3.8670 c3        1 6PL      0.076767
     31 C8         -3.7600   -9.7030    2.9660 c3        1 6PL      0.076767
     32 C6         -2.0360   -8.7090    1.5760 c3        1 6PL      0.076767
     33 O2          0.4920   -1.7850   -0.7010 os        1 6PL     -0.426900
     34 C31         1.5870   -1.5330   -1.4770 c         1 6PL      0.636100
     35 O31         1.6770   -2.0800   -2.5790 o         1 6PL     -0.553000
     36 C32         2.5280   -0.5610   -0.8340 c3        1 6PL     -0.127400
     37 C33         3.9680   -0.9340   -1.1160 c3        1 6PL     -0.079400
     38 C34         4.9110    0.1230   -0.5820 c3        1 6PL     -0.078400
     39 C35         6.3540   -0.2520   -0.8460 c3        1 6PL     -0.079400
     40 C36         7.3000    0.8050   -0.3180 c3        1 6PL     -0.079400
     41 C37         8.7430    0.4300   -0.5810 c3        1 6PL     -0.079400
     42 C38         9.6900    1.4870   -0.0530 c3        1 6PL     -0.079400
     43 C39        11.1330    1.1130   -0.3170 c3        1 6PL     -0.079400
     44 C40        12.0790    2.1690    0.2100 c3        1 6PL     -0.079400
     45 C41        13.5220    1.7950   -0.0530 c3        1 6PL     -0.079400
     46 C42        14.4690    2.8520    0.4730 c3        1 6PL     -0.079400
     47 C43        15.9120    2.4780    0.2100 c3        1 6PL     -0.079400
     48 C44        16.8590    3.5350    0.7370 c3        1 6PL     -0.079400
     49 C45        18.3020    3.1610    0.4730 c3        1 6PL     -0.079400
     50 C46        19.2480    4.2180    1.0000 c3        1 6PL     -0.079400
     51 C47        20.6920    3.8450    0.7370 c3        1 6PL     -0.080400
     52 C48        21.6390    4.8940    1.2590 c3        1 6PL     -0.092100
     53 H261      -18.3830   10.2300    0.7670 hc        1 6PL      0.032367
     54 H262      -19.9480    9.3270    0.6480 hc        1 6PL      0.032367
     55 H263      -18.8570    9.0670    2.0700 hc        1 6PL      0.032367
     56 H251      -18.2450    8.3280   -0.8770 hc        1 6PL      0.038200
     57 H252      -18.7180    7.1680    0.4220 hc        1 6PL      0.038200
     58 H241      -16.6790    7.8210    1.7470 hc        1 6PL      0.039700
     59 H242      -16.2060    8.9800    0.4470 hc        1 6PL      0.039700
     60 H231      -16.1050    7.0850   -1.2080 hc        1 6PL      0.039200
     61 H232      -16.5780    5.9250    0.0910 hc        1 6PL      0.039200
     62 H221      -14.5370    6.5760    1.4160 hc        1 6PL      0.039700
     63 H222      -14.0640    7.7360    0.1160 hc        1 6PL      0.039700
     64 H211      -13.9630    5.8400   -1.5390 hc        1 6PL      0.039200
     65 H212      -14.4350    4.6800   -0.2390 hc        1 6PL      0.039200
     66 H201      -12.3940    5.3320    1.0850 hc        1 6PL      0.039700
     67 H202      -11.9210    6.4920   -0.2150 hc        1 6PL      0.039700
     68 H191      -11.8210    4.5960   -1.8700 hc        1 6PL      0.039200
     69 H192      -12.2930    3.4360   -0.5700 hc        1 6PL      0.039200
     70 H181      -10.2520    4.0880    0.7540 hc        1 6PL      0.039700
     71 H182       -9.7790    5.2480   -0.5460 hc        1 6PL      0.039700
     72 H171       -9.6790    3.3520   -2.2010 hc        1 6PL      0.039700
     73 H172      -10.1510    2.1920   -0.9010 hc        1 6PL      0.039700
     74 H161       -8.1100    2.8450    0.4230 hc        1 6PL      0.040200
     75 H162       -7.6380    4.0040   -0.8780 hc        1 6PL      0.040200
     76 H151       -7.5370    2.1070   -2.5320 hc        1 6PL      0.041700
     77 H152       -8.0100    0.9480   -1.2310 hc        1 6PL      0.041700
     78 H141       -5.9680    1.5980    0.0920 hc        1 6PL      0.041200
     79 H142       -5.4970    2.7610   -1.2070 hc        1 6PL      0.041200
     80 H131       -5.3810    0.8690   -2.8680 hc        1 6PL      0.055700
     81 H132       -5.8750   -0.2940   -1.5780 hc        1 6PL      0.055700
     82 H121       -3.8300    0.2570   -0.2470 hc        1 6PL      0.080200
     83 H122       -3.3590    1.5250   -1.4540 hc        1 6PL      0.080200
     84 H31        -0.8510   -1.5640   -2.9810 h1        1 6PL      0.066700
     85 H32        -2.1020   -2.8590   -2.6250 h1        1 6PL      0.066700
     86 H2          0.0720   -3.5860   -1.7030 h1        1 6PL      0.100700
     87 H11        -1.0970   -2.5380    0.9230 h1        1 6PL      0.061700
     88 H12        -2.2700   -3.4460   -0.1610 h1        1 6PL      0.061700
     89 H41        -3.3480   -5.5740    3.1110 h1        1 6PL      0.059200
     90 H42        -4.5330   -5.4040    1.7190 h1        1 6PL      0.059200
     91 H51        -4.9540   -7.4970    2.8430 hx        1 6PL      0.078700
     92 H52        -4.3690   -7.7590    1.1170 hx        1 6PL      0.078700
     93 H71        -3.1270   -7.5710    4.5980 hx        1 6PL      0.100256
     94 H72        -1.7590   -8.7650    4.3140 hx        1 6PL      0.100256
     95 H73        -1.6530   -7.0900    3.5760 hx        1 6PL      0.100256
     96 H81        -4.3370  -10.0470    2.0690 hx        1 6PL      0.100256
     97 H82        -3.0090  -10.4860    3.2490 hx        1 6PL      0.100256
     98 H83        -4.4610   -9.5330    3.8240 hx        1 6PL      0.100256
     99 H61        -1.5010   -7.7370    1.3180 hx        1 6PL      0.100256
    100 H62        -1.2850   -9.4410    1.9690 hx        1 6PL      0.100256
    101 H63        -2.5540   -9.1200    0.6740 hx        1 6PL      0.100256
    102 H321        2.3390   -0.5300    0.2720 hc        1 6PL      0.078200
    103 H322        2.2980    0.4560   -1.2510 hc        1 6PL      0.078200
    104 H331        4.1120   -1.0550   -2.2230 hc        1 6PL      0.058200
    105 H332        4.2000   -1.9240   -0.6420 hc        1 6PL      0.058200
    106 H341        4.7500    0.2490    0.5210 hc        1 6PL      0.040700
    107 H342        4.6850    1.1100   -1.0650 hc        1 6PL      0.040700
    108 H351        6.5130   -0.3830   -1.9490 hc        1 6PL      0.042700
    109 H352        6.5810   -1.2380   -0.3600 hc        1 6PL      0.042700
    110 H361        7.1410    0.9350    0.7850 hc        1 6PL      0.039200
    111 H362        7.0730    1.7900   -0.8030 hc        1 6PL      0.039200
    112 H371        8.9020    0.2990   -1.6830 hc        1 6PL      0.040200
    113 H372        8.9700   -0.5550   -0.0940 hc        1 6PL      0.040200
    114 H381        9.5300    1.6180    1.0490 hc        1 6PL      0.039200
    115 H382        9.4620    2.4720   -0.5390 hc        1 6PL      0.039200
    116 H391       11.2920    0.9810   -1.4200 hc        1 6PL      0.039700
    117 H392       11.3600    0.1270    0.1690 hc        1 6PL      0.039700
    118 H401       11.9200    2.3010    1.3130 hc        1 6PL      0.039700
    119 H402       11.8510    3.1550   -0.2760 hc        1 6PL      0.039700
    120 H411       13.6810    1.6640   -1.1560 hc        1 6PL      0.039700
    121 H412       13.7500    0.8100    0.4330 hc        1 6PL      0.039700
    122 H421       14.3100    2.9840    1.5760 hc        1 6PL      0.039700
    123 H422       14.2410    3.8370   -0.0130 hc        1 6PL      0.039700
    124 H431       16.0710    2.3460   -0.8930 hc        1 6PL      0.039700
    125 H432       16.1400    1.4930    0.6960 hc        1 6PL      0.039700
    126 H441       16.7000    3.6670    1.8390 hc        1 6PL      0.039700
    127 H442       16.6310    4.5200    0.2500 hc        1 6PL      0.039700
    128 H451       18.4610    3.0290   -0.6300 hc        1 6PL      0.039700
    129 H452       18.5290    2.1760    0.9600 hc        1 6PL      0.039700
    130 H461       19.0900    4.3490    2.1030 hc        1 6PL      0.039700
    131 H462       19.0210    5.2030    0.5130 hc        1 6PL      0.039700
    132 H471       20.8490    3.7120   -0.3660 hc        1 6PL      0.038700
    133 H472       20.9170    2.8580    1.2230 hc        1 6PL      0.038700
    134 H481       22.6960    4.6000    1.0560 hc        1 6PL      0.032367
    135 H482       21.4460    5.8790    0.7680 hc        1 6PL      0.032367
    136 H483       21.5150    5.0240    2.3620 hc        1 6PL      0.032367
@<TRIPOS>BOND
     1    1    2 1   
     2    1   53 1   
     3    1   54 1   
     4    1   55 1   
     5    2    3 1   
     6    2   56 1   
     7    2   57 1   
     8    3    4 1   
     9    3   58 1   
    10    3   59 1   
    11    4    5 1   
    12    4   60 1   
    13    4   61 1   
    14    5    6 1   
    15    5   62 1   
    16    5   63 1   
    17    6    7 1   
    18    6   64 1   
    19    6   65 1   
    20    7    8 1   
    21    7   66 1   
    22    7   67 1   
    23    8    9 1   
    24    8   68 1   
    25    8   69 1   
    26    9   10 1   
    27    9   70 1   
    28    9   71 1   
    29   10   11 1   
    30   10   72 1   
    31   10   73 1   
    32   11   12 1   
    33   11   74 1   
    34   11   75 1   
    35   12   13 1   
    36   12   76 1   
    37   12   77 1   
    38   13   14 1   
    39   13   78 1   
    40   13   79 1   
    41   14   15 1   
    42   14   80 1   
    43   14   81 1   
    44   15   16 1   
    45   15   82 1   
    46   15   83 1   
    47   16   17 2   
    48   16   18 1   
    49   18   19 1   
    50   19   20 1   
    51   19   84 1   
    52   19   85 1   
    53   20   21 1   
    54   20   33 1   
    55   20   86 1   
    56   21   22 1   
    57   21   87 1   
    58   21   88 1   
    59   22   23 1   
    60   23   24 1   
    61   23   25 1   
    62   23   26 1   
    63   26   27 1   
    64   27   28 1   
    65   27   89 1   
    66   27   90 1   
    67   28   29 1   
    68   28   91 1   
    69   28   92 1   
    70   29   30 1   
    71   29   31 1   
    72   29   32 1   
    73   30   93 1   
    74   30   94 1   
    75   30   95 1   
    76   31   96 1   
    77   31   97 1   
    78   31   98 1   
    79   32   99 1   
    80   32  100 1   
    81   32  101 1   
    82   33   34 1   
    83   34   35 2   
    84   34   36 1   
    85   36   37 1   
    86   36  102 1   
    87   36  103 1   
    88   37   38 1   
    89   37  104 1   
    90   37  105 1   
    91   38   39 1   
    92   38  106 1   
    93   38  107 1   
    94   39   40 1   
    95   39  108 1   
    96   39  109 1   
    97   40   41 1   
    98   40  110 1   
    99   40  111 1   
   100   41   42 1   
   101   41  112 1   
   102   41  113 1   
   103   42   43 1   
   104   42  114 1   
   105   42  115 1   
   106   43   44 1   
   107   43  116 1   
   108   43  117 1   
   109   44   45 1   
   110   44  118 1   
   111   44  119 1   
   112   45   46 1   
   113   45  120 1   
   114   45  121 1   
   115   46   47 1   
   116   46  122 1   
   117   46  123 1   
   118   47   48 1   
   119   47  124 1   
   120   47  125 1   
   121   48   49 1   
   122   48  126 1   
   123   48  127 1   
   124   49   50 1   
   125   49  128 1   
   126   49  129 1   
   127   50   51 1   
   128   50  130 1   
   129   50  131 1   
   130   51   52 1   
   131   51  132 1   
   132   51  133 1   
   133   52  134 1   
   134   52  135 1   
   135   52  136 1   
@<TRIPOS>SUBSTRUCTURE
     1 6PL         1 TEMP              0 ****  ****    0 ROOT
