@<TRIPOS>MOLECULE
6PN
   42    43     1     0     0
SMALL
bcc


@<TRIPOS>ATOM
      1 CAA        -8.3380   -1.0610    0.7420 c3        1 6PN     -0.093100
      2 OAB         1.4270    2.7190    0.6060 oh        1 6PN     -0.492100
      3 CAC         6.1040   -1.3010   -0.5500 ca        1 6PN     -0.155000
      4 CAD         4.9730   -1.0810   -1.3350 ca        1 6PN     -0.103000
      5 CAE         6.0820   -0.9900    0.8110 ca        1 6PN     -0.103000
      6 CAF         3.8140   -0.5490   -0.7700 ca        1 6PN     -0.165500
      7 CAG         4.9370   -0.4610    1.3980 ca        1 6PN     -0.165500
      8 CAH        -0.4290   -0.9160   -0.2150 ca        1 6PN     -0.155000
      9 CAI         0.8530   -0.9320    0.3240 ca        1 6PN     -0.105000
     10 CAJ        -0.4450    1.5080   -0.1990 ca        1 6PN     -0.151000
     11 CAK        -7.2980   -0.6380   -0.2620 c3        1 6PN     -0.080400
     12 CAL        -5.9150   -0.6000    0.3530 c3        1 6PN     -0.079400
     13 CAM        -4.8740   -0.1750   -0.6600 c3        1 6PN     -0.080400
     14 CAN        -3.4930   -0.1380   -0.0420 c3        1 6PN     -0.076400
     15 CAO        -2.4520    0.2910   -1.0590 c3        1 6PN     -0.040100
     16 OAP         2.7250    0.3390    1.2540 os        1 6PN     -0.260200
     17 CAQ        -1.0820    0.2980   -0.4760 ca        1 6PN     -0.046300
     18 CAR         0.8510    1.5030    0.3410 ca        1 6PN      0.133100
     19 CAS         3.8060   -0.2410    0.5940 ca        1 6PN      0.107100
     20 CAT         1.4950    0.2780    0.6010 ca        1 6PN     -0.002900
     21 HAA        -8.3670   -0.3500    1.6040 hc        1 6PN      0.033033
     22 HAAA       -9.3500   -1.0820    0.2690 hc        1 6PN      0.033033
     23 HAAB       -8.1130   -2.0810    1.1380 hc        1 6PN      0.033033
     24 HOAB        2.3110    2.5550    0.9740 ho        1 6PN      0.437000
     25 HAD         4.9900   -1.3260   -2.4070 ha        1 6PN      0.135000
     26 HAE         6.9760   -1.1650    1.4290 ha        1 6PN      0.135000
     27 HAF         2.9180   -0.3760   -1.3840 ha        1 6PN      0.149500
     28 HAG         4.9030   -0.2120    2.4670 ha        1 6PN      0.149500
     29 HAH        -0.9410   -1.8650   -0.4350 ha        1 6PN      0.139000
     30 HAI         1.3700   -1.8810    0.5310 ha        1 6PN      0.149000
     31 HAJ        -0.9390    2.4710   -0.3940 ha        1 6PN      0.154000
     32 HAK        -7.3010   -1.3490   -1.1300 hc        1 6PN      0.038200
     33 HAKA       -7.5550    0.3770   -0.6660 hc        1 6PN      0.038200
     34 HAL        -5.9100    0.1120    1.2200 hc        1 6PN      0.040700
     35 HALA       -5.6560   -1.6140    0.7560 hc        1 6PN      0.040700
     36 HAM        -4.8800   -0.8860   -1.5270 hc        1 6PN      0.039700
     37 HAMA       -5.1330    0.8400   -1.0620 hc        1 6PN      0.039700
     38 HAN        -3.4860    0.5720    0.8260 hc        1 6PN      0.046200
     39 HANA       -3.2290   -1.1530    0.3570 hc        1 6PN      0.046200
     40 HAO        -2.4770   -0.4120   -1.9360 hc        1 6PN      0.050700
     41 HAOA       -2.7120    1.3130   -1.4470 hc        1 6PN      0.050700
     42 HAC         7.0140   -1.7200   -1.0020 ha        1 6PN      0.134000
@<TRIPOS>BOND
     1    1   11 1   
     2    1   21 1   
     3    1   22 1   
     4    1   23 1   
     5    2   18 1   
     6    2   24 1   
     7    3    4 ar  
     8    3    5 ar  
     9    3   42 1   
    10    4    6 ar  
    11    4   25 1   
    12    5    7 ar  
    13    5   26 1   
    14    6   19 ar  
    15    6   27 1   
    16    7   19 ar  
    17    7   28 1   
    18    8    9 ar  
    19    8   17 ar  
    20    8   29 1   
    21    9   20 ar  
    22    9   30 1   
    23   10   17 ar  
    24   10   18 ar  
    25   10   31 1   
    26   11   12 1   
    27   11   32 1   
    28   11   33 1   
    29   12   13 1   
    30   12   34 1   
    31   12   35 1   
    32   13   14 1   
    33   13   36 1   
    34   13   37 1   
    35   14   15 1   
    36   14   38 1   
    37   14   39 1   
    38   15   17 1   
    39   15   40 1   
    40   15   41 1   
    41   16   19 1   
    42   16   20 1   
    43   18   20 ar  
@<TRIPOS>SUBSTRUCTURE
     1 6PN         1 TEMP              0 ****  ****    0 ROOT
