@<TRIPOS>MOLECULE
6PN
   42    43     1     0     0
SMALL
bcc


@<TRIPOS>ATOM
      1 CAA         0.1840    0.2450   -0.5720 c3        1 6PN     -0.093100
      2 OAB         7.1410    1.8980    7.0800 oh        1 6PN     -0.492100
      3 CAC         9.4500   -3.1170   10.0630 ca        1 6PN     -0.155000
      4 CAD         9.4540   -2.8830    8.6880 ca        1 6PN     -0.103000
      5 CAE         8.5140   -2.4790   10.8790 ca        1 6PN     -0.103000
      6 CAF         8.5260   -2.0110    8.1180 ca        1 6PN     -0.165500
      7 CAG         7.5770   -1.6080   10.3330 ca        1 6PN     -0.165500
      8 CAH         5.5340   -1.3930    5.1000 ca        1 6PN     -0.155000
      9 CAI         5.8680   -1.5250    6.4440 ca        1 6PN     -0.105000
     10 CAJ         6.2780    0.9150    5.1030 ca        1 6PN     -0.151000
     11 CAK         1.6750    0.1960   -0.3620 c3        1 6PN     -0.080400
     12 CAL         2.0270    0.1150    1.1080 c3        1 6PN     -0.079400
     13 CAM         3.5250    0.0650    1.3140 c3        1 6PN     -0.080400
     14 CAN         3.8730   -0.0160    2.7840 c3        1 6PN     -0.076400
     15 CAO         5.3770   -0.0630    2.9860 c3        1 6PN     -0.040100
     16 OAP         6.6550   -0.4520    8.4970 os        1 6PN     -0.260200
     17 CAQ         5.7350   -0.1790    4.4270 ca        1 6PN     -0.046300
     18 CAR         6.6230    0.7910    6.4580 ca        1 6PN      0.133100
     19 CAS         7.5950   -1.3780    8.9470 ca        1 6PN      0.107100
     20 CAT         6.4140   -0.4330    7.1240 ca        1 6PN     -0.002900
     21 HAA        -0.3040   -0.6690   -0.1540 hc        1 6PN      0.033033
     22 HAAA       -0.2570    1.1380   -0.0660 hc        1 6PN      0.033033
     23 HAAB       -0.0530    0.3040   -1.6620 hc        1 6PN      0.033033
     24 HOAB        7.3260    1.6610    8.0040 ho        1 6PN      0.437000
     25 HAD        10.1920   -3.3850    8.0460 ha        1 6PN      0.135000
     26 HAE         8.5130   -2.6660   11.9630 ha        1 6PN      0.135000
     27 HAF         8.5230   -1.8250    7.0340 ha        1 6PN      0.149500
     28 HAG         6.8320   -1.0990   10.9610 ha        1 6PN      0.149500
     29 HAH         5.1040   -2.2480    4.5580 ha        1 6PN      0.139000
     30 HAI         5.7120   -2.4740    6.9770 ha        1 6PN      0.149000
     31 HAJ         6.4420    1.8760    4.5960 ha        1 6PN      0.154000
     32 HAK         2.1020   -0.6930   -0.8980 hc        1 6PN      0.038200
     33 HAKA        2.1490    1.1090   -0.8100 hc        1 6PN      0.038200
     34 HAL         1.6020    1.0040    1.6450 hc        1 6PN      0.040700
     35 HALA        1.5550   -0.7990    1.5570 hc        1 6PN      0.040700
     36 HAM         3.9970    0.9800    0.8650 hc        1 6PN      0.039700
     37 HAMA        3.9500   -0.8230    0.7760 hc        1 6PN      0.039700
     38 HAN         3.4070   -0.9320    3.2350 hc        1 6PN      0.046200
     39 HANA        3.4490    0.8720    3.3230 hc        1 6PN      0.046200
     40 HAO         5.8000   -0.9420    2.4290 hc        1 6PN      0.050700
     41 HAOA        5.8390    0.8620    2.5470 hc        1 6PN      0.050700
     42 HAC        10.1850   -3.8040   10.5050 ha        1 6PN      0.134000
@<TRIPOS>BOND
     1    1   11 1   
     2    1   21 1   
     3    1   22 1   
     4    1   23 1   
     5    2   18 1   
     6    2   24 1   
     7    3    4 ar  
     8    3    5 ar  
     9    3   42 1   
    10    4    6 ar  
    11    4   25 1   
    12    5    7 ar  
    13    5   26 1   
    14    6   19 ar  
    15    6   27 1   
    16    7   19 ar  
    17    7   28 1   
    18    8    9 ar  
    19    8   17 ar  
    20    8   29 1   
    21    9   20 ar  
    22    9   30 1   
    23   10   17 ar  
    24   10   18 ar  
    25   10   31 1   
    26   11   12 1   
    27   11   32 1   
    28   11   33 1   
    29   12   13 1   
    30   12   34 1   
    31   12   35 1   
    32   13   14 1   
    33   13   36 1   
    34   13   37 1   
    35   14   15 1   
    36   14   38 1   
    37   14   39 1   
    38   15   17 1   
    39   15   40 1   
    40   15   41 1   
    41   16   19 1   
    42   16   20 1   
    43   18   20 ar  
@<TRIPOS>SUBSTRUCTURE
     1 6PN         1 TEMP              0 ****  ****    0 ROOT
