@<TRIPOS>MOLECULE
6PN
   42    43     1     0     0
SMALL
bcc


@<TRIPOS>ATOM
      1 CAA         0.2110    0.1930   -0.6050 c3        1 6PN     -0.093100
      2 OAB         7.0110    1.9050    7.1780 oh        1 6PN     -0.492100
      3 CAC         9.4890   -3.1050   10.0350 ca        1 6PN     -0.155000
      4 CAD         9.4980   -2.8290    8.6690 ca        1 6PN     -0.103000
      5 CAE         8.5190   -2.5310   10.8590 ca        1 6PN     -0.103000
      6 CAF         8.5440   -1.9770    8.1140 ca        1 6PN     -0.165500
      7 CAG         7.5540   -1.6810   10.3280 ca        1 6PN     -0.165500
      8 CAH         5.5630   -1.3870    5.0800 ca        1 6PN     -0.155000
      9 CAI         5.8880   -1.5460    6.4230 ca        1 6PN     -0.105000
     10 CAJ         6.2100    0.9480    5.1620 ca        1 6PN     -0.151000
     11 CAK         1.7010    0.2020   -0.3790 c3        1 6PN     -0.080400
     12 CAL         2.0400    0.0910    1.0930 c3        1 6PN     -0.079400
     13 CAM         3.5370    0.1000    1.3150 c3        1 6PN     -0.080400
     14 CAN         3.8720   -0.0110    2.7870 c3        1 6PN     -0.076400
     15 CAO         5.3730    0.0000    3.0060 c3        1 6PN     -0.040100
     16 OAP         6.6080   -0.5060    8.5170 os        1 6PN     -0.260200
     17 CAQ         5.7210   -0.1450    4.4460 ca        1 6PN     -0.046300
     18 CAR         6.5460    0.7970    6.5170 ca        1 6PN      0.133100
     19 CAS         7.5780   -1.4070    8.9500 ca        1 6PN      0.107100
     20 CAT         6.3810   -0.4540    7.1430 ca        1 6PN     -0.002900
     21 HAA        -0.2400   -0.7540   -0.2210 hc        1 6PN      0.033033
     22 HAAA       -0.2730    1.0500   -0.0770 hc        1 6PN      0.033033
     23 HAAB       -0.0170    0.2760   -1.6950 hc        1 6PN      0.033033
     24 HOAB        7.1960    1.6470    8.0970 ho        1 6PN      0.437000
     25 HAD        10.2630   -3.2810    8.0200 ha        1 6PN      0.135000
     26 HAE         8.5130   -2.7520   11.9370 ha        1 6PN      0.135000
     27 HAF         8.5450   -1.7580    7.0370 ha        1 6PN      0.149500
     28 HAG         6.7830   -1.2210   10.9620 ha        1 6PN      0.149500
     29 HAH         5.1750   -2.2420    4.5070 ha        1 6PN      0.139000
     30 HAI         5.7660   -2.5170    6.9250 ha        1 6PN      0.149000
     31 HAJ         6.3400    1.9310    4.6860 ha        1 6PN      0.154000
     32 HAK         2.1720   -0.6500   -0.9360 hc        1 6PN      0.038200
     33 HAKA        2.1390    1.1490   -0.7920 hc        1 6PN      0.038200
     34 HAL         1.5710    0.9440    1.6510 hc        1 6PN      0.040700
     35 HALA        1.6030   -0.8550    1.5080 hc        1 6PN      0.040700
     36 HAM         3.9730    1.0470    0.9000 hc        1 6PN      0.039700
     37 HAMA        4.0050   -0.7520    0.7560 hc        1 6PN      0.039700
     38 HAN         3.4410   -0.9600    3.2040 hc        1 6PN      0.046200
     39 HANA        3.4040    0.8400    3.3470 hc        1 6PN      0.046200
     40 HAO         5.8400   -0.8420    2.4270 hc        1 6PN      0.050700
     41 HAOA        5.8000    0.9570    2.6010 hc        1 6PN      0.050700
     42 HAC        10.2460   -3.7770   10.4660 ha        1 6PN      0.134000
@<TRIPOS>BOND
     1    1   11 1   
     2    1   21 1   
     3    1   22 1   
     4    1   23 1   
     5    2   18 1   
     6    2   24 1   
     7    3    4 ar  
     8    3    5 ar  
     9    3   42 1   
    10    4    6 ar  
    11    4   25 1   
    12    5    7 ar  
    13    5   26 1   
    14    6   19 ar  
    15    6   27 1   
    16    7   19 ar  
    17    7   28 1   
    18    8    9 ar  
    19    8   17 ar  
    20    8   29 1   
    21    9   20 ar  
    22    9   30 1   
    23   10   17 ar  
    24   10   18 ar  
    25   10   31 1   
    26   11   12 1   
    27   11   32 1   
    28   11   33 1   
    29   12   13 1   
    30   12   34 1   
    31   12   35 1   
    32   13   14 1   
    33   13   36 1   
    34   13   37 1   
    35   14   15 1   
    36   14   38 1   
    37   14   39 1   
    38   15   17 1   
    39   15   40 1   
    40   15   41 1   
    41   16   19 1   
    42   16   20 1   
    43   18   20 ar  
@<TRIPOS>SUBSTRUCTURE
     1 6PN         1 TEMP              0 ****  ****    0 ROOT
