@<TRIPOS>MOLECULE
6PN
   42    38     1     0     0
SMALL
bcc


@<TRIPOS>ATOM
      1 CAA        -3.9120   -2.9720   -5.5140 c3        1 6PN     -0.211000
      2 OAB        -0.7450    1.7150    2.8740 oh        1 6PN     -0.230000
      3 CAC         3.7130    1.7330    6.3290 c1        1 6PN     -0.129250
      4 CAD         4.3880    1.0220    5.3490 c1        1 6PN     -0.129250
      5 CAE         2.3650    2.0160    6.1750 c1        1 6PN     -0.129250
      6 CAF         3.7150    0.5940    4.2150 c1        1 6PN     -0.129250
      7 CAG         1.6910    1.5880    5.0420 c1        1 6PN     -0.189000
      8 CAH         1.3880   -0.0380   -0.2120 c1        1 6PN     -0.158000
      9 CAI         1.9120    0.0110    1.0700 c1        1 6PN     -0.099000
     10 CAJ        -0.4620    1.3220    0.4920 c1        1 6PN     -0.211000
     11 CAK        -2.7880   -1.9810   -5.3010 c3        1 6PN     -0.159000
     12 CAL        -2.6430   -1.6930   -3.8220 c3        1 6PN     -0.158000
     13 CAM        -1.6020   -0.6130   -3.6180 c3        1 6PN     -0.159000
     14 CAN        -1.2600   -0.5130   -2.1460 c3        1 6PN     -0.155000
     15 CAO        -0.3170    0.6500   -1.9250 c3        1 6PN     -0.127000
     16 OAP         1.3690    0.1810    3.3580 os        1 6PN     -0.146000
     17 CAQ         0.2010    0.6170   -0.5020 c1        1 6PN     -0.028000
     18 CAR         0.0630    1.3700    1.7740 c2        1 6PN      0.084000
     19 CAS         2.3660    0.8770    4.0620 c1        1 6PN      0.080000
     20 CAT         1.2490    0.7150    2.0630 c2        1 6PN      0.005000
     21 HAA        -4.0300   -3.1310   -6.4740 hc        1 6PN      0.072667
     22 HAAA       -4.7420   -2.6110   -5.1380 hc        1 6PN      0.072667
     23 HAAB       -3.6910   -3.8170   -5.0680 hc        1 6PN      0.072667
     24 HOAB       -1.0530    2.5420    2.7680 ho        1 6PN      0.218000
     25 HAC         4.1870    2.0340    7.1270 ha        1 6PN      0.135750
     26 HAD         5.3370    0.8230    5.4570 ha        1 6PN      0.135750
     27 HAE         1.8890    2.5160    6.8660 ha        1 6PN      0.135750
     28 HAF         4.1900    0.0940    3.5250 ha        1 6PN      0.135750
     29 HAG         0.7420    1.7870    4.9340 ha        1 6PN      0.143000
     30 HAH         1.8540   -0.5340   -0.9110 ha        1 6PN      0.139000
     31 HAI         2.7480   -0.4500    1.2740 ha        1 6PN      0.151000
     32 HAJ        -1.2970    1.7830    0.2880 ha        1 6PN      0.138000
     33 HAK        -2.9910   -1.1500   -5.7760 hc        1 6PN      0.078000
     34 HAKA       -1.9520   -2.3560   -5.6440 hc        1 6PN      0.078000
     35 HAL        -2.3630   -2.5070   -3.3580 hc        1 6PN      0.080000
     36 HALA       -3.5010   -1.3910   -3.4630 hc        1 6PN      0.080000
     37 HAM        -1.9560    0.2440   -3.9290 hc        1 6PN      0.079000
     38 HAMA       -0.7960   -0.8360   -4.1260 hc        1 6PN      0.079000
     39 HAN        -0.8290   -1.3420   -1.8550 hc        1 6PN      0.085000
     40 HANA       -2.0780   -0.3720   -1.6300 hc        1 6PN      0.085000
     41 HAO         0.4350    0.5830   -2.5470 hc        1 6PN      0.090000
     42 HAOA       -0.7930    1.4900   -2.0790 hc        1 6PN      0.090000
@<TRIPOS>BOND
     1    1   11 1   
     2    1   21 1   
     3    1   22 1   
     4    1   23 1   
     5    2   18 1   
     6    2   24 1   
     7    3    5 1   
     8    3   25 1   
     9    4    6 1   
    10    4   26 1   
    11    5   27 1   
    12    6   28 1   
    13    7   19 1   
    14    7   29 1   
    15    8   17 1   
    16    8   30 1   
    17    9   20 1   
    18    9   31 1   
    19   10   18 1   
    20   10   32 1   
    21   11   12 1   
    22   11   33 1   
    23   11   34 1   
    24   12   13 1   
    25   12   35 1   
    26   12   36 1   
    27   13   14 1   
    28   13   37 1   
    29   13   38 1   
    30   14   15 1   
    31   14   39 1   
    32   14   40 1   
    33   15   17 1   
    34   15   41 1   
    35   15   42 1   
    36   16   19 1   
    37   16   20 1   
    38   18   20 1   
@<TRIPOS>SUBSTRUCTURE
     1 6PN         1 TEMP              0 ****  ****    0 ROOT
