@<TRIPOS>MOLECULE
6PO
   44    46     1     0     0
SMALL
bcc


@<TRIPOS>ATOM
      1 OP2         4.7680   -0.4670   -1.7440 o         1 6PO     -0.930500
      2 P           5.0980    0.9110   -1.2050 p5        1 6PO      1.331900
      3 OP1         4.2760    2.0140   -1.8060 o         1 6PO     -0.930500
      4 O5'         4.3410    0.7390    0.3620 os        1 6PO     -0.553200
      5 C5'         2.9920    0.5320    0.2970 c3        1 6PO      0.227400
      6 C4'         2.6590   -0.9620    0.5260 c3        1 6PO      0.052100
      7 C3'         2.4600   -1.7630   -0.7770 c3        1 6PO      0.157100
      8 O3'         3.4570   -2.7470   -0.9290 oh        1 6PO     -0.672800
      9 C2'         1.1010   -2.4620   -0.6220 c3        1 6PO     -0.129400
     10 O4'         1.4410   -1.0820    1.3110 os        1 6PO     -0.435600
     11 C1'         0.4410   -1.7900    0.6000 c3        1 6PO      0.254800
     12 N9         -0.6510   -0.8750    0.2550 na        1 6PO     -0.260000
     13 C8         -0.5410    0.4690   -0.1740 cc        1 6PO      0.452700
     14 N7         -1.7260    1.0850   -0.3420 nd        1 6PO     -0.554100
     15 C5         -2.6840    0.1220   -0.0030 ca        1 6PO     -0.187200
     16 C4         -2.0180   -1.1300    0.3880 ca        1 6PO      0.449800
     17 C6         -4.0980    0.0990    0.0590 ca        1 6PO      0.718600
     18 N1         -4.7860   -0.9950    0.4510 nb        1 6PO     -0.842000
     19 C2         -4.0460   -2.1320    0.7760 ca        1 6PO      0.845900
     20 N2         -4.8010   -3.3030    1.0750 nh        1 6PO     -0.899500
     21 N3         -2.6780   -2.2560    0.7860 nb        1 6PO     -0.749000
     22 O6         -4.7390    1.2670   -0.2870 os        1 6PO     -0.424100
     23 C1X        -6.1750    1.2580   -0.2780 c3        1 6PO      0.138400
     24 C2X        -6.5870    2.6470   -0.7380 c3        1 6PO     -0.093400
     25 C3X        -8.0870    2.7690   -0.7700 c3        1 6PO     -0.088100
     26 H5'         2.4760    1.1110    1.1210 h1        1 6PO     -0.004300
     27 H5''        2.5790    0.8680   -0.6980 h1        1 6PO     -0.004300
     28 H4'         3.4600   -1.4310    1.1580 h1        1 6PO      0.081700
     29 H3'         2.4710   -1.0780   -1.6700 h1        1 6PO      0.103700
     30 HO3'        4.2550   -2.2570   -1.2390 ho        1 6PO      0.501000
     31 H2'         0.4940   -2.3700   -1.5510 hc        1 6PO      0.054200
     32 H2''        1.2460   -3.5480   -0.4010 hc        1 6PO      0.054200
     33 H1'         0.0060   -2.5460    1.3190 h2        1 6PO      0.069700
     34 H8          0.4600    0.9190   -0.3320 h5        1 6PO      0.127800
     35 HN1        -5.6910   -3.1020    1.4790 hn        1 6PO      0.389300
     36 HN2        -4.2860   -3.9760    1.6020 hn        1 6PO      0.389300
     37 H1X1       -6.5550    0.4710   -0.9780 h1        1 6PO      0.042700
     38 H1X2       -6.5440    1.0500    0.7590 h1        1 6PO      0.042700
     39 H2X1       -6.1470    3.4110   -0.0440 hc        1 6PO      0.058700
     40 H2X2       -6.1570    2.8410   -1.7550 hc        1 6PO      0.058700
     41 H3X1       -8.5290    2.0220   -1.4730 hc        1 6PO      0.028700
     42 H3X2       -8.5210    2.5940    0.2440 hc        1 6PO      0.028700
     43 H3X3       -8.3830    3.7910   -1.1090 hc        1 6PO      0.028700
     44 OP3         6.5310    1.1880   -0.8750 o         1 6PO     -0.930500
@<TRIPOS>BOND
     1    1    2 1   
     2    2    3 1   
     3    2    4 1   
     4    2   44 1   
     5    4    5 1   
     6    5    6 1   
     7    5   26 1   
     8    5   27 1   
     9    6    7 1   
    10    6   10 1   
    11    6   28 1   
    12    7    8 1   
    13    7    9 1   
    14    7   29 1   
    15    8   30 1   
    16    9   11 1   
    17    9   31 1   
    18    9   32 1   
    19   10   11 1   
    20   11   12 1   
    21   11   33 1   
    22   12   13 1   
    23   12   16 1   
    24   13   14 2   
    25   13   34 1   
    26   14   15 1   
    27   15   16 ar  
    28   15   17 ar  
    29   16   21 ar  
    30   17   18 ar  
    31   17   22 1   
    32   18   19 ar  
    33   19   20 1   
    34   19   21 ar  
    35   20   35 1   
    36   20   36 1   
    37   22   23 1   
    38   23   24 1   
    39   23   37 1   
    40   23   38 1   
    41   24   25 1   
    42   24   39 1   
    43   24   40 1   
    44   25   41 1   
    45   25   42 1   
    46   25   43 1   
@<TRIPOS>SUBSTRUCTURE
     1 6PO         1 TEMP              0 ****  ****    0 ROOT
