@<TRIPOS>MOLECULE
6PO
   44    41     1     0     0
SMALL
bcc


@<TRIPOS>ATOM
      1 OP2         3.1210   -6.4030    2.6180 o         1 6PO     -1.252333
      2 P           3.2820   -5.4610    3.7590 p3        1 6PO      2.550000
      3 OP1         2.3780   -5.9030    4.9260 o         1 6PO     -1.252333
      4 O5'         2.8620   -3.9440    3.2830 o         1 6PO     -0.730000
      5 C5'         1.5330   -3.7070    2.8860 c3        1 6PO      0.060000
      6 C4'         1.1640   -2.2260    3.1670 c3        1 6PO     -0.040000
      7 C3'        -0.4170   -2.0550    3.2700 c3        1 6PO      0.022000
      8 O3'        -0.7730   -1.7810    4.5450 oh        1 6PO     -0.398000
      9 C2'        -0.7460   -0.9130    2.3960 c3        1 6PO     -0.185000
     10 O4'         1.5050   -1.5140    2.2140 os        1 6PO     -0.306000
     11 C1'         0.4140   -0.3550    2.1120 c3        1 6PO      0.168000
     12 N9          0.3900    0.1830    0.7960 n3        1 6PO     -0.201000
     13 C8          0.2680    1.4280    1.3340 c1        1 6PO     -0.082000
     14 N7         -0.0020    2.2820    0.3420 n2        1 6PO     -0.114000
     15 C5         -0.0500    1.5770   -0.8230 c1        1 6PO     -0.272000
     16 C4          0.1920    0.2840   -0.5360 c1        1 6PO      0.114000
     17 C6         -0.1900    1.9840   -2.1620 c1        1 6PO      0.232000
     18 N1         -0.0820    1.0860   -3.1440 n1        1 6PO     -0.343000
     19 C2          0.1670   -0.2380   -2.8470 c1        1 6PO      0.210000
     20 N2          0.2580   -0.5910   -4.2460 n2        1 6PO     -0.290000
     21 N3          0.3030   -0.6340   -1.5480 n2        1 6PO     -0.203000
     22 O6         -1.2610    2.6690   -2.8570 os        1 6PO     -0.207000
     23 C1X        -0.9510    4.0420   -3.2140 c3        1 6PO     -0.011000
     24 C2X        -2.2470    4.7810   -3.5740 c3        1 6PO     -0.170000
     25 C3X        -2.5530    4.5830   -5.0370 c3        1 6PO     -0.206000
     26 H5'         1.4400   -3.8900    1.9200 h1        1 6PO      0.047000
     27 H5''        0.9540   -4.2730    3.3710 h1        1 6PO      0.047000
     28 H4'         1.5800   -1.9270    3.9670 h1        1 6PO      0.096000
     29 H3'        -0.8730   -2.8710    2.9530 h1        1 6PO      0.186000
     30 HO3'       -1.4890   -2.2220    4.7470 ho        1 6PO      0.283000
     31 H2'        -1.1870   -1.2300    1.5670 hc        1 6PO      0.092000
     32 H2''       -1.3500   -0.2460    2.8930 hc        1 6PO      0.092000
     33 H1'         0.6110    0.3390    2.7490 h2        1 6PO      0.074000
     34 H8          0.2980    1.6420    2.2620 DU        1 6PO      0.174000
     35 HN1         0.7040   -1.3400   -4.4960 hn        1 6PO      0.257500
     36 HN2        -0.1250   -0.0400   -4.8910 hn        1 6PO      0.257500
     37 H1X1       -0.3730    4.0500   -3.9500 h1        1 6PO      0.087500
     38 H1X2       -0.5230    4.4850   -2.4600 h1        1 6PO      0.087500
     39 H2X1       -2.9680    4.4320   -3.0490 hc        1 6PO      0.088000
     40 H2X2       -2.1370    5.7800   -3.3800 hc        1 6PO      0.088000
     41 H3X1       -3.3830    5.0300   -5.2560 hc        1 6PO      0.066667
     42 H3X2       -2.6400    3.6060   -5.2270 hc        1 6PO      0.066667
     43 H3X3       -1.8130    4.9650   -5.5880 hc        1 6PO      0.066667
     44 OP3         4.7090   -5.4640    4.2070 o         1 6PO     -1.252333
@<TRIPOS>BOND
     1    1    2 1   
     2    2    3 1   
     3    2   44 1   
     4    4    5 1   
     5    5    6 1   
     6    5   26 1   
     7    5   27 1   
     8    6    7 1   
     9    6   10 1   
    10    6   28 1   
    11    7    8 1   
    12    7    9 1   
    13    7   29 1   
    14    8   30 1   
    15    9   11 1   
    16    9   31 1   
    17    9   32 1   
    18   10   11 1   
    19   11   12 1   
    20   11   33 1   
    21   12   13 1   
    22   12   16 1   
    23   13   14 1   
    24   14   15 1   
    25   15   17 1   
    26   16   21 1   
    27   17   22 1   
    28   18   19 1   
    29   19   21 1   
    30   20   35 1   
    31   20   36 1   
    32   22   23 1   
    33   23   24 1   
    34   23   37 1   
    35   23   38 1   
    36   24   25 1   
    37   24   39 1   
    38   24   40 1   
    39   25   41 1   
    40   25   42 1   
    41   25   43 1   
@<TRIPOS>SUBSTRUCTURE
     1 6PO         1 TEMP              0 ****  ****    0 ROOT
