@<TRIPOS>MOLECULE
6PP
   30    29     1     0     0
SMALL
bcc


@<TRIPOS>ATOM
      1 CAA         0.0230   -0.2710   -0.1520 c3        1 6PP     -0.210000
      2 CAB         2.2510   -1.3860    2.0800 c3        1 6PP     -0.181000
      3 OAD         3.0520    4.2950    3.1470 oh        1 6PP     -0.268000
      4 CAE         2.0510    1.0670    2.0830 c2        1 6PP     -0.166000
      5 CAF        -1.1770    2.4440    1.7040 c1        1 6PP      0.212000
      6 CAG        -0.1410    5.8060    3.9640 c2        1 6PP     -0.241000
      7 CAH        -0.3900    3.0590    2.5640 c2        1 6PP     -0.446000
      8 CAI         1.5250   -0.2020   -0.0090 c3        1 6PP     -0.131000
      9 CAJ         1.7910    2.4120    1.5120 c3        1 6PP     -0.097000
     10 CAK         1.9440   -0.0920    1.4170 c2        1 6PP     -0.104000
     11 CAL         1.0520    5.2090    4.1080 c2        1 6PP      0.022000
     12 CAM         1.6640    4.2450    3.1890 c2        1 6PP     -0.008000
     13 CAN         1.0360    3.2900    2.4590 c2        1 6PP     -0.009000
     14 HAA        -0.4600    0.6440    0.2760 hc        1 6PP      0.078000
     15 HAAA       -0.3810   -1.1620    0.3870 hc        1 6PP      0.078000
     16 HAAB       -0.2580   -0.3500   -1.2290 hc        1 6PP      0.078000
     17 HAB         3.1500   -1.8540    1.6060 hc        1 6PP      0.080667
     18 HABA        1.3880   -2.0870    1.9620 hc        1 6PP      0.080667
     19 HABB        2.4560   -1.2550    3.1700 hc        1 6PP      0.080667
     20 HOAC        2.4470    4.8590    5.3800 ho        1 6PP      0.225000
     21 HOAD        3.3010    5.2330    3.1400 ho        1 6PP      0.223000
     22 HAE         2.3760    1.0750    3.1370 ha        1 6PP      0.128000
     23 HAF        -0.8760    3.4400    3.4940 ha        1 6PP      0.202000
     24 HAG        -0.5160    6.5210    4.7060 ha        1 6PP      0.135500
     25 HAH        -0.7700    5.6300    3.0840 ha        1 6PP      0.135500
     26 HAI         1.9190    0.6720   -0.5950 hc        1 6PP      0.083000
     27 HAIA        1.9820   -1.1240   -0.4600 hc        1 6PP      0.083000
     28 HAJ         1.2070    2.3400    0.5530 hc        1 6PP      0.104000
     29 HAJA        2.7840    2.8900    1.2700 hc        1 6PP      0.104000
     30 OAC         1.8440    5.5910    5.1820 oh        1 6PP     -0.271000
@<TRIPOS>BOND
     1    1    8 1   
     2    1   14 1   
     3    1   15 1   
     4    1   16 1   
     5    2   10 1   
     6    2   17 1   
     7    2   18 1   
     8    2   19 1   
     9    3   12 1   
    10    3   21 1   
    11    4    9 1   
    12    4   10 1   
    13    4   22 1   
    14    5    7 1   
    15    6   11 1   
    16    6   24 1   
    17    6   25 1   
    18    7   13 1   
    19    7   23 1   
    20    8   10 1   
    21    8   26 1   
    22    8   27 1   
    23    9   13 1   
    24    9   28 1   
    25    9   29 1   
    26   11   12 1   
    27   11   30 1   
    28   12   13 1   
    29   20   30 1   
@<TRIPOS>SUBSTRUCTURE
     1 6PP         1 TEMP              0 ****  ****    0 ROOT
