@<TRIPOS>MOLECULE
6PP
   30    30     1     0     0
SMALL
bcc


@<TRIPOS>ATOM
      1 CAA         4.2480    1.2310    0.5310 c3        1 6PP     -0.087100
      2 CAB         3.5020   -1.2200   -1.5340 c3        1 6PP     -0.061900
      3 OAD        -1.2670   -1.8240    0.3400 oh        1 6PP     -0.523100
      4 CAE         1.4650   -0.3080   -0.4880 c2        1 6PP     -0.195200
      5 CAF        -2.5770    2.0720   -0.3270 ca        1 6PP     -0.125000
      6 CAG        -3.4610    0.9990   -0.4230 ca        1 6PP     -0.137000
      7 CAH        -1.2360    1.8650   -0.0130 ca        1 6PP     -0.130000
      8 CAI         3.6360   -0.1360    0.7290 c3        1 6PP     -0.049200
      9 CAJ         0.6890    0.3730    0.5790 c3        1 6PP     -0.006900
     10 CAK         2.7860   -0.5360   -0.4290 c2        1 6PP     -0.106400
     11 CAL        -2.9860   -0.2990   -0.2030 ca        1 6PP      0.111100
     12 CAM        -1.6260   -0.5100    0.1160 ca        1 6PP      0.042100
     13 CAN        -0.7420    0.5750    0.2170 ca        1 6PP     -0.110300
     14 HAA         4.8940    1.4910    1.4050 hc        1 6PP      0.036033
     15 HAAA        4.8750    1.2520   -0.3930 hc        1 6PP      0.036033
     16 HAAB        3.4530    2.0080    0.4340 hc        1 6PP      0.036033
     17 HAB         4.3710   -0.5990   -1.8680 hc        1 6PP      0.043700
     18 HABA        3.8950   -2.2070   -1.1820 hc        1 6PP      0.043700
     19 HABB        2.8360   -1.3990   -2.4130 hc        1 6PP      0.043700
     20 HOAC       -3.4160   -2.1610   -0.1500 ho        1 6PP      0.437000
     21 HOAD       -0.3000   -1.8780    0.3160 ho        1 6PP      0.436000
     22 HAE         0.8860   -0.6200   -1.3750 ha        1 6PP      0.130000
     23 HAF        -2.9460    3.0930   -0.5020 ha        1 6PP      0.136000
     24 HAG        -4.5210    1.1500   -0.6700 ha        1 6PP      0.152000
     25 HAH        -0.5530    2.7240    0.0590 ha        1 6PP      0.135000
     26 HAI         4.4550   -0.8930    0.8660 hc        1 6PP      0.045200
     27 HAIA        3.0250   -0.1370    1.6720 hc        1 6PP      0.045200
     28 HAJ         0.7430   -0.2320    1.5290 hc        1 6PP      0.060200
     29 HAJA        1.1650    1.3680    0.8050 hc        1 6PP      0.060200
     30 OAC        -3.8910   -1.3290   -0.3030 oh        1 6PP     -0.496100
@<TRIPOS>BOND
     1    1    8 1   
     2    1   14 1   
     3    1   15 1   
     4    1   16 1   
     5    2   10 1   
     6    2   17 1   
     7    2   18 1   
     8    2   19 1   
     9    3   12 1   
    10    3   21 1   
    11    4    9 1   
    12    4   10 2   
    13    4   22 1   
    14    5    6 ar  
    15    5    7 ar  
    16    5   23 1   
    17    6   11 ar  
    18    6   24 1   
    19    7   13 ar  
    20    7   25 1   
    21    8   10 1   
    22    8   26 1   
    23    8   27 1   
    24    9   13 1   
    25    9   28 1   
    26    9   29 1   
    27   11   12 ar  
    28   11   30 1   
    29   12   13 ar  
    30   20   30 1   
@<TRIPOS>SUBSTRUCTURE
     1 6PP         1 TEMP              0 ****  ****    0 ROOT
