@<TRIPOS>MOLECULE
6PP
   30    29     1     0     0
SMALL
bcc


@<TRIPOS>ATOM
      1 CAA         0.5060   -0.3400   -0.6600 c3        1 6PP     -0.206000
      2 CAB         1.9680   -1.5050    2.0570 c3        1 6PP     -0.181000
      3 OAD         2.9060    4.5970    2.5670 oh        1 6PP     -0.260000
      4 CAE         1.6030    0.9270    2.2290 c2        1 6PP     -0.169000
      5 CAF        -1.0870    3.7600    4.0840 c1        1 6PP      0.176000
      6 CAG        -0.1120    5.8620    4.0770 c2        1 6PP     -0.252000
      7 CAH        -0.3070    2.9480    3.3810 c2        1 6PP     -0.450000
      8 CAI         1.8580   -0.1060   -0.0280 c3        1 6PP     -0.131000
      9 CAJ         1.4430    2.3030    1.6980 c3        1 6PP     -0.100000
     10 CAK         1.7940   -0.1570    1.4610 c2        1 6PP     -0.108000
     11 CAL         1.1430    5.3650    4.0340 c2        1 6PP      0.054000
     12 CAM         1.6230    4.3930    3.0480 c2        1 6PP     -0.063000
     13 CAN         0.9410    3.2630    2.7220 c2        1 6PP      0.019000
     14 HAA        -0.2170    0.4520   -0.3500 hc        1 6PP      0.074000
     15 HAAA        0.0950   -1.3320   -0.3520 hc        1 6PP      0.074000
     16 HAAB        0.5960   -0.3230   -1.7730 hc        1 6PP      0.074000
     17 HAB         3.0060   -1.8760    1.8640 hc        1 6PP      0.081000
     18 HABA        1.2480   -2.2240    1.5920 hc        1 6PP      0.081000
     19 HABB        1.7970   -1.4960    3.1610 hc        1 6PP      0.081000
     20 HOAC        2.8190    5.1940    4.9460 ho        1 6PP      0.231000
     21 HOAD        2.9380    5.5120    2.2480 ho        1 6PP      0.218000
     22 HAE         1.5770    0.8320    3.3280 ha        1 6PP      0.128000
     23 HAF        -0.6360    1.8900    3.2870 ha        1 6PP      0.192000
     24 HAG        -0.4450    6.5020    4.9030 ha        1 6PP      0.150000
     25 HAH        -0.8100    5.7600    3.2320 ha        1 6PP      0.150000
     26 HAI         2.2580    0.8900   -0.3600 hc        1 6PP      0.085000
     27 HAIA        2.5780   -0.8870   -0.3930 hc        1 6PP      0.085000
     28 HAJ         0.7150    2.2990    0.8370 hc        1 6PP      0.109000
     29 HAJA        2.4330    2.6600    1.2960 hc        1 6PP      0.109000
     30 OAC         2.0450    5.7770    4.9920 oh        1 6PP     -0.253000
@<TRIPOS>BOND
     1    1    8 1   
     2    1   14 1   
     3    1   15 1   
     4    1   16 1   
     5    2   10 1   
     6    2   17 1   
     7    2   18 1   
     8    2   19 1   
     9    3   12 1   
    10    3   21 1   
    11    4    9 1   
    12    4   10 1   
    13    4   22 1   
    14    5    7 1   
    15    6   11 1   
    16    6   24 1   
    17    6   25 1   
    18    7   13 1   
    19    7   23 1   
    20    8   10 1   
    21    8   26 1   
    22    8   27 1   
    23    9   13 1   
    24    9   28 1   
    25    9   29 1   
    26   11   12 1   
    27   11   30 1   
    28   12   13 1   
    29   20   30 1   
@<TRIPOS>SUBSTRUCTURE
     1 6PP         1 TEMP              0 ****  ****    0 ROOT
