@<TRIPOS>MOLECULE
6PP
   30    27     1     0     0
SMALL
bcc


@<TRIPOS>ATOM
      1 CAA        -0.0060   -1.8700   -3.6530 c3        1 6PP     -0.207000
      2 CAB        -0.4600   -3.0750   -0.5440 c3        1 6PP     -0.182000
      3 OAC        -0.7400    4.0620    2.8580 oh        1 6PP     -0.273000
      4 OAD        -1.8780    1.6650    1.8640 oh        1 6PP     -0.251000
      5 CAE        -0.5200   -0.6010   -0.6390 c1        1 6PP     -0.169000
      6 CAF         2.3030    2.1550    1.7010 c1        1 6PP     -0.128000
      7 CAG         1.5010    3.1490    2.2710 c1        1 6PP     -0.174000
      8 CAH         1.7230    1.0070    1.1930 c1        1 6PP     -0.128000
      9 CAI        -1.1710   -1.7540   -2.7620 c3        1 6PP     -0.125000
     10 CAJ        -0.0620   -0.5960    0.8420 c2        1 6PP     -0.092000
     11 CAK        -0.7020   -1.7510   -1.2750 c2        1 6PP     -0.114000
     12 CAL         0.1140    2.9810    2.3270 c2        1 6PP     -0.004000
     13 CAM        -0.4660    1.8290    1.8170 c2        1 6PP      0.064000
     14 CAN         0.3320    0.8400    1.2500 c1        1 6PP     -0.064000
     15 HAA         0.5970   -2.6300   -3.3270 hc        1 6PP      0.073333
     16 HAAA        0.4970   -1.0260   -3.6460 hc        1 6PP      0.073333
     17 HAAB       -0.3250   -2.0710   -4.6070 hc        1 6PP      0.073333
     18 HAB        -0.6220   -3.8240   -1.1600 hc        1 6PP      0.081000
     19 HABA       -1.0780   -3.1440    0.2300 hc        1 6PP      0.081000
     20 HABB        0.4680   -3.1060   -0.2270 hc        1 6PP      0.081000
     21 HOAC       -0.7070    4.7750    2.2980 ho        1 6PP      0.228000
     22 HOAD       -2.1420    1.6090    2.7130 ho        1 6PP      0.236000
     23 HAE        -0.6720    0.2410   -1.1040 ha        1 6PP      0.127000
     24 HAF         3.2750    2.2720    1.6610 ha        1 6PP      0.138000
     25 HAG         1.9340    4.0080    2.6520 ha        1 6PP      0.134000
     26 HAH         2.2900    0.3020    0.7880 ha        1 6PP      0.138000
     27 HAI        -1.6750   -0.8690   -2.9660 hc        1 6PP      0.083000
     28 HAIA       -1.7440   -2.4780   -2.9060 hc        1 6PP      0.083000
     29 HAJ        -0.7830   -0.9030    1.4010 ha        1 6PP      0.108500
     30 HAJA        0.7210   -1.1990    0.9530 ha        1 6PP      0.108500
@<TRIPOS>BOND
     1    1    9 1   
     2    1   15 1   
     3    1   16 1   
     4    1   17 1   
     5    2   11 1   
     6    2   18 1   
     7    2   19 1   
     8    2   20 1   
     9    3   12 1   
    10    3   21 1   
    11    4   13 1   
    12    4   22 1   
    13    5   11 1   
    14    5   23 1   
    15    6    8 1   
    16    6   24 1   
    17    7   12 1   
    18    7   25 1   
    19    8   26 1   
    20    9   11 1   
    21    9   27 1   
    22    9   28 1   
    23   10   14 1   
    24   10   29 1   
    25   10   30 1   
    26   12   13 1   
    27   13   14 1   
@<TRIPOS>SUBSTRUCTURE
     1 6PP         1 TEMP              0 ****  ****    0 ROOT
