@<TRIPOS>MOLECULE
6PR
   24    22     1     0     0
SMALL
bcc


@<TRIPOS>ATOM
      1 OAH        -4.3670   -0.5030    0.7940 o         1 6PR     -1.210667
      2 PAP        -3.4280    0.1990   -0.1290 p3        1 6PR      2.534000
      3 OAG        -3.5010   -0.2020   -1.5640 o         1 6PR     -1.210667
      4 OAE        -3.1250    1.6260    0.1650 o         1 6PR     -1.210667
      5 CAJ        -1.5800   -0.9780    0.4080 c2        1 6PR     -0.789000
      6 CAN        -0.2590   -0.5720    0.7860 c2        1 6PR      0.362000
      7 OAD         0.1030   -0.3170    1.9770 o         1 6PR     -0.541000
      8 N           0.7310   -0.4780   -0.2330 n         1 6PR     -0.384000
      9 CA          2.0070    0.1620   -0.0160 c3        1 6PR      0.019000
     10 CB          3.0730   -0.2650   -1.0360 c3        1 6PR     -0.211000
     11 CG          4.4620   -0.5550   -0.4580 c2        1 6PR      0.330000
     12 OD2         5.3450   -0.9740   -1.2770 o         1 6PR     -0.615500
     13 OD1         4.7230   -0.3920    0.7690 o         1 6PR     -0.615500
     14 C           1.8550    1.7090   -0.0280 c2        1 6PR      0.274000
     15 O           2.3200    2.4560   -0.9210 o         1 6PR     -0.456000
     16 NAA         1.1700    2.2750    1.0300 n         1 6PR     -0.411000
     17 HAJ1       -1.7000   -1.4880   -0.5570 ha        1 6PR      0.103000
     18 HAJ2       -2.1620   -1.4010    1.2390 ha        1 6PR      0.103000
     19 HN          0.3700   -0.3710   -1.1530 hn        1 6PR      0.187000
     20 HA          2.3770   -0.1300    1.0170 h1        1 6PR      0.157000
     21 HB1         2.7490   -1.2000   -1.5650 hc        1 6PR      0.079000
     22 HB2         3.1950    0.5320   -1.8130 hc        1 6PR      0.079000
     23 HAA1        0.7930    3.1810    0.8910 hn        1 6PR      0.214000
     24 HAA2        0.6330    1.6630    1.6110 hn        1 6PR      0.214000
@<TRIPOS>BOND
     1    1    2 1   
     2    2    3 1   
     3    2    4 1   
     4    5    6 1   
     5    5   17 1   
     6    5   18 1   
     7    6    7 1   
     8    6    8 1   
     9    8    9 1   
    10    8   19 1   
    11    9   10 1   
    12    9   14 1   
    13    9   20 1   
    14   10   11 1   
    15   10   21 1   
    16   10   22 1   
    17   11   12 1   
    18   11   13 1   
    19   14   15 1   
    20   14   16 1   
    21   16   23 1   
    22   16   24 1   
@<TRIPOS>SUBSTRUCTURE
     1 6PR         1 TEMP              0 ****  ****    0 ROOT
