@<TRIPOS>MOLECULE
6PR
   24    22     1     0     0
SMALL
bcc


@<TRIPOS>ATOM
      1 OAH         0.7680   -1.0530   -1.1240 o         1 6PR     -1.210667
      2 PAP         1.5730   -0.6680    0.0730 p3        1 6PR      2.534000
      3 OAG         0.8150   -0.0440    1.1960 o         1 6PR     -1.210667
      4 OAE         2.7220   -1.5450    0.4290 o         1 6PR     -1.210667
      5 CAJ         2.4460    1.2290   -0.7790 c2        1 6PR     -0.789000
      6 CAN         3.7900    1.7180   -0.8570 c2        1 6PR      0.362000
      7 OAD         4.5980    1.4540   -1.8010 o         1 6PR     -0.541000
      8 N           4.2490    2.5860    0.1730 n         1 6PR     -0.384000
      9 CA          5.6440    2.9250    0.3370 c3        1 6PR      0.019000
     10 CB          5.8560    4.2070    1.1540 c3        1 6PR     -0.211000
     11 CG          6.9150    5.1710    0.6070 c2        1 6PR      0.330000
     12 OD2         7.0630    6.2720    1.2330 o         1 6PR     -0.615500
     13 OD1         7.6060    4.8950   -0.4160 o         1 6PR     -0.615500
     14 C           6.4230    1.7470    0.9880 c2        1 6PR      0.274000
     15 O           6.9100    1.7790    2.1430 o         1 6PR     -0.456000
     16 NAA         6.5860    0.6100    0.2220 n         1 6PR     -0.411000
     17 HAJ1        2.0380    0.9120   -1.7500 ha        1 6PR      0.103000
     18 HAJ2        1.7450    1.7700   -0.1290 ha        1 6PR      0.103000
     19 HN          3.7400    2.5240    1.0260 hn        1 6PR      0.187000
     20 HA          6.0890    3.0900   -0.6940 h1        1 6PR      0.157000
     21 HB1         6.1550    3.9440    2.2010 hc        1 6PR      0.079000
     22 HB2         4.9000    4.7900    1.2160 hc        1 6PR      0.079000
     23 HAA1        6.7850   -0.2340    0.7020 hn        1 6PR      0.214000
     24 HAA2        6.0210    0.5230   -0.5990 hn        1 6PR      0.214000
@<TRIPOS>BOND
     1    1    2 1   
     2    2    3 1   
     3    2    4 1   
     4    5    6 1   
     5    5   17 1   
     6    5   18 1   
     7    6    7 1   
     8    6    8 1   
     9    8    9 1   
    10    8   19 1   
    11    9   10 1   
    12    9   14 1   
    13    9   20 1   
    14   10   11 1   
    15   10   21 1   
    16   10   22 1   
    17   11   12 1   
    18   11   13 1   
    19   14   15 1   
    20   14   16 1   
    21   16   23 1   
    22   16   24 1   
@<TRIPOS>SUBSTRUCTURE
     1 6PR         1 TEMP              0 ****  ****    0 ROOT
