@<TRIPOS>MOLECULE
6PR
   24    23     1     0     0
SMALL
bcc


@<TRIPOS>ATOM
      1 OAH        -1.3400   -4.1480   -0.0470 o         1 6PR     -0.893167
      2 PAP         0.1630   -4.0460    0.0570 p5        1 6PR      1.172700
      3 OAG         0.5630   -3.9680    1.5100 o         1 6PR     -0.893167
      4 OAE         0.7950   -5.2640   -0.5740 o         1 6PR     -0.893167
      5 CAJ         0.7290   -2.5530   -0.8080 c3        1 6PR     -0.355600
      6 CAN         0.1990   -1.3270   -0.0980 c         1 6PR      0.729100
      7 OAD        -0.4200   -1.4470    0.9410 o         1 6PR     -0.770100
      8 N           0.4320   -0.0370   -0.6400 n         1 6PR     -0.583900
      9 CA         -0.0330    1.1160    0.0460 c3        1 6PR      0.056700
     10 CB          1.0610    2.1600    0.0760 c3        1 6PR     -0.187400
     11 CG          0.9410    2.9800    1.3420 c         1 6PR      0.900600
     12 OD2         1.2890    2.4880    2.4470 o         1 6PR     -0.882800
     13 OD1         0.4910    4.1550    1.2900 o         1 6PR     -0.882800
     14 C          -1.2430    1.6740   -0.6680 c         1 6PR      0.633100
     15 O          -1.1940    1.8980   -1.8610 o         1 6PR     -0.676100
     16 NAA        -2.4310    1.9500    0.0570 n         1 6PR     -0.648000
     17 HAJ1        1.7070   -2.5300   -0.8130 hc        1 6PR      0.064200
     18 HAJ2        0.3980   -2.5650   -1.7290 hc        1 6PR      0.064200
     19 HN          0.8910    0.0520   -1.4230 hn        1 6PR      0.289500
     20 HA         -0.2770    0.8740    0.9610 h1        1 6PR      0.107700
     21 HB1         0.9740    2.7460   -0.7020 hc        1 6PR      0.037700
     22 HB2         1.9340    1.7190    0.0560 hc        1 6PR      0.037700
     23 HAA1       -2.4700    1.7730    0.9530 hn        1 6PR      0.285500
     24 HAA2       -3.1570    2.3010   -0.3720 hn        1 6PR      0.285500
@<TRIPOS>BOND
     1    1    2 1   
     2    2    3 1   
     3    2    4 1   
     4    2    5 1   
     5    5    6 1   
     6    5   17 1   
     7    5   18 1   
     8    6    7 2   
     9    6    8 1   
    10    8    9 1   
    11    8   19 1   
    12    9   10 1   
    13    9   14 1   
    14    9   20 1   
    15   10   11 1   
    16   10   21 1   
    17   10   22 1   
    18   11   12 1   
    19   11   13 1   
    20   14   15 2   
    21   14   16 1   
    22   16   23 1   
    23   16   24 1   
@<TRIPOS>SUBSTRUCTURE
     1 6PR         1 TEMP              0 ****  ****    0 ROOT
