@<TRIPOS>MOLECULE
6QM
   42    44     1     0     0
SMALL
bcc


@<TRIPOS>ATOM
      1 N1         -2.9230    2.9490   -0.4260 nc        1 6QM     -0.136100
      2 N2         -3.0690    1.7270   -0.2780 nd        1 6QM     -0.268000
      3 C3         -1.8430    1.0240   -0.1180 cd        1 6QM      0.297800
      4 C4         -0.7320    1.8790   -0.1550 cc        1 6QM     -0.054400
      5 C6         -1.8350   -0.4280   -0.0030 ca        1 6QM     -0.231500
      6 C7          0.6590    1.5370   -0.0070 ca        1 6QM     -0.077000
      7 C16         1.6310    2.1760   -0.7990 ca        1 6QM     -0.066000
      8 C15         2.9750    1.8670   -0.6600 ca        1 6QM     -0.186000
      9 C14         3.3690    0.9030    0.2920 ca        1 6QM      0.150100
     10 C13         2.4130    0.2620    1.0890 ca        1 6QM     -0.186000
     11 C12         1.0670    0.5810    0.9330 ca        1 6QM     -0.066000
     12 C21        -1.9740   -1.0690    1.2450 ca        1 6QM      0.176100
     13 C22        -1.9670   -2.4670    1.3400 ca        1 6QM     -0.196000
     14 C23        -1.8260   -3.2230    0.1690 ca        1 6QM      0.172100
     15 C24        -1.7010   -2.6060   -1.0930 ca        1 6QM     -0.194300
     16 C25        -1.7120   -1.2120   -1.1540 ca        1 6QM     -0.025000
     17 O29        -1.8240   -4.5850    0.3530 oh        1 6QM     -0.495100
     18 O30        -2.0890   -0.3910    2.4340 oh        1 6QM     -0.494100
     19 O33         4.7250    0.6730    0.3500 os        1 6QM     -0.327900
     20 S1         -1.3140    3.4550   -0.3930 ss        1 6QM      0.106200
     21 C34         5.1600   -0.3050    1.3060 c3        1 6QM      0.127400
     22 CAA         6.6630   -0.3740    1.1730 c3        1 6QM     -0.101100
     23 CAL        -1.5750   -3.4010   -2.3460 c3        1 6QM     -0.033100
     24 CAB        -0.1960   -3.9910   -2.5190 c3        1 6QM     -0.098100
     25 H25        -1.6200   -0.7130   -2.1330 ha        1 6QM      0.142000
     26 H16         1.3210    2.9290   -1.5410 ha        1 6QM      0.144500
     27 H12         0.3110    0.0740    1.5570 ha        1 6QM      0.144500
     28 H15         3.7400    2.3590   -1.2770 ha        1 6QM      0.150000
     29 H13         2.7060   -0.4900    1.8350 ha        1 6QM      0.150000
     30 H22        -2.0740   -2.9610    2.3160 ha        1 6QM      0.170000
     31 H30        -2.2440    0.5450    2.2360 ho        1 6QM      0.430000
     32 H29        -1.7400   -5.0130   -0.5120 ho        1 6QM      0.426000
     33 HAL1       -2.3430   -4.2230   -2.3500 hc        1 6QM      0.048700
     34 HAL2       -1.8070   -2.7460   -3.2290 hc        1 6QM      0.048700
     35 H341        4.8560    0.0220    2.3350 h1        1 6QM      0.041700
     36 H342        4.6830   -1.2930    1.0680 h1        1 6QM      0.041700
     37 HAA1        6.9500   -0.6770    0.1380 hc        1 6QM      0.051033
     38 HAA2        7.1210    0.6210    1.3870 hc        1 6QM      0.051033
     39 HAA3        7.0590   -1.1250    1.8980 hc        1 6QM      0.051033
     40 HAB1        0.5690   -3.1810   -2.6000 hc        1 6QM      0.038700
     41 HAB2        0.0750   -4.6390   -1.6500 hc        1 6QM      0.038700
     42 HAB3       -0.1570   -4.6090   -3.4490 hc        1 6QM      0.038700
@<TRIPOS>BOND
     1    1    2 2   
     2    1   20 1   
     3    2    3 1   
     4    3    4 2   
     5    3    5 1   
     6    4    6 1   
     7    4   20 1   
     8    5   12 ar  
     9    5   16 ar  
    10    6    7 ar  
    11    6   11 ar  
    12    7    8 ar  
    13    7   26 1   
    14    8    9 ar  
    15    8   28 1   
    16    9   10 ar  
    17    9   19 1   
    18   10   11 ar  
    19   10   29 1   
    20   11   27 1   
    21   12   13 ar  
    22   12   18 1   
    23   13   14 ar  
    24   13   30 1   
    25   14   15 ar  
    26   14   17 1   
    27   15   16 ar  
    28   15   23 1   
    29   16   25 1   
    30   17   32 1   
    31   18   31 1   
    32   19   21 1   
    33   21   22 1   
    34   21   35 1   
    35   21   36 1   
    36   22   37 1   
    37   22   38 1   
    38   22   39 1   
    39   23   24 1   
    40   23   33 1   
    41   23   34 1   
    42   24   40 1   
    43   24   41 1   
    44   24   42 1   
@<TRIPOS>SUBSTRUCTURE
     1 6QM         1 TEMP              0 ****  ****    0 ROOT
