@<TRIPOS>MOLECULE
6QM
   42    44     1     0     0
SMALL
bcc


@<TRIPOS>ATOM
      1 N1          0.0740   -0.1710    0.1720 nc        1 6QM     -0.135100
      2 N2          1.3040   -0.1360    0.0240 nd        1 6QM     -0.260000
      3 C3          2.0200   -0.0670    1.2510 cd        1 6QM      0.339800
      4 C4          1.1700   -0.0600    2.3650 cc        1 6QM     -0.067400
      5 C6          3.4740   -0.0020    1.2430 ca        1 6QM     -0.182500
      6 C7          1.5270   -0.0290    3.7600 ca        1 6QM     -0.067000
      7 C16         0.7670    0.7310    4.6680 ca        1 6QM     -0.069000
      8 C15         1.0890    0.7560    6.0160 ca        1 6QM     -0.186500
      9 C14         2.1890    0.0050    6.4790 ca        1 6QM      0.145100
     10 C13         2.9520   -0.7590    5.5880 ca        1 6QM     -0.186500
     11 C12         2.6170   -0.7690    4.2360 ca        1 6QM     -0.069000
     12 C21         4.2440   -1.0820    0.7650 ca        1 6QM      0.186100
     13 C22         5.6420   -1.0000    0.7170 ca        1 6QM     -0.308000
     14 C23         6.2710    0.1730    1.1530 ca        1 6QM      0.174100
     15 C24         5.5250    1.2660    1.6400 ca        1 6QM     -0.136300
     16 C25         4.1340    1.1550    1.6700 ca        1 6QM     -0.040000
     17 O29         7.6390    0.3060    1.1250 oh        1 6QM     -0.492100
     18 O30         3.5730   -2.2160    0.3790 oh        1 6QM     -0.481100
     19 O33         2.4200    0.0990    7.8330 os        1 6QM     -0.327900
     20 S1         -0.4250   -0.1350    1.7840 ss        1 6QM      0.093200
     21 C34         3.5340   -0.6530    8.3370 c3        1 6QM      0.127400
     22 CAA         3.5760   -0.3860    9.8240 c3        1 6QM     -0.100100
     23 CAL         6.1880    2.5180    2.0940 c3        1 6QM     -0.027100
     24 CAB         6.1020    2.6990    3.5910 c3        1 6QM     -0.089100
     25 H25         3.5390    2.0070    2.0390 ha        1 6QM      0.148000
     26 H16        -0.0930    1.3150    4.3030 ha        1 6QM      0.144000
     27 H12         3.2170   -1.3650    3.5270 ha        1 6QM      0.144000
     28 H15         0.5020    1.3500    6.7310 ha        1 6QM      0.147500
     29 H13         3.8110   -1.3500    5.9350 ha        1 6QM      0.147500
     30 H22         6.2340   -1.8420    0.3360 ha        1 6QM      0.137000
     31 H30         4.2120   -2.8180   -0.0320 ho        1 6QM      0.421000
     32 H29         8.0110   -0.4980    0.7340 ho        1 6QM      0.421000
     33 HAL1        7.2670    2.5120    1.7810 hc        1 6QM      0.055200
     34 HAL2        5.6990    3.3930    1.5850 hc        1 6QM      0.055200
     35 H341        3.3730   -1.7420    8.1240 h1        1 6QM      0.040200
     36 H342        4.4740   -0.3050    7.8340 h1        1 6QM      0.040200
     37 HAA1        3.7120    0.7050   10.0210 hc        1 6QM      0.050700
     38 HAA2        2.6250   -0.7140   10.3070 hc        1 6QM      0.050700
     39 HAA3        4.4290   -0.9490   10.2710 hc        1 6QM      0.050700
     40 HAB1        5.0370    2.7130    3.9260 hc        1 6QM      0.035033
     41 HAB2        6.6260    1.8670    4.1190 hc        1 6QM      0.035033
     42 HAB3        6.5810    3.6640    3.8860 hc        1 6QM      0.035033
@<TRIPOS>BOND
     1    1    2 2   
     2    1   20 1   
     3    2    3 1   
     4    3    4 2   
     5    3    5 1   
     6    4    6 1   
     7    4   20 1   
     8    5   12 ar  
     9    5   16 ar  
    10    6    7 ar  
    11    6   11 ar  
    12    7    8 ar  
    13    7   26 1   
    14    8    9 ar  
    15    8   28 1   
    16    9   10 ar  
    17    9   19 1   
    18   10   11 ar  
    19   10   29 1   
    20   11   27 1   
    21   12   13 ar  
    22   12   18 1   
    23   13   14 ar  
    24   13   30 1   
    25   14   15 ar  
    26   14   17 1   
    27   15   16 ar  
    28   15   23 1   
    29   16   25 1   
    30   17   32 1   
    31   18   31 1   
    32   19   21 1   
    33   21   22 1   
    34   21   35 1   
    35   21   36 1   
    36   22   37 1   
    37   22   38 1   
    38   22   39 1   
    39   23   24 1   
    40   23   33 1   
    41   23   34 1   
    42   24   40 1   
    43   24   41 1   
    44   24   42 1   
@<TRIPOS>SUBSTRUCTURE
     1 6QM         1 TEMP              0 ****  ****    0 ROOT
