@<TRIPOS>MOLECULE
6QM
   42    38     1     0     0
SMALL
bcc


@<TRIPOS>ATOM
      1 N1         -2.2980    1.1600   -2.9780 nc        1 6QM     -0.136100
      2 N2         -0.8580    1.0590   -3.0470 nd        1 6QM     -0.266000
      3 C3         -0.3200    0.8300   -1.6290 cd        1 6QM      0.339300
      4 C4         -1.4140    0.7970   -0.7430 cc        1 6QM     -0.065400
      5 C6          1.0140    0.6700   -1.2810 ch        1 6QM     -0.179000
      6 C7         -1.3420    0.6880    0.6390 cg        1 6QM     -0.062000
      7 C16        -1.0510   -0.5350    1.2220 c1        1 6QM     -0.085500
      8 C15        -1.0840   -0.6720    2.6020 c1        1 6QM     -0.085500
      9 C14        -1.4080    0.4160    3.3980 c1        1 6QM      0.127600
     10 C13        -1.6990    1.6390    2.8150 c1        1 6QM     -0.105500
     11 C12        -1.6660    1.7760    1.4360 c1        1 6QM     -0.005500
     12 C21         1.7840    1.7480   -1.6890 c1        1 6QM      0.160600
     13 C22         2.5810    1.6430   -2.8180 c1        1 6QM     -0.193500
     14 C23         2.6060    0.4600   -3.5400 c1        1 6QM      0.163600
     15 C24         1.8360   -0.6190   -3.1320 c1        1 6QM     -0.160100
     16 C25         1.0400   -0.5130   -2.0030 c1        1 6QM      0.028500
     17 O29         3.4160    0.3520   -4.6850 oh        1 6QM     -0.480600
     18 O30         1.7560    2.9500   -0.9580 oh        1 6QM     -0.473600
     19 O33        -1.5350    0.2530    4.7890 os        1 6QM     -0.311400
     20 S1         -2.6960    1.0050   -1.5690 ss        1 6QM      0.094200
     21 C34        -2.6000   -0.5870    5.1710 c3        1 6QM      0.127400
     22 CAA        -2.7150   -0.6000    6.6800 c3        1 6QM     -0.100100
     23 CAL         1.8250   -1.8930   -3.9490 c3        1 6QM     -0.067300
     24 CAB         2.9050   -2.8250   -3.4440 c3        1 6QM     -0.098100
     25 H25         0.4970   -1.2720   -1.7150 ha        1 6QM      0.086500
     26 H16        -0.8230   -1.3010    0.6610 ha        1 6QM      0.081000
     27 H12        -1.8720    2.6380    1.0250 ha        1 6QM      0.097500
     28 H15        -0.8790   -1.5340    3.0120 ha        1 6QM      0.081000
     29 H13        -1.9280    2.4050    3.3760 ha        1 6QM      0.095500
     30 H22         3.1230    2.4020   -3.1060 ha        1 6QM      0.097500
     31 H30         2.5300    3.3770   -1.0590 ho        1 6QM      0.425000
     32 H29         3.0030    0.7290   -5.3770 ho        1 6QM      0.428000
     33 HAL1        1.9930   -1.6790   -4.8890 hc        1 6QM      0.048200
     34 HAL2        0.9530   -2.3270   -3.8640 hc        1 6QM      0.048200
     35 H341       -2.4300   -1.4960    4.8490 h1        1 6QM      0.039200
     36 H342       -3.4350   -0.2540    4.7830 h1        1 6QM      0.039200
     37 HAA1       -3.1940    0.2010    6.9780 hc        1 6QM      0.050367
     38 HAA2       -1.8180   -0.6110    7.0760 hc        1 6QM      0.050367
     39 HAA3       -3.2080   -1.3990    6.9630 hc        1 6QM      0.050367
     40 HAB1        3.0520   -2.6670   -2.4880 hc        1 6QM      0.038700
     41 HAB2        3.7370   -2.6580   -3.9340 hc        1 6QM      0.038700
     42 HAB3        2.6250   -3.7540   -3.5820 hc        1 6QM      0.038700
@<TRIPOS>BOND
     1    1    2 2   
     2    1   20 1   
     3    2    3 1   
     4    3    4 2   
     5    3    5 1   
     6    4    6 1   
     7    4   20 1   
     8    5   12 3   
     9    6   11 3   
    10    7    8 3   
    11    7   26 1   
    12    8   28 1   
    13    9   10 3   
    14    9   19 1   
    15   10   29 1   
    16   11   27 1   
    17   12   18 1   
    18   13   14 3   
    19   13   30 1   
    20   14   17 1   
    21   15   16 3   
    22   15   23 1   
    23   16   25 1   
    24   17   32 1   
    25   18   31 1   
    26   19   21 1   
    27   21   22 1   
    28   21   35 1   
    29   21   36 1   
    30   22   37 1   
    31   22   38 1   
    32   22   39 1   
    33   23   24 1   
    34   23   33 1   
    35   23   34 1   
    36   24   40 1   
    37   24   41 1   
    38   24   42 1   
@<TRIPOS>SUBSTRUCTURE
     1 6QM         1 TEMP              0 ****  ****    0 ROOT
