@<TRIPOS>MOLECULE
6QM
   42    44     1     0     0
SMALL
bcc


@<TRIPOS>ATOM
      1 N1          0.0690   -0.1490    0.1740 nc        1 6QM     -0.135100
      2 N2          1.2990   -0.1210    0.0260 nd        1 6QM     -0.260000
      3 C3          2.0170   -0.0560    1.2530 cd        1 6QM      0.339800
      4 C4          1.1670   -0.0450    2.3670 cc        1 6QM     -0.067400
      5 C6          3.4710    0.0000    1.2440 ca        1 6QM     -0.182500
      6 C7          1.5250   -0.0160    3.7610 ca        1 6QM     -0.067000
      7 C16         0.7700    0.7480    4.6700 ca        1 6QM     -0.069000
      8 C15         1.0930    0.7710    6.0180 ca        1 6QM     -0.186500
      9 C14         2.1890    0.0130    6.4800 ca        1 6QM      0.145100
     10 C13         2.9480   -0.7540    5.5880 ca        1 6QM     -0.186500
     11 C12         2.6120   -0.7620    4.2370 ca        1 6QM     -0.069000
     12 C21         4.2340   -1.0860    0.7660 ca        1 6QM      0.186100
     13 C22         5.6320   -1.0120    0.7180 ca        1 6QM     -0.308000
     14 C23         6.2690    0.1580    1.1520 ca        1 6QM      0.174100
     15 C24         5.5300    1.2560    1.6380 ca        1 6QM     -0.136300
     16 C25         4.1380    1.1540    1.6690 ca        1 6QM     -0.040000
     17 O29         7.6380    0.2830    1.1230 oh        1 6QM     -0.492100
     18 O30         3.5560   -2.2160    0.3830 oh        1 6QM     -0.481100
     19 O33         2.4220    0.1050    7.8350 os        1 6QM     -0.327900
     20 S1         -0.4280   -0.1100    1.7870 ss        1 6QM      0.093200
     21 C34         3.5310   -0.6530    8.3370 c3        1 6QM      0.127400
     22 CAA         3.5750   -0.3880    9.8240 c3        1 6QM     -0.100100
     23 CAL         6.2010    2.5050    2.0890 c3        1 6QM     -0.027100
     24 CAB         6.1160    2.6890    3.5860 c3        1 6QM     -0.089100
     25 H25         3.5480    2.0100    2.0370 ha        1 6QM      0.148000
     26 H16        -0.0860    1.3370    4.3070 ha        1 6QM      0.144000
     27 H12         3.2080   -1.3600    3.5280 ha        1 6QM      0.144000
     28 H15         0.5100    1.3680    6.7340 ha        1 6QM      0.147500
     29 H13         3.8040   -1.3500    5.9350 ha        1 6QM      0.147500
     30 H22         6.2200   -1.8580    0.3380 ha        1 6QM      0.137000
     31 H30         4.1910   -2.8220   -0.0280 ho        1 6QM      0.421000
     32 H29         8.0050   -0.5240    0.7330 ho        1 6QM      0.421000
     33 HAL1        7.2800    2.4910    1.7760 hc        1 6QM      0.055200
     34 HAL2        5.7170    3.3820    1.5780 hc        1 6QM      0.055200
     35 H341        3.3640   -1.7420    8.1230 h1        1 6QM      0.040200
     36 H342        4.4740   -0.3110    7.8350 h1        1 6QM      0.040200
     37 HAA1        3.7180    0.7010   10.0230 hc        1 6QM      0.050700
     38 HAA2        2.6220   -0.7110   10.3070 hc        1 6QM      0.050700
     39 HAA3        4.4250   -0.9570   10.2710 hc        1 6QM      0.050700
     40 HAB1        5.0500    2.7100    3.9210 hc        1 6QM      0.035033
     41 HAB2        6.6350    1.8550    4.1160 hc        1 6QM      0.035033
     42 HAB3        6.6000    3.6510    3.8800 hc        1 6QM      0.035033
@<TRIPOS>BOND
     1    1    2 2   
     2    1   20 1   
     3    2    3 1   
     4    3    4 2   
     5    3    5 1   
     6    4    6 1   
     7    4   20 1   
     8    5   12 ar  
     9    5   16 ar  
    10    6    7 ar  
    11    6   11 ar  
    12    7    8 ar  
    13    7   26 1   
    14    8    9 ar  
    15    8   28 1   
    16    9   10 ar  
    17    9   19 1   
    18   10   11 ar  
    19   10   29 1   
    20   11   27 1   
    21   12   13 ar  
    22   12   18 1   
    23   13   14 ar  
    24   13   30 1   
    25   14   15 ar  
    26   14   17 1   
    27   15   16 ar  
    28   15   23 1   
    29   16   25 1   
    30   17   32 1   
    31   18   31 1   
    32   19   21 1   
    33   21   22 1   
    34   21   35 1   
    35   21   36 1   
    36   22   37 1   
    37   22   38 1   
    38   22   39 1   
    39   23   24 1   
    40   23   33 1   
    41   23   34 1   
    42   24   40 1   
    43   24   41 1   
    44   24   42 1   
@<TRIPOS>SUBSTRUCTURE
     1 6QM         1 TEMP              0 ****  ****    0 ROOT
