@<TRIPOS>MOLECULE
6RG
   46    38     1     0     0
SMALL
bcc


@<TRIPOS>ATOM
      1 N1          0.9880    0.5980   -0.6300 n1        1 6RG     -0.587800
      2 C2          2.3570    0.6950   -0.6650 cg        1 6RG      0.439800
      3 N3          3.0720    0.7330    0.5010 n1        1 6RG     -0.529800
      4 C4          2.4230    0.6760    1.7090 cg        1 6RG     -0.056000
      5 C5          1.0670    0.5800    1.7460 cg        1 6RG     -0.056000
      6 C6          0.3420    0.5410    0.5570 c1        1 6RG      0.569600
      7 NAA         3.1650    0.6920    5.4250 n3        1 6RG     -0.801400
      8 CAB        -6.3200   -2.6470   -1.0880 c1        1 6RG     -0.069625
      9 CAC         4.9720    0.6850   -4.0810 c1        1 6RG     -0.069625
     10 CAD        -5.7700   -2.5060    0.1800 c1        1 6RG     -0.069625
     11 CAE        -5.8570   -1.8680   -2.1330 c1        1 6RG     -0.069625
     12 CAF         4.6190    1.8740   -3.4470 c1        1 6RG     -0.069625
     13 CAG         4.4820   -0.5240   -3.6080 c1        1 6RG     -0.069625
     14 CAH        -4.7530   -1.5840    0.3980 c1        1 6RG     -0.069625
     15 CAI        -4.8380   -0.9430   -1.9140 c1        1 6RG     -0.066500
     16 CAJ         3.7740    1.8500   -2.3360 c1        1 6RG     -0.031500
     17 CAK         3.6360   -0.5490   -2.4970 c1        1 6RG     -0.069625
     18 CAL         1.1270    0.5610    4.1880 c1        1 6RG     -0.136500
     19 CAM         0.3940    0.5210    3.0000 c1        1 6RG     -0.071500
     20 CAN         3.1660    0.7170    2.9160 c1        1 6RG     -0.071500
     21 CAO        -1.9150   -0.1580   -0.3000 c3        1 6RG      0.205800
     22 CAP        -3.3470    0.3530   -0.3500 c3        1 6RG     -0.087300
     23 NAS        -1.0890    0.7900    0.4080 n3        1 6RG     -0.707800
     24 CAT         2.5070    0.6580    4.1450 c1        1 6RG      0.148800
     25 CAU        -4.2880   -0.8040   -0.6490 c1        1 6RG     -0.057100
     26 CAV         3.2840    0.6390   -1.8640 cg        1 6RG     -0.028000
     27 HNAA        4.0560    0.6730    5.4700 hn        1 6RG      0.398800
     28 HNAB        2.6640    0.7280    6.2030 hn        1 6RG      0.398800
     29 HAB        -7.0480   -3.3060   -1.2440 ha        1 6RG      0.076375
     30 HAC         5.5780    0.7030   -4.8760 ha        1 6RG      0.076375
     31 HAD        -6.0880   -3.0410    0.8980 ha        1 6RG      0.076375
     32 HAE        -6.2510   -1.9680   -3.0390 ha        1 6RG      0.076375
     33 HAF         4.9600    2.7150   -3.7760 ha        1 6RG      0.076375
     34 HAG         4.7310   -1.3640   -4.0550 ha        1 6RG      0.076375
     35 HAH        -4.3640   -1.4850    1.2930 ha        1 6RG      0.076375
     36 HAI        -4.5100   -0.3930   -2.6520 ha        1 6RG      0.076500
     37 HAJ         3.5220    2.7030   -1.8800 ha        1 6RG      0.090500
     38 HAK         3.2900   -1.4050   -2.1620 ha        1 6RG      0.076375
     39 HAL         0.6580    0.6230    5.0520 ha        1 6RG      0.077500
     40 HAM        -0.5750    0.4530    3.0290 ha        1 6RG      0.083000
     41 HAN         4.1270    0.7850    2.8880 ha        1 6RG      0.083000
     42 HAO        -1.8930   -1.0180    0.1630 h1        1 6RG      0.057700
     43 HAOA       -1.5740   -0.2700   -1.2180 h1        1 6RG      0.057700
     44 HAP        -3.5850    0.7550    0.5240 hc        1 6RG      0.062200
     45 HAPA       -3.4270    1.0320   -1.0560 hc        1 6RG      0.062200
     46 HNAS       -1.4730    1.5010    0.8270 hn        1 6RG      0.422800
@<TRIPOS>BOND
     1    1    6 3   
     2    2    3 3   
     3    2   26 1   
     4    4    5 1   
     5    4   20 3   
     6    5   19 3   
     7    6   23 1   
     8    7   24 1   
     9    7   27 1   
    10    7   28 1   
    11    8   11 3   
    12    8   29 1   
    13    9   12 3   
    14    9   30 1   
    15   10   14 3   
    16   10   31 1   
    17   11   32 1   
    18   12   33 1   
    19   13   17 3   
    20   13   34 1   
    21   14   35 1   
    22   15   25 3   
    23   15   36 1   
    24   16   26 3   
    25   16   37 1   
    26   17   38 1   
    27   18   24 3   
    28   18   39 1   
    29   19   40 1   
    30   20   41 1   
    31   21   22 1   
    32   21   23 1   
    33   21   42 1   
    34   21   43 1   
    35   22   25 1   
    36   22   44 1   
    37   22   45 1   
    38   23   46 1   
@<TRIPOS>SUBSTRUCTURE
     1 6RG         1 TEMP              0 ****  ****    0 ROOT
