@<TRIPOS>MOLECULE
6RG
   46    45     1     0     0
SMALL
bcc


@<TRIPOS>ATOM
      1 N1          0.1640    0.2410    0.3940 n2        1 6RG     -0.300000
      2 C2          1.4520    0.6590    0.4470 c2        1 6RG      0.160000
      3 N3          2.2110    0.8920    1.5780 n2        1 6RG     -0.269000
      4 C4          1.5990    0.6850    2.7650 c2        1 6RG      0.184000
      5 C5          0.2310    0.2400    2.8630 c2        1 6RG     -0.326000
      6 C6         -0.4760    0.0220    1.6070 c2        1 6RG      0.266000
      7 CAB        -6.6700    1.0350   -4.2420 c2        1 6RG     -0.189000
      8 CAC         3.5300    1.5500   -3.3950 c1        1 6RG      0.195000
      9 CAD        -6.5590   -0.2700   -4.0060 c2        1 6RG     -0.177000
     10 CAE        -3.7670   -1.0860   -0.4860 c1        1 6RG      0.124000
     11 CAF         2.2470    1.2810   -3.2530 c2        1 6RG     -0.444000
     12 CAG         5.8690    1.5370   -1.0590 c2        1 6RG     -0.567000
     13 CAH        -6.6300   -0.8650   -2.6450 c3        1 6RG     -0.151000
     14 CAI        -4.5880   -1.4050   -1.3940 c1        1 6RG     -0.555000
     15 CAJ         1.5330    1.0290   -2.0190 c2        1 6RG     -0.036000
     16 CAK         7.0520    0.9960   -0.9950 c1        1 6RG      0.162000
     17 CAL         0.2990    0.2470    5.3260 c3        1 6RG     -0.159000
     18 CAM        -0.4040    0.0200    4.0710 c1        1 6RG     -0.164000
     19 CAN         2.3230    0.9020    3.9970 c2        1 6RG     -0.292000
     20 CAO        -6.1840   -3.5290   -3.9070 c2        1 6RG     -0.132000
     21 CAP        -5.2610   -2.9610   -3.1230 c2        1 6RG     -0.197000
     22 NAS        -1.7600   -0.3960    1.6310 nh        1 6RG     -0.316000
     23 CAT         1.7330    0.7100    5.2240 c2        1 6RG      0.087000
     24 CAU        -5.4510   -1.7380   -2.3570 c2        1 6RG      0.289000
     25 CAV         2.1570    0.8940   -0.8370 c2        1 6RG     -0.133000
     26 HNAA        2.0380    0.5930    7.2350 hn        1 6RG      0.209500
     27 HNAB        3.3800    1.1210    6.3600 hn        1 6RG      0.209500
     28 HAC         5.2690    1.8150   -0.1760 ha        1 6RG      0.203000
     29 HAD        -6.4180   -0.9940   -4.8260 ha        1 6RG      0.124000
     30 HAE        -6.8010    1.7780   -3.4430 ha        1 6RG      0.121000
     31 HAF         1.6260    1.2460   -4.1750 ha        1 6RG      0.194000
     32 HAG         5.3620    1.7660   -2.0170 ha        1 6RG      0.203000
     33 HAH        -6.7000   -0.0560   -1.8660 hc        1 6RG      0.118000
     34 HAI        -7.5670   -1.4860   -2.5650 hc        1 6RG      0.118000
     35 HAJ         0.4350    0.9590   -2.1150 ha        1 6RG      0.155000
     36 HAK         3.2570    0.9630   -0.7580 ha        1 6RG      0.148000
     37 HAL        -0.2990    1.0130    5.9020 hc        1 6RG      0.139500
     38 HAM         0.2550   -0.7150    5.9120 hc        1 6RG      0.139500
     39 HAN         3.3700    1.2360    3.9160 ha        1 6RG      0.145000
     40 HAO        -2.2960   -0.5700    0.7980 hn        1 6RG      0.271500
     41 HAOA       -7.1920   -3.1160   -4.0530 ha        1 6RG      0.126000
     42 HAP        -5.9800   -4.4630   -4.4500 ha        1 6RG      0.126000
     43 HAPA       -4.2660   -3.4300   -3.0010 ha        1 6RG      0.156000
     44 HNAS       -2.1710   -0.5400    2.5280 hn        1 6RG      0.271500
     45 NAA         2.3990    0.9840    6.4000 n3        1 6RG     -0.361000
     46 HAB        -6.6330    1.4480   -5.2590 ha        1 6RG      0.121000
@<TRIPOS>BOND
     1    1    2 1   
     2    1    6 1   
     3    2    3 1   
     4    2   25 1   
     5    3    4 1   
     6    4    5 1   
     7    4   19 1   
     8    5    6 1   
     9    5   18 1   
    10    6   22 1   
    11    7    9 1   
    12    7   30 1   
    13    7   46 1   
    14    8   11 1   
    15    9   13 1   
    16    9   29 1   
    17   10   14 1   
    18   11   15 1   
    19   11   31 1   
    20   12   16 1   
    21   12   28 1   
    22   12   32 1   
    23   13   24 1   
    24   13   33 1   
    25   13   34 1   
    26   14   24 1   
    27   15   25 1   
    28   15   35 1   
    29   17   18 1   
    30   17   23 1   
    31   17   37 1   
    32   17   38 1   
    33   19   23 1   
    34   19   39 1   
    35   20   21 1   
    36   20   41 1   
    37   20   42 1   
    38   21   24 1   
    39   21   43 1   
    40   22   40 1   
    41   22   44 1   
    42   23   45 1   
    43   25   36 1   
    44   26   45 1   
    45   27   45 1   
@<TRIPOS>SUBSTRUCTURE
     1 6RG         1 TEMP              0 ****  ****    0 ROOT
