@<TRIPOS>MOLECULE
6RG
   46    45     1     0     0
SMALL
bcc


@<TRIPOS>ATOM
      1 N1          0.1660    0.2140    0.3970 n2        1 6RG     -0.300000
      2 C2          1.4580    0.6200    0.4460 c2        1 6RG      0.160000
      3 N3          2.2310    0.8160    1.5730 n2        1 6RG     -0.269000
      4 C4          1.6330    0.5810    2.7620 c2        1 6RG      0.184000
      5 C5          0.2620    0.1440    2.8640 c2        1 6RG     -0.326000
      6 C6         -0.4610   -0.0340    1.6110 c2        1 6RG      0.266000
      7 CAB        -6.5760    1.1750   -4.2500 c2        1 6RG     -0.190000
      8 CAC         3.4960    1.6020   -3.3950 c1        1 6RG      0.195000
      9 CAD        -6.5260   -0.1320   -4.0080 c2        1 6RG     -0.177000
     10 CAE        -3.7840   -1.0560   -0.4760 c1        1 6RG      0.124000
     11 CAF         2.2130    1.3380   -3.2450 c2        1 6RG     -0.444000
     12 CAG         5.8630    1.5090   -1.0870 c2        1 6RG     -0.567000
     13 CAH        -6.6270   -0.7170   -2.6450 c3        1 6RG     -0.151000
     14 CAI        -4.6150   -1.3420   -1.3850 c1        1 6RG     -0.555000
     15 CAJ         1.5120    1.0570   -2.0110 c2        1 6RG     -0.036000
     16 CAK         7.0450    0.9640   -1.0530 c1        1 6RG      0.162000
     17 CAL         0.3600    0.0810    5.3250 c3        1 6RG     -0.159000
     18 CAM        -0.3600   -0.1050    4.0730 c1        1 6RG     -0.164000
     19 CAN         2.3730    0.7580    3.9900 c2        1 6RG     -0.292000
     20 CAO        -6.2970   -3.4040   -3.8920 c2        1 6RG     -0.132000
     21 CAP        -5.3520   -2.8740   -3.1090 c2        1 6RG     -0.197000
     22 NAS        -1.7490   -0.4420    1.6380 nv        1 6RG     -0.316000
     23 CAT         1.7960    0.5350    5.2180 c2        1 6RG      0.087000
     24 CAU        -5.4900   -1.6410   -2.3490 c2        1 6RG      0.289000
     25 CAV         2.1480    0.8860   -0.8400 c2        1 6RG     -0.133000
     26 HNAA        2.1250    0.3600    7.2210 hn        1 6RG      0.209500
     27 HNAB        3.4600    0.9030    6.3450 hn        1 6RG      0.209500
     28 HAC         5.2750    1.7640   -0.1900 ha        1 6RG      0.203000
     29 HAD        -6.4160   -0.8670   -4.8240 ha        1 6RG      0.124000
     30 HAE        -6.6760    1.9270   -3.4560 ha        1 6RG      0.121000
     31 HAF         1.5810    1.3320   -4.1600 ha        1 6RG      0.194000
     32 HAG         5.3450    1.7660   -2.0320 ha        1 6RG      0.203000
     33 HAH        -6.6620    0.0980   -1.8700 hc        1 6RG      0.118000
     34 HAI        -7.5910   -1.2950   -2.5640 hc        1 6RG      0.118000
     35 HAJ         0.4120    0.9970   -2.0950 ha        1 6RG      0.155000
     36 HAK         3.2500    0.9460   -0.7720 ha        1 6RG      0.148000
     37 HAL        -0.2250    0.8340    5.9290 hc        1 6RG      0.139500
     38 HAM         0.3150   -0.8980    5.8840 hc        1 6RG      0.139500
     39 HAN         3.4210    1.0860    3.9050 ha        1 6RG      0.145000
     40 HAO        -2.1500   -0.6090    2.5360 hn        1 6RG      0.272000
     41 HAOA       -7.2850   -2.9470   -4.0430 ha        1 6RG      0.126000
     42 HAP        -6.1340   -4.3490   -4.4310 ha        1 6RG      0.126000
     43 HAPA       -4.3790   -3.3870   -2.9810 ha        1 6RG      0.156000
     44 HNAS       -2.2970   -0.5890    0.8080 hn        1 6RG      0.272000
     45 NAA         2.4790    0.7710    6.3930 n8        1 6RG     -0.361000
     46 HAB        -6.5190    1.5810   -5.2690 ha        1 6RG      0.121000
@<TRIPOS>BOND
     1    1    2 1   
     2    1    6 1   
     3    2    3 1   
     4    2   25 1   
     5    3    4 1   
     6    4    5 1   
     7    4   19 1   
     8    5    6 1   
     9    5   18 1   
    10    6   22 1   
    11    7    9 1   
    12    7   30 1   
    13    7   46 1   
    14    8   11 1   
    15    9   13 1   
    16    9   29 1   
    17   10   14 1   
    18   11   15 1   
    19   11   31 1   
    20   12   16 1   
    21   12   28 1   
    22   12   32 1   
    23   13   24 1   
    24   13   33 1   
    25   13   34 1   
    26   14   24 1   
    27   15   25 1   
    28   15   35 1   
    29   17   18 1   
    30   17   23 1   
    31   17   37 1   
    32   17   38 1   
    33   19   23 1   
    34   19   39 1   
    35   20   21 1   
    36   20   41 1   
    37   20   42 1   
    38   21   24 1   
    39   21   43 1   
    40   22   40 1   
    41   22   44 1   
    42   23   45 1   
    43   25   36 1   
    44   26   45 1   
    45   27   45 1   
@<TRIPOS>SUBSTRUCTURE
     1 6RG         1 TEMP              0 ****  ****    0 ROOT
