@<TRIPOS>MOLECULE
6RG
   46    45     1     0     0
SMALL
bcc


@<TRIPOS>ATOM
      1 N1          0.1450    0.2470    0.3990 n2        1 6RG     -0.300000
      2 C2          1.4330    0.6660    0.4250 c2        1 6RG      0.160000
      3 N3          2.2090    0.9160    1.5400 n2        1 6RG     -0.269000
      4 C4          1.6180    0.7260    2.7400 c2        1 6RG      0.184000
      5 C5          0.2520    0.2830    2.8660 c2        1 6RG     -0.326000
      6 C6         -0.4750    0.0460    1.6250 c2        1 6RG      0.266000
      7 CAB        -6.3690    0.8950   -4.4620 c2        1 6RG     -0.190000
      8 CAC         3.4480    1.5000   -3.4630 c1        1 6RG      0.195000
      9 CAD        -6.4060   -0.3800   -4.0830 c2        1 6RG     -0.177000
     10 CAE        -3.7920   -1.0910   -0.4060 c1        1 6RG      0.124000
     11 CAF         2.1690    1.2260   -3.2970 c2        1 6RG     -0.444000
     12 CAG         5.8250    1.5420   -1.1620 c2        1 6RG     -0.567000
     13 CAH        -6.5680   -0.8090   -2.6690 c3        1 6RG     -0.151000
     14 CAI        -4.6230   -1.4200   -1.3010 c1        1 6RG     -0.555000
     15 CAJ         1.4740    0.9930   -2.0480 c2        1 6RG     -0.036000
     16 CAK         7.0190    1.0230   -1.1090 c1        1 6RG      0.162000
     17 CAL         0.3600    0.3250    5.3270 c3        1 6RG     -0.159000
     18 CAM        -0.3630    0.0800    4.0880 c1        1 6RG     -0.164000
     19 CAN         2.3620    0.9610    3.9570 c2        1 6RG     -0.292000
     20 CAO        -6.3870   -3.6280   -3.6200 c2        1 6RG     -0.132000
     21 CAP        -5.4240   -3.0770   -2.8740 c2        1 6RG     -0.197000
     22 NAS        -1.7600   -0.3710    1.6760 nh        1 6RG     -0.316000
     23 CAT         1.7920    0.7860    5.1960 c2        1 6RG      0.087000
     24 CAU        -5.4970   -1.7650   -2.2500 c2        1 6RG      0.289000
     25 CAV         2.1170    0.8820   -0.8730 c2        1 6RG     -0.133000
     26 HNAA        2.1300    0.6990    7.2030 hn        1 6RG      0.209500
     27 HNAB        3.4570    1.2150    6.2990 hn        1 6RG      0.209500
     28 HAC         5.2350    1.8230   -0.2730 ha        1 6RG      0.203000
     29 HAD        -6.3270   -1.2010   -4.8140 ha        1 6RG      0.124000
     30 HAE        -6.4360    1.7320   -3.7530 ha        1 6RG      0.121000
     31 HAF         1.5350    1.1710   -4.2080 ha        1 6RG      0.194000
     32 HAG         5.2990    1.7480   -2.1150 ha        1 6RG      0.203000
     33 HAH        -6.5650    0.0840   -1.9840 hc        1 6RG      0.118000
     34 HAI        -7.5680   -1.3150   -2.5510 hc        1 6RG      0.118000
     35 HAJ         0.3760    0.9150   -2.1260 ha        1 6RG      0.155000
     36 HAK         3.2180    0.9590   -0.8130 ha        1 6RG      0.148000
     37 HAL        -0.2290    1.0990    5.9020 hc        1 6RG      0.139500
     38 HAM         0.3260   -0.6290    5.9280 hc        1 6RG      0.139500
     39 HAN         3.4060    1.2950    3.8530 ha        1 6RG      0.145000
     40 HAO        -2.3090   -0.5580    0.8550 hn        1 6RG      0.272000
     41 HAOA       -7.3420   -3.1310   -3.8410 ha        1 6RG      0.126000
     42 HAP        -6.2740   -4.6330   -4.0540 ha        1 6RG      0.126000
     43 HAPA       -4.4880   -3.6320   -2.6710 ha        1 6RG      0.156000
     44 HNAS       -2.1550   -0.5030    2.5820 hn        1 6RG      0.272000
     45 NAA         2.4770    1.0780    6.3560 n3        1 6RG     -0.361000
     46 HAB        -6.2690    1.1860   -5.5160 ha        1 6RG      0.121000
@<TRIPOS>BOND
     1    1    2 1   
     2    1    6 1   
     3    2    3 1   
     4    2   25 1   
     5    3    4 1   
     6    4    5 1   
     7    4   19 1   
     8    5    6 1   
     9    5   18 1   
    10    6   22 1   
    11    7    9 1   
    12    7   30 1   
    13    7   46 1   
    14    8   11 1   
    15    9   13 1   
    16    9   29 1   
    17   10   14 1   
    18   11   15 1   
    19   11   31 1   
    20   12   16 1   
    21   12   28 1   
    22   12   32 1   
    23   13   24 1   
    24   13   33 1   
    25   13   34 1   
    26   14   24 1   
    27   15   25 1   
    28   15   35 1   
    29   17   18 1   
    30   17   23 1   
    31   17   37 1   
    32   17   38 1   
    33   19   23 1   
    34   19   39 1   
    35   20   21 1   
    36   20   41 1   
    37   20   42 1   
    38   21   24 1   
    39   21   43 1   
    40   22   40 1   
    41   22   44 1   
    42   23   45 1   
    43   25   36 1   
    44   26   45 1   
    45   27   45 1   
@<TRIPOS>SUBSTRUCTURE
     1 6RG         1 TEMP              0 ****  ****    0 ROOT
