@<TRIPOS>MOLECULE
6RG
   46    49     1     0     0
SMALL
bcc


@<TRIPOS>ATOM
      1 N1         -0.5000   -0.4670    0.0250 nb        1 6RG     -0.784000
      2 C2         -1.7160   -1.1280   -0.0530 cp        1 6RG      0.748500
      3 N3         -2.9310   -0.5610   -0.1410 nb        1 6RG     -0.730000
      4 C4         -2.9780    0.8210   -0.1400 ca        1 6RG      0.482600
      5 C5         -1.7930    1.6150   -0.0380 ca        1 6RG     -0.332600
      6 C6         -0.5290    0.8850    0.0450 ca        1 6RG      0.708200
      7 CAB         6.8410   -0.1790    0.0010 ca        1 6RG     -0.128000
      8 CAC        -1.5210   -5.4080   -0.0280 ca        1 6RG     -0.117000
      9 CAD         6.1010    0.0970   -1.1500 ca        1 6RG     -0.127500
     10 CAE         6.3620    0.2230    1.2470 ca        1 6RG     -0.127500
     11 CAF        -0.5920   -4.6720   -0.7630 ca        1 6RG     -0.144000
     12 CAG        -2.5130   -4.7480    0.6980 ca        1 6RG     -0.144000
     13 CAH         4.8870    0.7730   -1.0540 ca        1 6RG     -0.123000
     14 CAI         5.1470    0.8990    1.3450 ca        1 6RG     -0.123000
     15 CAJ        -0.6490   -3.2790   -0.7730 ca        1 6RG     -0.088500
     16 CAK        -2.5790   -3.3550    0.6910 ca        1 6RG     -0.088500
     17 CAL        -3.1360    3.6360   -0.1040 ca        1 6RG     -0.193000
     18 CAM        -1.9130    3.0210   -0.0140 ca        1 6RG     -0.055000
     19 CAN        -4.2420    1.4690   -0.2360 ca        1 6RG     -0.269300
     20 CAO         1.9370    0.9360    0.1370 c3        1 6RG      0.202800
     21 CAP         3.1100    1.9120    0.2930 c3        1 6RG     -0.048100
     22 NAS         0.6560    1.6010    0.2110 nh        1 6RG     -0.849900
     23 CAT        -4.3340    2.8610   -0.2320 ca        1 6RG      0.174600
     24 CAU         4.4010    1.1790    0.1950 ca        1 6RG     -0.083300
     25 CAV        -1.6450   -2.6170   -0.0450 cp        1 6RG     -0.136500
     26 HNAA       -5.6080    4.4300   -0.0630 hn        1 6RG      0.399300
     27 HNAB       -6.3610    2.9490   -0.2320 hn        1 6RG      0.399300
     28 HAC        -1.4720   -6.5060   -0.0210 ha        1 6RG      0.130000
     29 HAD         6.4760   -0.2190   -2.1340 ha        1 6RG      0.132500
     30 HAE         6.9420    0.0060    2.1560 ha        1 6RG      0.132500
     31 HAF         0.1910   -5.1900   -1.3360 ha        1 6RG      0.131500
     32 HAG        -3.2470   -5.3260    1.2780 ha        1 6RG      0.131500
     33 HAH         4.3040    0.9890   -1.9620 ha        1 6RG      0.132000
     34 HAI         4.7720    1.2130    2.3310 ha        1 6RG      0.132000
     35 HAJ         0.0900   -2.7060   -1.3530 ha        1 6RG      0.146000
     36 HAK        -3.3670   -2.8420    1.2630 ha        1 6RG      0.146000
     37 HAL        -3.2010    4.7340   -0.0860 ha        1 6RG      0.135000
     38 HAM        -1.0210    3.6580    0.0910 ha        1 6RG      0.126000
     39 HAN        -5.1450    0.8450   -0.3240 ha        1 6RG      0.154000
     40 HAO         2.0530    0.3880   -0.8430 h1        1 6RG      0.061200
     41 HAOA        1.9830    0.1690    0.9630 h1        1 6RG      0.061200
     42 HAP         3.0670    2.6970   -0.5090 hc        1 6RG      0.052200
     43 HAPA        3.0380    2.4380    1.2820 hc        1 6RG      0.052200
     44 HNAS        0.6390    2.5310   -0.1420 hn        1 6RG      0.415800
     45 NAA        -5.5570    3.5030   -0.4190 nh        1 6RG     -0.827200
     46 HAB         7.8000   -0.7120   -0.0760 ha        1 6RG      0.132000
@<TRIPOS>BOND
     1    1    2 ar  
     2    1    6 ar  
     3    2    3 ar  
     4    2   25 1   
     5    3    4 ar  
     6    4    5 ar  
     7    4   19 ar  
     8    5    6 ar  
     9    5   18 ar  
    10    6   22 1   
    11    7    9 ar  
    12    7   10 ar  
    13    7   46 1   
    14    8   11 ar  
    15    8   12 ar  
    16    8   28 1   
    17    9   13 ar  
    18    9   29 1   
    19   10   14 ar  
    20   10   30 1   
    21   11   15 ar  
    22   11   31 1   
    23   12   16 ar  
    24   12   32 1   
    25   13   24 ar  
    26   13   33 1   
    27   14   24 ar  
    28   14   34 1   
    29   15   25 ar  
    30   15   35 1   
    31   16   25 ar  
    32   16   36 1   
    33   17   18 ar  
    34   17   23 ar  
    35   17   37 1   
    36   18   38 1   
    37   19   23 ar  
    38   19   39 1   
    39   20   21 1   
    40   20   22 1   
    41   20   40 1   
    42   20   41 1   
    43   21   24 1   
    44   21   42 1   
    45   21   43 1   
    46   22   44 1   
    47   23   45 1   
    48   26   45 1   
    49   27   45 1   
@<TRIPOS>SUBSTRUCTURE
     1 6RG         1 TEMP              0 ****  ****    0 ROOT
