@<TRIPOS>MOLECULE
6SC
   38    27     1     0     0
SMALL
bcc


@<TRIPOS>ATOM
      1 C01        -3.6580    0.0520   -1.1570 c1        1 6SC     -0.317000
      2 C02        -2.3000   -0.0960   -1.2010 c1        1 6SC      0.000500
      3 N03        -1.8610   -0.2660    0.0630 n1        1 6SC     -0.104000
      4 N04        -2.9580   -0.2230    0.9100 n1        1 6SC     -0.126000
      5 C05        -4.0520   -0.0290    0.1640 c1        1 6SC      0.000500
      6 N06        -1.3950   -0.0470   -2.2470 n1        1 6SC     -0.126000
      7 C07        -0.0850   -0.1680   -2.0040 c1        1 6SC      0.030000
      8 C08         0.3610   -0.3400   -0.7180 c1        1 6SC     -0.208500
      9 C09        -0.5330   -0.3890    0.3120 c1        1 6SC      0.242000
     10 N10         0.3470   -0.1920    1.4350 n2        1 6SC     -0.301000
     11 C11         0.6120   -0.2640   -3.2090 c1        1 6SC      0.030000
     12 C12         0.0030   -0.7330    2.7200 c3        1 6SC      0.001000
     13 C13         0.5610    0.1700    3.8160 c1        1 6SC     -0.064000
     14 C14         1.8860    0.1290    4.1180 c1        1 6SC     -0.124500
     15 C15         2.3790    0.8730    5.1890 c1        1 6SC     -0.124500
     16 N16         1.5350    1.6410    5.9330 n1        1 6SC     -0.130000
     17 C17         0.2000    1.6840    5.6300 c1        1 6SC     -0.068000
     18 C18        -0.2920    0.9470    4.5700 c1        1 6SC     -0.161000
     19 C19         0.9520    0.8870   -3.9370 c1        1 6SC     -0.124500
     20 C20         1.5090    0.7680   -5.2090 c1        1 6SC     -0.124500
     21 C21         1.7290   -0.4950   -5.7580 c1        1 6SC     -0.124500
     22 C22         1.3890   -1.6390   -5.0310 c1        1 6SC     -0.124500
     23 C23         0.8280   -1.5160   -3.7520 c1        1 6SC     -0.208500
     24 BR24       -5.0740    0.1460   -2.4640 br        1 6SC      0.127000
     25 H05        -4.9420    0.1030    0.4950 DU        1 6SC      0.191000
     26 H08         1.3080   -0.4270   -0.5410 ha        1 6SC      0.156000
     27 HN10        1.1590    0.2890    1.3250 hn        1 6SC      0.231000
     28 H121       -0.9760   -0.7830    2.8040 h1        1 6SC      0.116000
     29 H122        0.3910   -1.6430    2.8110 h1        1 6SC      0.116000
     30 H14         2.5060   -0.4340    3.5730 ha        1 6SC      0.141333
     31 H15         3.3560    0.8430    5.4110 ha        1 6SC      0.141333
     32 H17        -0.4270    2.2560    6.1850 ha        1 6SC      0.165000
     33 H18        -1.2590    0.9780    4.3500 ha        1 6SC      0.152000
     34 H19         0.8010    1.7570   -3.5580 ha        1 6SC      0.141333
     35 H20         1.7480    1.5750   -5.7180 ha        1 6SC      0.141333
     36 H21         2.1220   -0.5800   -6.6570 ha        1 6SC      0.141333
     37 H22         1.5410   -2.5150   -5.4100 ha        1 6SC      0.141333
     38 H23         0.5910   -2.3170   -3.2420 ha        1 6SC      0.156000
@<TRIPOS>BOND
     1    1    2 1   
     2    1    5 1   
     3    2    6 1   
     4    3    9 1   
     5    4    5 1   
     6    7    8 1   
     7    8   26 1   
     8   10   12 1   
     9   10   27 1   
    10   11   23 1   
    11   12   13 1   
    12   12   28 1   
    13   12   29 1   
    14   13   18 1   
    15   14   15 1   
    16   14   30 1   
    17   15   31 1   
    18   16   17 1   
    19   17   32 1   
    20   18   33 1   
    21   19   20 1   
    22   19   34 1   
    23   20   35 1   
    24   21   22 1   
    25   21   36 1   
    26   22   37 1   
    27   23   38 1   
@<TRIPOS>SUBSTRUCTURE
     1 6SC         1 TEMP              0 ****  ****    0 ROOT
