@<TRIPOS>MOLECULE
6SC
   38    41     1     0     0
SMALL
bcc


@<TRIPOS>ATOM
      1 C01         2.1140    2.1640    0.1550 cc        1 6SC     -0.274900
      2 C02         1.4660    0.8990    0.0760 cd        1 6SC      0.433500
      3 N03         0.0610    1.2160   -0.0910 na        1 6SC      0.004200
      4 N04        -0.1580    2.5450   -0.1260 nd        1 6SC     -0.581100
      5 C05         1.0540    3.1340    0.0240 cc        1 6SC      0.421500
      6 N06         1.9500   -0.3810    0.1440 nd        1 6SC     -0.658000
      7 C07         1.0550   -1.3650    0.0270 cc        1 6SC      0.544800
      8 C08        -0.3490   -1.1400   -0.1660 cc        1 6SC     -0.385300
      9 C09        -0.8630    0.1640   -0.2400 cd        1 6SC      0.291300
     10 N10        -2.2000    0.4380   -0.5130 nh        1 6SC     -0.744600
     11 C11         1.5110   -2.7680    0.0900 ca        1 6SC     -0.159500
     12 C12        -3.1860   -0.5760   -0.2110 c3        1 6SC      0.244100
     13 C13        -4.5800   -0.0310   -0.1120 ca        1 6SC     -0.076300
     14 C14        -5.3750   -0.3320    0.9990 ca        1 6SC     -0.233300
     15 C15        -6.6910    0.1640    1.0350 ca        1 6SC      0.397200
     16 N16        -7.2290    0.9220    0.0590 nb        1 6SC     -0.654000
     17 C17        -6.4480    1.2060   -1.0010 ca        1 6SC      0.397200
     18 C18        -5.1230    0.7540   -1.1350 ca        1 6SC     -0.233300
     19 C19         2.6900   -3.1620   -0.5540 ca        1 6SC     -0.096000
     20 C20         3.1010   -4.4940   -0.4970 ca        1 6SC     -0.137000
     21 C21         2.3460   -5.4330    0.2050 ca        1 6SC     -0.113000
     22 C22         1.1770   -5.0390    0.8560 ca        1 6SC     -0.137000
     23 C23         0.7570   -3.7120    0.8000 ca        1 6SC     -0.096000
     24 BR24        3.8900    2.4990    0.3720 br        1 6SC      0.001300
     25 H05         1.1590    4.2220    0.0380 h4        1 6SC      0.062800
     26 H08        -1.0120   -2.0050   -0.2910 ha        1 6SC      0.163000
     27 HN10       -2.5110    1.3840   -0.4270 hn        1 6SC      0.449800
     28 H121       -3.1600   -1.3400   -1.0460 h1        1 6SC      0.060700
     29 H122       -2.9230   -1.1150    0.7490 h1        1 6SC      0.060700
     30 H14        -4.9910   -0.9420    1.8270 ha        1 6SC      0.151000
     31 H15        -7.3520   -0.0540    1.8930 h4        1 6SC      0.028600
     32 H17        -6.9130    1.8300   -1.7860 h4        1 6SC      0.028600
     33 H18        -4.5370    1.0100   -2.0280 ha        1 6SC      0.151000
     34 H19         3.2960   -2.4230   -1.1010 ha        1 6SC      0.143000
     35 H20         4.0260   -4.8010   -1.0070 ha        1 6SC      0.135500
     36 H21         2.6740   -6.4820    0.2490 ha        1 6SC      0.134000
     37 H22         0.5850   -5.7770    1.4180 ha        1 6SC      0.135500
     38 H23        -0.1590   -3.4030    1.3250 ha        1 6SC      0.143000
@<TRIPOS>BOND
     1    1    2 2   
     2    1    5 1   
     3    1   24 1   
     4    2    3 1   
     5    2    6 1   
     6    3    4 1   
     7    3    9 1   
     8    4    5 2   
     9    5   25 1   
    10    6    7 2   
    11    7    8 1   
    12    7   11 1   
    13    8    9 2   
    14    8   26 1   
    15    9   10 1   
    16   10   12 1   
    17   10   27 1   
    18   11   19 ar  
    19   11   23 ar  
    20   12   13 1   
    21   12   28 1   
    22   12   29 1   
    23   13   14 ar  
    24   13   18 ar  
    25   14   15 ar  
    26   14   30 1   
    27   15   16 ar  
    28   15   31 1   
    29   16   17 ar  
    30   17   18 ar  
    31   17   32 1   
    32   18   33 1   
    33   19   20 ar  
    34   19   34 1   
    35   20   21 ar  
    36   20   35 1   
    37   21   22 ar  
    38   21   36 1   
    39   22   23 ar  
    40   22   37 1   
    41   23   38 1   
@<TRIPOS>SUBSTRUCTURE
     1 6SC         1 TEMP              0 ****  ****    0 ROOT
