@<TRIPOS>MOLECULE
6SC
   38    41     1     0     0
SMALL
bcc


@<TRIPOS>ATOM
      1 C01        -0.0670   -0.1590   -0.0150 cc        1 6SC     -0.274900
      2 C02         1.3530   -0.0780   -0.0640 cd        1 6SC      0.433500
      3 N03         1.7590    0.0870    1.3190 na        1 6SC      0.004200
      4 N04         0.7040    0.1180    2.1560 nd        1 6SC     -0.581100
      5 C05        -0.3990   -0.0320    1.3830 cc        1 6SC      0.421500
      6 N06         2.2360   -0.1430   -1.1090 nd        1 6SC     -0.658000
      7 C07         3.5320   -0.0250   -0.8050 cc        1 6SC      0.544800
      8 C08         4.0170    0.1660    0.5320 cc        1 6SC     -0.385300
      9 C09         3.1270    0.2360    1.6150 cd        1 6SC      0.291300
     10 N10         3.5380    0.5070    2.9170 nh        1 6SC     -0.744600
     11 C11         4.5360   -0.0840   -1.8860 ca        1 6SC     -0.159500
     12 C12         4.9040    0.2050    3.2850 c3        1 6SC      0.244100
     13 C13         5.1050    0.1040    4.7680 ca        1 6SC     -0.076300
     14 C14         4.6840    1.1260    5.6250 ca        1 6SC     -0.233300
     15 C15         4.9330    0.9900    7.0030 ca        1 6SC      0.397200
     16 N16         5.5590   -0.0720    7.5460 nb        1 6SC     -0.654000
     17 C17         5.9590   -1.0470    6.7060 ca        1 6SC      0.397200
     18 C18         5.7530   -1.0090    5.3150 ca        1 6SC     -0.233300
     19 C19         4.3060    0.5620   -3.1070 ca        1 6SC     -0.096000
     20 C20         5.2700    0.5090   -4.1130 ca        1 6SC     -0.137000
     21 C21         6.4590   -0.1920   -3.9120 ca        1 6SC     -0.113000
     22 C22         6.6840   -0.8450   -2.7000 ca        1 6SC     -0.137000
     23 C23         5.7280   -0.7930   -1.6880 ca        1 6SC     -0.096000
     24 BR24       -1.2230   -0.3740   -1.4050 br        1 6SC      0.001300
     25 H05        -1.4010   -0.0480    1.8210 h4        1 6SC      0.062800
     26 H08         5.0950    0.2910    0.6910 ha        1 6SC      0.163000
     27 HN10        2.8620    0.4180    3.6480 hn        1 6SC      0.449800
     28 H121        5.5580    1.0410    2.8920 h1        1 6SC      0.060700
     29 H122        5.2470   -0.7530    2.7920 h1        1 6SC      0.060700
     30 H14         4.1760    2.0210    5.2390 ha        1 6SC      0.151000
     31 H15         4.6150    1.7750    7.7140 h4        1 6SC      0.028600
     32 H17         6.4700   -1.9060    7.1760 h4        1 6SC      0.028600
     33 H18         6.0980   -1.8370    4.6810 ha        1 6SC      0.151000
     34 H19         3.3650    1.1090   -3.2750 ha        1 6SC      0.143000
     35 H20         5.0880    1.0210   -5.0700 ha        1 6SC      0.135500
     36 H21         7.2160   -0.2330   -4.7080 ha        1 6SC      0.134000
     37 H22         7.6170   -1.4060   -2.5430 ha        1 6SC      0.135500
     38 H23         5.9050   -1.3200   -0.7380 ha        1 6SC      0.143000
@<TRIPOS>BOND
     1    1    2 2   
     2    1    5 1   
     3    1   24 1   
     4    2    3 1   
     5    2    6 1   
     6    3    4 1   
     7    3    9 1   
     8    4    5 2   
     9    5   25 1   
    10    6    7 2   
    11    7    8 1   
    12    7   11 1   
    13    8    9 2   
    14    8   26 1   
    15    9   10 1   
    16   10   12 1   
    17   10   27 1   
    18   11   19 ar  
    19   11   23 ar  
    20   12   13 1   
    21   12   28 1   
    22   12   29 1   
    23   13   14 ar  
    24   13   18 ar  
    25   14   15 ar  
    26   14   30 1   
    27   15   16 ar  
    28   15   31 1   
    29   16   17 ar  
    30   17   18 ar  
    31   17   32 1   
    32   18   33 1   
    33   19   20 ar  
    34   19   34 1   
    35   20   21 ar  
    36   20   35 1   
    37   21   22 ar  
    38   21   36 1   
    39   22   23 ar  
    40   22   37 1   
    41   23   38 1   
@<TRIPOS>SUBSTRUCTURE
     1 6SC         1 TEMP              0 ****  ****    0 ROOT
