@<TRIPOS>MOLECULE
6SC
   39    42     1     0     0
SMALL
bcc


@<TRIPOS>ATOM
      1 C01        -0.1150   -0.2670   -0.1130 cc        1 6SC     -0.210900
      2 C02         1.3020   -0.1880   -0.1340 cd        1 6SC      0.406500
      3 N03         1.6830   -0.1490    1.2740 na        1 6SC      0.003200
      4 N04         0.6210   -0.1940    2.0940 nd        1 6SC     -0.589100
      5 C05        -0.4710   -0.2670    1.2890 cc        1 6SC      0.448500
      6 N06         2.2230   -0.1550   -1.1480 nd        1 6SC     -0.563000
      7 C07         3.5080   -0.0800   -0.8170 cc        1 6SC      0.521800
      8 C08         3.9670   -0.0270    0.5660 cc        1 6SC     -0.211300
      9 C09         3.0420   -0.0590    1.5910 cd        1 6SC      0.068300
     10 N10         3.3950    0.0010    3.0230 n4        1 6SC     -0.641400
     11 C11         4.5450   -0.0340   -1.8590 ca        1 6SC     -0.198500
     12 C12         4.8720    0.0930    3.2880 c3        1 6SC      0.173100
     13 C13         5.1290    0.1360    4.7560 ca        1 6SC     -0.151300
     14 C14         5.2830    1.3630    5.4120 ca        1 6SC     -0.222300
     15 C15         5.5680    1.3470    6.7920 ca        1 6SC      0.419200
     16 N16         5.6960    0.2150    7.5100 nb        1 6SC     -0.609000
     17 C17         5.5460   -0.9570    6.8630 ca        1 6SC      0.419200
     18 C18         5.2600   -1.0510    5.4870 ca        1 6SC     -0.222300
     19 C19         4.3460    0.7240   -3.0210 ca        1 6SC     -0.091000
     20 C20         5.3390    0.7630   -4.0000 ca        1 6SC     -0.126000
     21 C21         6.5210    0.0430   -3.8330 ca        1 6SC     -0.086000
     22 C22         6.7140   -0.7240   -2.6810 ca        1 6SC     -0.126000
     23 C23         5.7320   -0.7640   -1.6950 ca        1 6SC     -0.091000
     24 BR24       -1.2480   -0.3520   -1.5330 br        1 6SC      0.069300
     25 H05        -1.4840   -0.3180    1.7080 h4        1 6SC      0.090800
     26 H08         5.0510    0.0520    0.7410 ha        1 6SC      0.184000
     27 HN10        3.0240   -0.8420    3.4930 hn        1 6SC      0.473800
     28 H121        5.3650   -0.8110    2.8250 hx        1 6SC      0.115200
     29 H122        5.2590    1.0260    2.7850 hx        1 6SC      0.115200
     30 H14         5.2040    2.3190    4.8770 ha        1 6SC      0.154000
     31 H15         5.7050    2.2930    7.3530 h4        1 6SC      0.055100
     32 H17         5.6640   -1.8680    7.4810 h4        1 6SC      0.055100
     33 H18         5.1660   -2.0360    5.0100 ha        1 6SC      0.154000
     34 H19         3.4100    1.2860   -3.1680 ha        1 6SC      0.139500
     35 H20         5.1810    1.3610   -4.9120 ha        1 6SC      0.153000
     36 H21         7.3000    0.0720   -4.6100 ha        1 6SC      0.154000
     37 H22         7.6410   -1.3040   -2.5550 ha        1 6SC      0.153000
     38 H23         5.8810   -1.3910   -0.8040 ha        1 6SC      0.139500
     39 H102        2.9280    0.8200    3.4460 hn        1 6SC      0.473800
@<TRIPOS>BOND
     1    1    2 2   
     2    1    5 1   
     3    1   24 1   
     4    2    3 1   
     5    2    6 1   
     6    3    4 1   
     7    3    9 1   
     8    4    5 2   
     9    5   25 1   
    10    6    7 2   
    11    7    8 1   
    12    7   11 1   
    13    8    9 2   
    14    8   26 1   
    15    9   10 1   
    16   10   12 1   
    17   10   27 1   
    18   10   39 1   
    19   11   19 ar  
    20   11   23 ar  
    21   12   13 1   
    22   12   28 1   
    23   12   29 1   
    24   13   14 ar  
    25   13   18 ar  
    26   14   15 ar  
    27   14   30 1   
    28   15   16 ar  
    29   15   31 1   
    30   16   17 ar  
    31   17   18 ar  
    32   17   32 1   
    33   18   33 1   
    34   19   20 ar  
    35   19   34 1   
    36   20   21 ar  
    37   20   35 1   
    38   21   22 ar  
    39   21   36 1   
    40   22   23 ar  
    41   22   37 1   
    42   23   38 1   
@<TRIPOS>SUBSTRUCTURE
     1 6SC         1 TEMP              0 ****  ****    0 ROOT
