@<TRIPOS>MOLECULE
6SE
    5     4     1     0     0
SMALL
bcc


@<TRIPOS>ATOM
      1 SE1         0.5160   -0.6990   -0.2600 sh        1 6SE     -0.222800
      2 SE2         2.3030   -0.0070    0.0800 ss        1 6SE      0.042000
      3 SE3         2.9550    0.7000    1.7710 sh        1 6SE     -0.222800
      4 HSE1       -0.2170    0.3670   -0.5620 hs        1 6SE      0.201800
      5 HSE3        3.3690   -0.3610    2.4550 hs        1 6SE      0.201800
@<TRIPOS>BOND
     1    1    2 1   
     2    1    4 1   
     3    2    3 1   
     4    3    5 1   
@<TRIPOS>SUBSTRUCTURE
     1 6SE         1 TEMP              0 ****  ****    0 ROOT
