@<TRIPOS>MOLECULE
6SE
    5     4     1     0     0
SMALL
bcc


@<TRIPOS>ATOM
      1 SE1        -1.8910   -0.0000   -0.6330 sh        1 6SE     -0.222800
      2 SE2         0.4470   -0.0000   -0.6330 ss        1 6SE      0.042000
      3 SE3         1.2270   -0.0000    1.5720 sh        1 6SE     -0.222800
      4 HSE1       -2.3320   -0.0000   -1.8790 hs        1 6SE      0.201800
      5 HSE3        2.5490    0.0000    1.5720 hs        1 6SE      0.201800
@<TRIPOS>BOND
     1    1    2 1   
     2    1    4 1   
     3    2    3 1   
     4    3    5 1   
@<TRIPOS>SUBSTRUCTURE
     1 6SE         1 TEMP              0 ****  ****    0 ROOT
