@<TRIPOS>MOLECULE
6SE
    5     4     1     0     0
SMALL
bcc


@<TRIPOS>ATOM
      1 SE1        -1.7180   -0.3100   -0.2730 sh        1 6SE     -0.203800
      2 SE2         0.0290    0.3350   -0.7860 ss        1 6SE      0.033000
      3 SE3         1.7330   -0.3120   -0.1470 sh        1 6SE     -0.203800
      4 HSE1       -2.2160    0.6270    0.5230 hs        1 6SE      0.187800
      5 HSE3        2.1720    0.6250    0.6830 hs        1 6SE      0.187800
@<TRIPOS>BOND
     1    1    2 1   
     2    1    4 1   
     3    2    3 1   
     4    3    5 1   
@<TRIPOS>SUBSTRUCTURE
     1 6SE         1 TEMP              0 ****  ****    0 ROOT
