@<TRIPOS>MOLECULE
6SP
   15    15     1     0     0
SMALL
bcc


@<TRIPOS>ATOM
      1 O1          1.9190    0.0490    0.3850 oh        1 6SP     -0.597800
      2 C2          0.8010    0.0610   -0.4870 c3        1 6SP      0.113100
      3 C3         -0.1590    1.2400   -0.1710 c3        1 6SP      0.111800
      4 N4         -1.3720    0.7210    0.4500 n3        1 6SP     -0.790200
      5 C5         -1.4000   -0.7250    0.2380 c3        1 6SP      0.143800
      6 C6         -0.0120   -1.2110   -0.2120 c3        1 6SP     -0.103400
      7 HO1         2.4260    0.8490    0.2010 ho        1 6SP      0.400000
      8 H2          1.1520    0.1100   -1.5510 h1        1 6SP      0.043700
      9 H3          0.3500    1.9990    0.4800 h1        1 6SP      0.052200
     10 H3A        -0.4590    1.7420   -1.1310 h1        1 6SP      0.052200
     11 HN4        -1.3680    0.9240    1.4330 hn        1 6SP      0.350800
     12 H5         -1.7300   -1.2670    1.1630 h1        1 6SP      0.048700
     13 H5A        -2.1560   -0.9290   -0.5690 h1        1 6SP      0.048700
     14 H6         -0.0870   -1.8340   -1.1340 hc        1 6SP      0.062700
     15 H6A         0.4820   -1.8190    0.5860 hc        1 6SP      0.062700
@<TRIPOS>BOND
     1    1    2 1   
     2    1    7 1   
     3    2    3 1   
     4    2    6 1   
     5    2    8 1   
     6    3    4 1   
     7    3    9 1   
     8    3   10 1   
     9    4    5 1   
    10    4   11 1   
    11    5    6 1   
    12    5   12 1   
    13    5   13 1   
    14    6   14 1   
    15    6   15 1   
@<TRIPOS>SUBSTRUCTURE
     1 6SP         1 TEMP              0 ****  ****    0 ROOT
