@<TRIPOS>MOLECULE
6SP
   15    15     1     0     0
SMALL
bcc


@<TRIPOS>ATOM
      1 O1         -2.0670   -0.5450   -0.4330 oh        1 6SP     -0.598800
      2 C2         -0.5820   -0.5450   -0.4330 c3        1 6SP      0.112100
      3 C3         -0.0220   -0.5450    1.1040 c3        1 6SP      0.146800
      4 N4          1.1700   -0.0640    1.0550 n3        1 6SP     -0.793200
      5 C5          1.1730    0.8380   -0.1710 c3        1 6SP      0.148800
      6 C6         -0.1570    0.4970   -0.9560 c3        1 6SP     -0.141400
      7 HO1        -2.3630   -1.3000   -0.7940 ho        1 6SP      0.400000
      8 H2         -0.2450   -1.3250   -0.9130 h1        1 6SP      0.043700
      9 H3         -0.0010   -1.4560    1.4530 h1        1 6SP      0.063200
     10 H3A        -0.5870    0.0170    1.6670 h1        1 6SP      0.063200
     11 HN4         1.3270    0.4370    1.8010 hn        1 6SP      0.351800
     12 H5          1.1730    1.7760    0.1010 h1        1 6SP      0.049200
     13 H5A         1.9520    0.6480   -0.7270 h1        1 6SP      0.049200
     14 H6          0.0360    0.3470   -1.9010 hc        1 6SP      0.053700
     15 H6A        -0.8070    1.2180   -0.8520 hc        1 6SP      0.053700
@<TRIPOS>BOND
     1    1    2 1   
     2    1    7 1   
     3    2    3 1   
     4    2    6 1   
     5    2    8 1   
     6    3    4 1   
     7    3    9 1   
     8    3   10 1   
     9    4    5 1   
    10    4   11 1   
    11    5    6 1   
    12    5   12 1   
    13    5   13 1   
    14    6   14 1   
    15    6   15 1   
@<TRIPOS>SUBSTRUCTURE
     1 6SP         1 TEMP              0 ****  ****    0 ROOT
