@<TRIPOS>MOLECULE
6SP
   15    15     1     0     0
SMALL
bcc


@<TRIPOS>ATOM
      1 O1          0.1090   -0.3590    0.1570 oh        1 6SP     -0.598800
      2 C2          1.4930   -0.0710    0.0540 c3        1 6SP      0.112100
      3 C3          2.0490   -0.0070    1.5020 c3        1 6SP      0.146800
      4 N4          2.3890    1.3740    1.8230 n3        1 6SP     -0.793200
      5 C5          2.4430    2.1250    0.5690 c3        1 6SP      0.148800
      6 C6          1.7560    1.3170   -0.5460 c3        1 6SP     -0.141400
      7 HO1        -0.2430   -0.3680   -0.7400 ho        1 6SP      0.400000
      8 H2          2.0010   -0.8780   -0.5360 h1        1 6SP      0.043700
      9 H3          1.3030   -0.4340    2.2230 h1        1 6SP      0.063200
     10 H3A         2.9920   -0.6140    1.5570 h1        1 6SP      0.063200
     11 HN4         1.6920    1.7680    2.4290 hn        1 6SP      0.351800
     12 H5          1.9700    3.1360    0.6780 h1        1 6SP      0.049200
     13 H5A         3.5280    2.2760    0.3170 h1        1 6SP      0.049200
     14 H6          0.7970    1.8000   -0.8530 hc        1 6SP      0.053700
     15 H6A         2.4160    1.2460   -1.4430 hc        1 6SP      0.053700
@<TRIPOS>BOND
     1    1    2 1   
     2    1    7 1   
     3    2    3 1   
     4    2    6 1   
     5    2    8 1   
     6    3    4 1   
     7    3    9 1   
     8    3   10 1   
     9    4    5 1   
    10    4   11 1   
    11    5    6 1   
    12    5   12 1   
    13    5   13 1   
    14    6   14 1   
    15    6   15 1   
@<TRIPOS>SUBSTRUCTURE
     1 6SP         1 TEMP              0 ****  ****    0 ROOT
