@<TRIPOS>MOLECULE
6SP
   15    15     1     0     0
SMALL
bcc


@<TRIPOS>ATOM
      1 O1          0.0900   -0.3460    0.2160 oh        1 6SP     -0.598800
      2 C2          1.4690   -0.0620    0.0530 c3        1 6SP      0.112100
      3 C3          2.0920   -0.0260    1.4740 c3        1 6SP      0.146800
      4 N4          2.4540    1.3480    1.8020 n7        1 6SP     -0.793200
      5 C5          2.4530    2.1200    0.5610 c3        1 6SP      0.148800
      6 C6          1.7110    1.3350   -0.5350 c3        1 6SP     -0.141400
      7 HO1        -0.3040   -0.3360   -0.6640 ho        1 6SP      0.400000
      8 H2          1.9450   -0.8610   -0.5750 h1        1 6SP      0.043700
      9 H3          1.3780   -0.4630    2.2210 h1        1 6SP      0.063200
     10 H3A         3.0340   -0.6380    1.4740 h1        1 6SP      0.063200
     11 HN4         1.7890    1.7330    2.4470 hn        1 6SP      0.351800
     12 H5          1.9920    3.1310    0.7090 h1        1 6SP      0.049200
     13 H5A         3.5260    2.2710    0.2610 h1        1 6SP      0.049200
     14 H6          0.7410    1.8280   -0.7880 hc        1 6SP      0.053700
     15 H6A         2.3280    1.2770   -1.4630 hc        1 6SP      0.053700
@<TRIPOS>BOND
     1    1    2 1   
     2    1    7 1   
     3    2    3 1   
     4    2    6 1   
     5    2    8 1   
     6    3    4 1   
     7    3    9 1   
     8    3   10 1   
     9    4    5 1   
    10    4   11 1   
    11    5    6 1   
    12    5   12 1   
    13    5   13 1   
    14    6   14 1   
    15    6   15 1   
@<TRIPOS>SUBSTRUCTURE
     1 6SP         1 TEMP              0 ****  ****    0 ROOT
