@<TRIPOS>MOLECULE
6SP
   15    15     1     0     0
SMALL
bcc


@<TRIPOS>ATOM
      1 O1          0.0240   -0.2570    0.2780 oh        1 6SP     -0.598800
      2 C2          1.4130   -0.0560    0.0850 c3        1 6SP      0.112100
      3 C3          2.0620   -0.0130    1.4930 c3        1 6SP      0.146800
      4 N4          2.5050    1.3470    1.7750 n3        1 6SP     -0.793200
      5 C5          2.5250    2.0820    0.5110 c3        1 6SP      0.148800
      6 C6          1.7220    1.3080   -0.5490 c3        1 6SP     -0.141400
      7 HO1        -0.3850   -0.2510   -0.5950 ho        1 6SP      0.400000
      8 H2          1.8330   -0.8980   -0.5260 h1        1 6SP      0.043700
      9 H3          2.9690   -0.6760    1.4970 h1        1 6SP      0.063200
     10 H3A         1.3390   -0.3880    2.2650 h1        1 6SP      0.063200
     11 HN4         1.8740    1.7880    2.4190 hn        1 6SP      0.351800
     12 H5          3.6000    2.1650    0.1900 h1        1 6SP      0.049200
     13 H5A         2.1230    3.1220    0.6360 h1        1 6SP      0.049200
     14 H6          0.7760    1.8470   -0.8010 hc        1 6SP      0.053700
     15 H6A         2.3180    1.1890   -1.4840 hc        1 6SP      0.053700
@<TRIPOS>BOND
     1    1    2 1   
     2    1    7 1   
     3    2    3 1   
     4    2    6 1   
     5    2    8 1   
     6    3    4 1   
     7    3    9 1   
     8    3   10 1   
     9    4    5 1   
    10    4   11 1   
    11    5    6 1   
    12    5   12 1   
    13    5   13 1   
    14    6   14 1   
    15    6   15 1   
@<TRIPOS>SUBSTRUCTURE
     1 6SP         1 TEMP              0 ****  ****    0 ROOT
