@<TRIPOS>MOLECULE
6T6
   46    49     1     0     0
SMALL
bcc


@<TRIPOS>ATOM
      1 C1          1.6840   -0.4240    0.3440 c3        1 6T6     -0.136100
      2 C2          0.1840   -0.1390    0.1120 c3        1 6T6      0.504700
      3 N3         -0.5590   -0.0320    1.4230 nu        1 6T6     -0.726000
      4 C4         -1.1640    1.1980    1.5030 ce        1 6T6      0.289800
      5 C5         -0.8860    1.9230    0.3340 c2        1 6T6     -0.204000
      6 N6         -0.0290    1.1910   -0.5820 nu        1 6T6     -0.633000
      7 N7         -1.5810    3.1100   -0.0960 nz        1 6T6     -0.639400
      8 C8         -1.9940    1.6470    2.6130 ca        1 6T6     -0.138800
      9 C9         -2.9650    0.7950    3.1560 ca        1 6T6     -0.107500
     10 C10        -3.7660    1.2400    4.2080 ca        1 6T6     -0.118000
     11 C11        -3.5960    2.5240    4.7260 ca        1 6T6     -0.083000
     12 C12        -2.6190    3.3690    4.1930 ca        1 6T6     -0.118000
     13 C13        -1.8200    2.9370    3.1390 ca        1 6T6     -0.107500
     14 C14        -0.3880   -1.2990   -0.6950 ca        1 6T6     -0.101300
     15 C15        -0.4640   -2.5590   -0.0840 ca        1 6T6     -0.118000
     16 C16        -0.9520   -3.6520   -0.7950 ca        1 6T6     -0.121000
     17 C17        -1.3680   -3.5040   -2.1170 ca        1 6T6     -0.098000
     18 C18        -1.2940   -2.2510   -2.7390 cp        1 6T6     -0.025000
     19 C19        -0.7990   -1.1500   -2.0200 ca        1 6T6     -0.090000
     20 C20        -1.7310   -2.0790   -4.1190 cp        1 6T6     -0.168300
     21 C21        -1.4750   -3.0480   -5.1010 ca        1 6T6     -0.076000
     22 C22        -1.9150   -2.8250   -6.4050 ca        1 6T6     -0.236300
     23 C23        -2.6030   -1.6310   -6.6910 ca        1 6T6      0.406200
     24 N24        -2.8630   -0.6880   -5.7650 nb        1 6T6     -0.663000
     25 C25        -2.4350   -0.9170   -4.5110 ca        1 6T6      0.402200
     26 H11C        2.2020   -0.4890   -0.6440 hc        1 6T6      0.069367
     27 H12C        1.8060   -1.4050    0.8660 hc        1 6T6      0.069367
     28 H13C        2.1650    0.3750    0.9560 hc        1 6T6      0.069367
     29 H3         -0.2680   -0.5510    2.2150 hn        1 6T6      0.466800
     30 H6          0.8540    1.6700   -0.6730 hn        1 6T6      0.371800
     31 H71N       -2.1860    3.4270    0.6720 hn        1 6T6      0.457133
     32 H72N       -0.9020    3.8430   -0.3290 hn        1 6T6      0.457133
     33 H9         -3.1020   -0.2210    2.7510 ha        1 6T6      0.144500
     34 H13        -1.0210    3.5890    2.7550 ha        1 6T6      0.144500
     35 H10        -4.5320    0.5700    4.6330 ha        1 6T6      0.159500
     36 H11        -4.2260    2.8700    5.5610 ha        1 6T6      0.162000
     37 H12        -2.4750    4.3770    4.6150 ha        1 6T6      0.159500
     38 H15        -0.1350   -2.7000    0.9560 ha        1 6T6      0.128000
     39 H19        -0.7310   -0.1800   -2.5350 ha        1 6T6      0.148000
     40 H16        -1.0100   -4.6390   -0.3100 ha        1 6T6      0.148000
     41 H17        -1.7600   -4.3700   -2.6720 ha        1 6T6      0.150000
     42 H21        -0.9280   -3.9680   -4.8450 ha        1 6T6      0.146000
     43 H25        -2.6750   -0.1320   -3.7720 h4        1 6T6      0.010100
     44 H22        -1.7300   -3.5630   -7.1980 ha        1 6T6      0.155000
     45 H23        -2.9670   -1.4160   -7.7130 h4        1 6T6      0.033100
     46 H73        -2.1500    2.9070   -0.9290 hn        1 6T6      0.457133
@<TRIPOS>BOND
     1    1    2 1   
     2    1   26 1   
     3    1   27 1   
     4    1   28 1   
     5    2    3 1   
     6    2    6 1   
     7    2   14 1   
     8    3    4 1   
     9    3   29 1   
    10    4    5 2   
    11    4    8 1   
    12    5    6 1   
    13    5    7 1   
    14    6   30 1   
    15    7   31 1   
    16    7   32 1   
    17    7   46 1   
    18    8    9 ar  
    19    8   13 ar  
    20    9   10 ar  
    21    9   33 1   
    22   10   11 ar  
    23   10   35 1   
    24   11   12 ar  
    25   11   36 1   
    26   12   13 ar  
    27   12   37 1   
    28   13   34 1   
    29   14   15 ar  
    30   14   19 ar  
    31   15   16 ar  
    32   15   38 1   
    33   16   17 ar  
    34   16   40 1   
    35   17   18 ar  
    36   17   41 1   
    37   18   19 ar  
    38   18   20 1   
    39   19   39 1   
    40   20   21 ar  
    41   20   25 ar  
    42   21   22 ar  
    43   21   42 1   
    44   22   23 ar  
    45   22   44 1   
    46   23   24 ar  
    47   23   45 1   
    48   24   25 ar  
    49   25   43 1   
@<TRIPOS>SUBSTRUCTURE
     1 6T6         1 TEMP              0 ****  ****    0 ROOT
