@<TRIPOS>MOLECULE
6T6
   45    41     1     0     0
SMALL
bcc


@<TRIPOS>ATOM
      1 C1          3.0050    0.7720    0.7880 c3        1 6T6     -0.178000
      2 C2          1.4970    0.7210    0.8070 c3        1 6T6      0.121000
      3 N3          0.9650    0.7240    2.2910 n3        1 6T6     -0.207000
      4 C4         -0.0270    1.4920    2.2420 c2        1 6T6     -0.156000
      5 C5          0.0150    2.3290    1.1490 c1        1 6T6      0.019000
      6 N6          0.9390    1.9400    0.2350 n2        1 6T6     -0.244000
      7 N7         -0.3000    3.6970    1.2960 n3        1 6T6     -0.290000
      8 C8         -1.3670    1.0420    2.8060 c2        1 6T6     -0.004000
      9 C9         -1.5250    0.8910    4.1760 c2        1 6T6     -0.111000
     10 C10        -2.7740    0.5940    4.7020 c1        1 6T6     -0.134000
     11 C11        -3.8640    0.4480    3.8590 c1        1 6T6     -0.132500
     12 C12        -3.7070    0.5990    2.4900 c1        1 6T6     -0.132500
     13 C13        -2.4580    0.8960    1.9630 c1        1 6T6     -0.137000
     14 C14         1.0450   -0.3800    0.1330 c2        1 6T6     -0.104000
     15 C15         0.6210   -1.4960    0.8350 c2        1 6T6     -0.117000
     16 C16         0.1960   -2.6250    0.1530 c1        1 6T6     -0.127000
     17 C17         0.1970   -2.6380   -1.2350 c1        1 6T6     -0.115000
     18 C18         0.6220   -1.5220   -1.9380 c1        1 6T6     -0.032000
     19 C19         1.0460   -0.3930   -1.2560 c1        1 6T6     -0.117000
     20 C20         0.5970   -1.5260   -3.4580 c2        1 6T6     -0.089000
     21 C21         1.6530   -2.0400   -4.1560 c2        1 6T6     -0.083000
     22 C22         1.6660   -1.9740   -5.5190 c1        1 6T6     -0.180000
     23 C23         0.6070   -1.3850   -6.1940 c1        1 6T6     -0.070000
     24 N24        -0.4460   -0.8730   -5.4970 n1        1 6T6     -0.136000
     25 C25        -0.4600   -0.9380   -4.1360 c1        1 6T6     -0.060000
     26 H11C        3.3170    1.4500    1.4230 hc        1 6T6      0.087667
     27 H12C        3.3640   -0.1010    1.0410 hc        1 6T6      0.087667
     28 H13C        3.3120    1.0020   -0.1120 hc        1 6T6      0.087667
     29 H3          1.1310    0.0920    2.9290 hn        1 6T6      0.158000
     30 H6          1.1450    2.3340   -0.5610 hn        1 6T6      0.174000
     31 H71N       -0.6570    4.0010    2.0770 hn        1 6T6      0.186500
     32 H72N       -0.1220    4.2810    0.6180 hn        1 6T6      0.186500
     33 H9         -0.7580    0.9930    4.7690 ha        1 6T6      0.147000
     34 H13        -2.3480    1.0030    1.0000 ha        1 6T6      0.141000
     35 H10        -2.8850    0.4870    5.6670 ha        1 6T6      0.131000
     36 H11        -4.7450    0.2380    4.2300 ha        1 6T6      0.130000
     37 H12        -4.4760    0.4960    1.8950 ha        1 6T6      0.130000
     38 H15         0.6200   -1.4870    1.8130 ha        1 6T6      0.141000
     39 H19         1.3460    0.3950   -1.7520 ha        1 6T6      0.144000
     40 H16        -0.1020   -3.4090    0.6460 ha        1 6T6      0.137000
     41 H17        -0.1020   -3.4320   -1.7160 ha        1 6T6      0.137000
     42 H21         2.3970   -2.4540   -3.6800 ha        1 6T6      0.142000
     43 H25        -1.2160   -0.5700   -3.6370 ha        1 6T6      0.161000
     44 H22         2.4190   -2.3400   -6.0180 ha        1 6T6      0.145000
     45 H23         0.6160   -1.3380   -7.1700 ha        1 6T6      0.161000
@<TRIPOS>BOND
     1    1    2 1   
     2    1   26 1   
     3    1   27 1   
     4    1   28 1   
     5    2    3 1   
     6    2    6 1   
     7    2   14 1   
     8    3    4 1   
     9    3   29 1   
    10    4    5 1   
    11    4    8 1   
    12    5    7 1   
    13    6   30 1   
    14    7   31 1   
    15    7   32 1   
    16    8    9 1   
    17    8   13 1   
    18    9   10 1   
    19    9   33 1   
    20   10   35 1   
    21   11   12 1   
    22   11   36 1   
    23   12   37 1   
    24   13   34 1   
    25   14   15 1   
    26   14   19 1   
    27   15   16 1   
    28   15   38 1   
    29   16   40 1   
    30   17   18 1   
    31   17   41 1   
    32   18   20 1   
    33   19   39 1   
    34   20   21 1   
    35   20   25 1   
    36   21   22 1   
    37   21   42 1   
    38   22   44 1   
    39   23   24 1   
    40   23   45 1   
    41   25   43 1   
@<TRIPOS>SUBSTRUCTURE
     1 6T6         1 TEMP              0 ****  ****    0 ROOT
