@<TRIPOS>MOLECULE
6T6
   46    49     1     0     0
SMALL
bcc


@<TRIPOS>ATOM
      1 C1          1.6870   -0.4090    0.3420 c3        1 6T6     -0.136100
      2 C2          0.1850   -0.1320    0.1110 c3        1 6T6      0.504700
      3 N3         -0.5580   -0.0320    1.4220 nh        1 6T6     -0.726000
      4 C4         -1.1700    1.1940    1.5060 ce        1 6T6      0.289800
      5 C5         -0.8970    1.9230    0.3390 c2        1 6T6     -0.204000
      6 N6         -0.0350    1.1990   -0.5790 nh        1 6T6     -0.633000
      7 N7         -1.5980    3.1080   -0.0870 n4        1 6T6     -0.639400
      8 C8         -2.0030    1.6350    2.6170 ca        1 6T6     -0.138800
      9 C9         -2.9690    0.7760    3.1590 ca        1 6T6     -0.107500
     10 C10        -3.7730    1.2130    4.2110 ca        1 6T6     -0.118000
     11 C11        -3.6100    2.4970    4.7330 ca        1 6T6     -0.083000
     12 C12        -2.6380    3.3490    4.2020 ca        1 6T6     -0.118000
     13 C13        -1.8360    2.9240    3.1470 ca        1 6T6     -0.107500
     14 C14        -0.3810   -1.2930   -0.6990 ca        1 6T6     -0.101300
     15 C15        -0.4490   -2.5550   -0.0910 ca        1 6T6     -0.118000
     16 C16        -0.9310   -3.6490   -0.8050 ca        1 6T6     -0.121000
     17 C17        -1.3490   -3.4990   -2.1270 ca        1 6T6     -0.098000
     18 C18        -1.2830   -2.2440   -2.7440 cp        1 6T6     -0.025000
     19 C19        -0.7940   -1.1430   -2.0230 ca        1 6T6     -0.090000
     20 C20        -1.7220   -2.0710   -4.1230 cp        1 6T6     -0.168300
     21 C21        -1.4610   -3.0350   -5.1090 ca        1 6T6     -0.076000
     22 C22        -1.9040   -2.8110   -6.4120 ca        1 6T6     -0.236300
     23 C23        -2.6000   -1.6200   -6.6940 ca        1 6T6      0.406200
     24 N24        -2.8650   -0.6820   -5.7640 nb        1 6T6     -0.663000
     25 C25        -2.4340   -0.9120   -4.5110 ca        1 6T6      0.402200
     26 H11C        1.8140   -1.3900    0.8620 hc        1 6T6      0.069367
     27 H12C        2.1630    0.3910    0.9570 hc        1 6T6      0.069367
     28 H13C        2.2050   -0.4690   -0.6460 hc        1 6T6      0.069367
     29 H3         -0.2650   -0.5520    2.2130 hn        1 6T6      0.466800
     30 H6          0.8450    1.6830   -0.6690 hn        1 6T6      0.371800
     31 H71N       -2.2040    3.4200    0.6820 hn        1 6T6      0.457133
     32 H72N       -2.1660    2.9040   -0.9200 hn        1 6T6      0.457133
     33 H9         -3.1010   -0.2390    2.7500 ha        1 6T6      0.144500
     34 H13        -1.0400    3.5820    2.7650 ha        1 6T6      0.144500
     35 H10        -4.5350    0.5380    4.6340 ha        1 6T6      0.159500
     36 H11        -4.2420    2.8370    5.5690 ha        1 6T6      0.162000
     37 H12        -2.4990    4.3560    4.6280 ha        1 6T6      0.159500
     38 H15        -0.1180   -2.6970    0.9480 ha        1 6T6      0.128000
     39 H19        -0.7320   -0.1700   -2.5350 ha        1 6T6      0.148000
     40 H16        -0.9820   -4.6380   -0.3230 ha        1 6T6      0.148000
     41 H17        -1.7360   -4.3670   -2.6840 ha        1 6T6      0.150000
     42 H21        -0.9080   -3.9530   -4.8560 ha        1 6T6      0.146000
     43 H25        -2.6780   -0.1310   -3.7700 h4        1 6T6      0.010100
     44 H22        -1.7150   -3.5450   -7.2070 ha        1 6T6      0.155000
     45 H23        -2.9660   -1.4040   -7.7140 h4        1 6T6      0.033100
     46 H73        -0.9240    3.8450   -0.3180 hn        1 6T6      0.457133
@<TRIPOS>BOND
     1    1    2 1   
     2    1   26 1   
     3    1   27 1   
     4    1   28 1   
     5    2    3 1   
     6    2    6 1   
     7    2   14 1   
     8    3    4 1   
     9    3   29 1   
    10    4    5 2   
    11    4    8 1   
    12    5    6 1   
    13    5    7 1   
    14    6   30 1   
    15    7   31 1   
    16    7   32 1   
    17    7   46 1   
    18    8    9 ar  
    19    8   13 ar  
    20    9   10 ar  
    21    9   33 1   
    22   10   11 ar  
    23   10   35 1   
    24   11   12 ar  
    25   11   36 1   
    26   12   13 ar  
    27   12   37 1   
    28   13   34 1   
    29   14   15 ar  
    30   14   19 ar  
    31   15   16 ar  
    32   15   38 1   
    33   16   17 ar  
    34   16   40 1   
    35   17   18 ar  
    36   17   41 1   
    37   18   19 ar  
    38   18   20 1   
    39   19   39 1   
    40   20   21 ar  
    41   20   25 ar  
    42   21   22 ar  
    43   21   42 1   
    44   22   23 ar  
    45   22   44 1   
    46   23   24 ar  
    47   23   45 1   
    48   24   25 ar  
    49   25   43 1   
@<TRIPOS>SUBSTRUCTURE
     1 6T6         1 TEMP              0 ****  ****    0 ROOT
