@<TRIPOS>MOLECULE
6T6
   46    49     1     0     0
SMALL
bcc


@<TRIPOS>ATOM
      1 C1          1.1420    0.0920   -0.3660 c3        1 6T6     -0.081100
      2 C2         -0.3880    0.0880   -0.1410 c3        1 6T6      0.507700
      3 N3         -0.6700    0.1390    1.3340 nh        1 6T6     -0.728000
      4 C4         -1.3740    1.2780    1.6300 ce        1 6T6      0.287800
      5 C5         -1.5650    2.0160    0.4550 c2        1 6T6     -0.202000
      6 N6         -0.9910    1.3660   -0.7090 nh        1 6T6     -0.629000
      7 N7         -2.0950    3.3530    0.3800 n4        1 6T6     -0.639400
      8 C8         -1.8220    1.6570    2.9660 ca        1 6T6     -0.131800
      9 C9         -2.6810    0.8150    3.6840 ca        1 6T6     -0.113500
     10 C10        -3.1170    1.1900    4.9550 ca        1 6T6     -0.114000
     11 C11        -2.6880    2.3930    5.5160 ca        1 6T6     -0.087000
     12 C12        -1.8200    3.2260    4.8060 ca        1 6T6     -0.114000
     13 C13        -1.3850    2.8620    3.5340 ca        1 6T6     -0.113500
     14 C14        -0.9610   -1.1440   -0.8340 ca        1 6T6     -0.149300
     15 C15        -1.5220   -2.2240   -0.1490 ca        1 6T6     -0.120000
     16 C16        -2.0030   -3.3260   -0.8580 ca        1 6T6     -0.116000
     17 C17        -1.9340   -3.3610   -2.2470 ca        1 6T6     -0.098000
     18 C18        -1.3720   -2.2840   -2.9490 cp        1 6T6     -0.008000
     19 C19        -0.8850   -1.1820   -2.2330 ca        1 6T6     -0.116000
     20 C20        -1.2930   -2.3060   -4.4040 cp        1 6T6     -0.178300
     21 C21        -0.9830   -3.4820   -5.1060 ca        1 6T6     -0.073000
     22 C22        -0.9190   -3.4450   -6.4980 ca        1 6T6     -0.237300
     23 C23        -1.1720   -2.2240   -7.1530 ca        1 6T6      0.411200
     24 N24        -1.4740   -1.0850   -6.5010 nb        1 6T6     -0.658000
     25 C25        -1.5300   -1.1340   -5.1580 ca        1 6T6      0.406200
     26 H11C        1.3510    0.1170   -1.4620 hc        1 6T6      0.065033
     27 H12C        1.5780   -0.8400    0.0660 hc        1 6T6      0.065033
     28 H13C        1.6200    0.9790    0.1130 hc        1 6T6      0.065033
     29 H3         -0.6640   -0.6730    1.8990 hn        1 6T6      0.471800
     30 H6         -1.7220    1.1340   -1.3650 hn        1 6T6      0.369800
     31 H71N       -2.3540    3.6540    1.3280 hn        1 6T6      0.457467
     32 H72N       -1.3870    3.9910   -0.0060 hn        1 6T6      0.457467
     33 H9         -3.0190   -0.1380    3.2470 ha        1 6T6      0.140000
     34 H13        -0.6610    3.4980    3.0010 ha        1 6T6      0.140000
     35 H10        -3.7950    0.5290    5.5180 ha        1 6T6      0.159500
     36 H11        -3.0280    2.6840    6.5240 ha        1 6T6      0.162000
     37 H12        -1.4670    4.1670    5.2590 ha        1 6T6      0.159500
     38 H15        -1.5980   -2.2520    0.9470 ha        1 6T6      0.124000
     39 H19        -0.4180   -0.3520   -2.7880 ha        1 6T6      0.148000
     40 H16        -2.4410   -4.1760   -0.3110 ha        1 6T6      0.150000
     41 H17        -2.3220   -4.2320   -2.7990 ha        1 6T6      0.153000
     42 H21        -0.7840   -4.4180   -4.5620 ha        1 6T6      0.145000
     43 H25        -1.7890   -0.1850   -4.6560 h4        1 6T6      0.013100
     44 H22        -0.6770   -4.3460   -7.0770 ha        1 6T6      0.156000
     45 H23        -1.1310   -2.1510   -8.2550 h4        1 6T6      0.035100
     46 H73        -2.9220    3.3660   -0.2270 hn        1 6T6      0.457467
@<TRIPOS>BOND
     1    1    2 1   
     2    1   26 1   
     3    1   27 1   
     4    1   28 1   
     5    2    3 1   
     6    2    6 1   
     7    2   14 1   
     8    3    4 1   
     9    3   29 1   
    10    4    5 2   
    11    4    8 1   
    12    5    6 1   
    13    5    7 1   
    14    6   30 1   
    15    7   31 1   
    16    7   32 1   
    17    7   46 1   
    18    8    9 ar  
    19    8   13 ar  
    20    9   10 ar  
    21    9   33 1   
    22   10   11 ar  
    23   10   35 1   
    24   11   12 ar  
    25   11   36 1   
    26   12   13 ar  
    27   12   37 1   
    28   13   34 1   
    29   14   15 ar  
    30   14   19 ar  
    31   15   16 ar  
    32   15   38 1   
    33   16   17 ar  
    34   16   40 1   
    35   17   18 ar  
    36   17   41 1   
    37   18   19 ar  
    38   18   20 1   
    39   19   39 1   
    40   20   21 ar  
    41   20   25 ar  
    42   21   22 ar  
    43   21   42 1   
    44   22   23 ar  
    45   22   44 1   
    46   23   24 ar  
    47   23   45 1   
    48   24   25 ar  
    49   25   43 1   
@<TRIPOS>SUBSTRUCTURE
     1 6T6         1 TEMP              0 ****  ****    0 ROOT
