@<TRIPOS>MOLECULE
6T6
   45    48     1     0     0
SMALL
bcc


@<TRIPOS>ATOM
      1 C1          0.3970    0.1590    2.6810 c3        1 6T6     -0.059100
      2 C2          0.5660    0.1030    1.1400 c3        1 6T6      0.443700
      3 N3          1.8930    0.7300    0.7790 nh        1 6T6     -0.644000
      4 C4          2.6750   -0.3370    0.2160 ce        1 6T6     -0.070200
      5 C5          1.9520   -1.5200    0.1570 c2        1 6T6      0.190000
      6 N6          0.6320   -1.3480    0.7180 nh        1 6T6     -0.688000
      7 N7          2.3600   -2.7320   -0.4100 nh        1 6T6     -0.787600
      8 C8          4.0560   -0.1310   -0.1820 ca        1 6T6      0.006200
      9 C9          4.4030    0.9420   -1.0160 ca        1 6T6     -0.129500
     10 C10         5.7270    1.1280   -1.4080 ca        1 6T6     -0.124500
     11 C11         6.7190    0.2500   -0.9700 ca        1 6T6     -0.135000
     12 C12         6.3830   -0.8130   -0.1320 ca        1 6T6     -0.124500
     13 C13         5.0610   -1.0020    0.2650 ca        1 6T6     -0.129500
     14 C14        -0.6440    0.8360    0.5600 ca        1 6T6     -0.110300
     15 C15        -0.5930    2.2080    0.2820 ca        1 6T6     -0.119000
     16 C16        -1.7120    2.8670   -0.2240 ca        1 6T6     -0.127000
     17 C17        -2.9020    2.1780   -0.4410 ca        1 6T6     -0.115000
     18 C18        -2.9820    0.8140   -0.1290 cp        1 6T6     -0.032000
     19 C19        -1.8540    0.1560    0.3790 ca        1 6T6     -0.116000
     20 C20        -4.2310    0.0860   -0.3240 cp        1 6T6     -0.154300
     21 C21        -5.4720    0.6690   -0.0280 ca        1 6T6     -0.083000
     22 C22        -6.6360   -0.0710   -0.2310 ca        1 6T6     -0.245300
     23 C23        -6.5240   -1.3810   -0.7300 ca        1 6T6      0.395200
     24 N24        -5.3440   -1.9620   -1.0230 nb        1 6T6     -0.662000
     25 C25        -4.2290   -1.2380   -0.8220 ca        1 6T6      0.405200
     26 H11C        0.3750    1.2260    3.0060 hc        1 6T6      0.048367
     27 H12C       -0.5630   -0.3320    2.9630 hc        1 6T6      0.048367
     28 H13C        1.2400   -0.3610    3.1930 hc        1 6T6      0.048367
     29 H3          1.7890    1.4660    0.1020 hn        1 6T6      0.357800
     30 H6         -0.0810   -1.5930    0.0570 hn        1 6T6      0.378800
     31 H71N        3.3530   -2.7710   -0.5220 hn        1 6T6      0.393800
     32 H72N        1.9980   -3.5380    0.0550 hn        1 6T6      0.393800
     33 H9          3.6270    1.6370   -1.3680 ha        1 6T6      0.129000
     34 H13         4.8080   -1.8240    0.9510 ha        1 6T6      0.129000
     35 H10         5.9900    1.9700   -2.0640 ha        1 6T6      0.130500
     36 H11         7.7630    0.3980   -1.2820 ha        1 6T6      0.131000
     37 H12         7.1640   -1.5010    0.2240 ha        1 6T6      0.130500
     38 H15         0.3130    2.8020    0.4800 ha        1 6T6      0.142000
     39 H19        -1.9580   -0.9030    0.6660 ha        1 6T6      0.143000
     40 H16        -1.6540    3.9420   -0.4500 ha        1 6T6      0.137000
     41 H17        -3.7780    2.7000   -0.8530 ha        1 6T6      0.137000
     42 H21        -5.5220    1.6950    0.3660 ha        1 6T6      0.142000
     43 H25        -3.2770   -1.7390   -1.0790 h4        1 6T6      0.024100
     44 H22        -7.6230    0.3550   -0.0070 ha        1 6T6      0.145000
     45 H23        -7.4210   -2.0020   -0.9040 h4        1 6T6      0.024100
@<TRIPOS>BOND
     1    1    2 1   
     2    1   26 1   
     3    1   27 1   
     4    1   28 1   
     5    2    3 1   
     6    2    6 1   
     7    2   14 1   
     8    3    4 1   
     9    3   29 1   
    10    4    5 2   
    11    4    8 1   
    12    5    6 1   
    13    5    7 1   
    14    6   30 1   
    15    7   31 1   
    16    7   32 1   
    17    8    9 ar  
    18    8   13 ar  
    19    9   10 ar  
    20    9   33 1   
    21   10   11 ar  
    22   10   35 1   
    23   11   12 ar  
    24   11   36 1   
    25   12   13 ar  
    26   12   37 1   
    27   13   34 1   
    28   14   15 ar  
    29   14   19 ar  
    30   15   16 ar  
    31   15   38 1   
    32   16   17 ar  
    33   16   40 1   
    34   17   18 ar  
    35   17   41 1   
    36   18   19 ar  
    37   18   20 1   
    38   19   39 1   
    39   20   21 ar  
    40   20   25 ar  
    41   21   22 ar  
    42   21   42 1   
    43   22   23 ar  
    44   22   44 1   
    45   23   24 ar  
    46   23   45 1   
    47   24   25 ar  
    48   25   43 1   
@<TRIPOS>SUBSTRUCTURE
     1 6T6         1 TEMP              0 ****  ****    0 ROOT
