@<TRIPOS>MOLECULE
6T9
   49    51     1     0     0
SMALL
bcc


@<TRIPOS>ATOM
      1 C1         -0.0210    0.1930   -0.1720 c3        1 6T9      0.076400
      2 C2          1.5370    0.1020   -0.0870 c3        1 6T9      0.366600
      3 O3         -0.5270    1.3120    0.5730 os        1 6T9     -0.429400
      4 C4          0.1520    1.5300    1.7660 c2        1 6T9      0.650500
      5 N5          1.2480    1.0340    2.2250 n2        1 6T9     -0.551900
      6 C6          1.9730    0.0120    1.4570 c3        1 6T9      0.188500
      7 C7          3.4770    0.1970    1.5840 ca        1 6T9     -0.115300
      8 C8          4.0230    1.2750    2.2850 ca        1 6T9     -0.146000
      9 C9          5.4210    1.4460    2.4300 ca        1 6T9      0.077600
     10 C10         6.2820    0.4920    1.8390 ca        1 6T9     -0.106000
     11 C11         5.7530   -0.5800    1.1430 ca        1 6T9     -0.125000
     12 C12         4.3610   -0.7440    1.0060 ca        1 6T9      0.114900
     13 F13         3.9100   -1.8100    0.3040 f         1 6T9     -0.130900
     14 N14        -0.6120    2.5640    2.5110 nz        1 6T9     -0.788600
     15 C15         1.5850   -1.3800    1.9950 c3        1 6T9     -0.113100
     16 N16         5.8860    2.5650    3.1320 ns        1 6T9     -0.461100
     17 C17         7.1800    2.7640    3.6060 c         1 6T9      0.591600
     18 C18         7.4630    4.0300    4.3690 ca        1 6T9      0.296800
     19 O19         8.0950    1.9450    3.4070 o         1 6T9     -0.581100
     20 N20         6.4560    4.8440    4.7700 nb        1 6T9     -0.640000
     21 C21         6.7740    5.9500    5.4550 ca        1 6T9      0.315200
     22 C22         8.1100    6.3010    5.7740 ca        1 6T9      0.057800
     23 C23         9.1530    5.4520    5.3560 ca        1 6T9     -0.136000
     24 C24         8.8230    4.3030    4.6470 ca        1 6T9     -0.139300
     25 O25         8.4870    7.4180    6.4690 os        1 6T9     -0.308900
     26 F26         1.9730   -0.9690   -0.8240 f         1 6T9     -0.193300
     27 F27         2.1190    1.1790   -0.7170 f         1 6T9     -0.193300
     28 C28         7.4250    8.2860    6.9060 c3        1 6T9      0.126400
     29 C29         8.1010    9.4200    7.6390 c3        1 6T9     -0.103100
     30 H11C       -0.4850   -0.7480    0.2170 h1        1 6T9      0.119200
     31 H12C       -0.3520    0.4100   -1.2240 h1        1 6T9      0.119200
     32 H141       -1.5900    2.2550    2.5830 hn        1 6T9      0.487133
     33 H142       -0.2140    2.7070    3.4490 hn        1 6T9      0.487133
     34 H151        1.9970   -2.1650    1.3120 hc        1 6T9      0.078033
     35 H152        0.4770   -1.5030    2.0510 hc        1 6T9      0.078033
     36 H153        2.0220   -1.5280    3.0130 hc        1 6T9      0.078033
     37 H8          3.3630    2.0220    2.7520 ha        1 6T9      0.130000
     38 H10         7.3800    0.5860    1.9280 ha        1 6T9      0.195000
     39 H16         5.1930    3.2360    3.3810 hn        1 6T9      0.334500
     40 H11         6.4210   -1.3250    0.6800 ha        1 6T9      0.170000
     41 H24         9.6010    3.6020    4.3030 ha        1 6T9      0.180000
     42 H21         5.9230    6.5820    5.7630 h4        1 6T9      0.029100
     43 H23        10.1980    5.7040    5.5930 ha        1 6T9      0.172000
     44 H281        6.7370    7.7130    7.5810 h1        1 6T9      0.041700
     45 H282        6.8600    8.6550    6.0100 h1        1 6T9      0.041700
     46 H291        8.8040    9.9610    6.9610 hc        1 6T9      0.058033
     47 H292        7.3220   10.1310    8.0050 hc        1 6T9      0.058033
     48 H293        8.6820    9.0330    8.5100 hc        1 6T9      0.058033
     49 H143       -0.5720    3.4400    1.9730 hn        1 6T9      0.487133
@<TRIPOS>BOND
     1    1    2 1   
     2    1    3 1   
     3    1   30 1   
     4    1   31 1   
     5    2    6 1   
     6    2   26 1   
     7    2   27 1   
     8    3    4 1   
     9    4    5 2   
    10    4   14 1   
    11    5    6 1   
    12    6    7 1   
    13    6   15 1   
    14    7    8 ar  
    15    7   12 ar  
    16    8    9 ar  
    17    8   37 1   
    18    9   10 ar  
    19    9   16 1   
    20   10   11 ar  
    21   10   38 1   
    22   11   12 ar  
    23   11   40 1   
    24   12   13 1   
    25   14   32 1   
    26   14   33 1   
    27   14   49 1   
    28   15   34 1   
    29   15   35 1   
    30   15   36 1   
    31   16   17 1   
    32   16   39 1   
    33   17   18 1   
    34   17   19 2   
    35   18   20 ar  
    36   18   24 ar  
    37   20   21 ar  
    38   21   22 ar  
    39   21   42 1   
    40   22   23 ar  
    41   22   25 1   
    42   23   24 ar  
    43   23   43 1   
    44   24   41 1   
    45   25   28 1   
    46   28   29 1   
    47   28   44 1   
    48   28   45 1   
    49   29   46 1   
    50   29   47 1   
    51   29   48 1   
@<TRIPOS>SUBSTRUCTURE
     1 6T9         1 TEMP              0 ****  ****    0 ROOT
