@<TRIPOS>MOLECULE
6T9
   48    45     1     0     0
SMALL
bcc


@<TRIPOS>ATOM
      1 C1         -4.2850   -0.2740    4.7300 c3        1 6T9     -0.062000
      2 C2         -3.4580    0.3660    4.3070 c3        1 6T9      0.205000
      3 O3         -4.4110   -1.6010    4.1330 os        1 6T9     -0.247000
      4 C4         -4.4670   -1.6660    2.7800 c2        1 6T9      0.216000
      5 N5         -3.6620   -0.5200    2.0230 n1        1 6T9     -0.305000
      6 C6         -3.5240    0.6120    2.7110 c2        1 6T9      0.073000
      7 C7         -2.2000    1.0300    2.3860 c2        1 6T9     -0.073000
      8 C8         -1.6330    0.6710    1.1600 c1        1 6T9     -0.121000
      9 C9         -0.2960    1.0200    0.8720 c1        1 6T9      0.053000
     10 C10         0.4610    1.7270    1.8170 c1        1 6T9     -0.122000
     11 C11        -0.1100    2.0860    3.0460 c1        1 6T9     -0.148000
     12 C12        -1.4390    1.7390    3.3320 c2        1 6T9      0.073000
     13 F13        -2.0470    2.2250    4.4880 f         1 6T9     -0.101000
     14 N14        -4.6940   -2.9160    2.1410 n3        1 6T9     -0.313000
     15 C15        -4.3760    1.7820    2.2540 c3        1 6T9     -0.224000
     16 N16         0.2580    0.7510   -0.4440 n         1 6T9     -0.302000
     17 C17         1.5840    0.3140   -0.5690 c2        1 6T9      0.369000
     18 C18         2.1900    0.0570   -1.9870 c2        1 6T9     -0.112000
     19 O19         2.2710    0.1580    0.4260 o         1 6T9     -0.364000
     20 N20         3.2810    0.8470   -2.1400 n2        1 6T9     -0.107000
     21 C21         4.1220    0.6610   -3.2190 c1        1 6T9     -0.093000
     22 C22         3.8460   -0.3420   -4.1520 c1        1 6T9      0.061000
     23 C23         2.7610   -1.1260   -3.9990 c1        1 6T9     -0.189000
     24 C24         1.9190   -0.9420   -2.9200 c1        1 6T9     -0.077000
     25 O25         4.6340   -0.4490   -5.3290 os        1 6T9     -0.201000
     26 F26        -2.3140   -0.2020    4.5900 f         1 6T9     -0.150500
     27 F27        -3.5000    1.5770    4.9270 f         1 6T9     -0.150500
     28 C28         5.7070   -1.3650   -5.2210 c3        1 6T9     -0.024000
     29 C29         6.4240   -1.4400   -6.5240 c3        1 6T9     -0.219000
     30 H11C       -4.1290   -0.3810    5.6560 h1        1 6T9      0.125500
     31 H12C       -5.1710    0.2220    4.6060 h1        1 6T9      0.125500
     32 H141       -5.0520   -3.5760    2.5900 hn        1 6T9      0.216500
     33 H142       -4.4990   -3.0200    1.2370 hn        1 6T9      0.216500
     34 H151       -4.1080    2.5910    2.7400 hc        1 6T9      0.097667
     35 H152       -4.2510    1.9270    1.2710 hc        1 6T9      0.097667
     36 H153       -5.2740    1.5980    2.4290 hc        1 6T9      0.097667
     37 H8         -2.1690    0.1710    0.4940 ha        1 6T9      0.156000
     38 H10         1.4380    1.9830    1.6080 ha        1 6T9      0.178000
     39 H16        -0.2510    0.9060   -1.1990 hn        1 6T9      0.252000
     40 H11         0.3950    2.5580    3.6770 ha        1 6T9      0.151000
     41 H24         1.1170   -1.5220   -2.8110 ha        1 6T9      0.174000
     42 H21         4.9300    1.2450   -3.3330 ha        1 6T9      0.179000
     43 H23         2.5790   -1.7870   -4.6150 ha        1 6T9      0.150000
     44 H281        5.3440   -2.2850   -4.9790 h1        1 6T9      0.082500
     45 H282        6.3170   -1.0670   -4.5340 h1        1 6T9      0.082500
     46 H291        5.7600   -1.6140   -7.2620 hc        1 6T9      0.092333
     47 H292        6.9010   -0.5570   -6.6970 hc        1 6T9      0.092333
     48 H293        7.0840   -2.1710   -6.4950 hc        1 6T9      0.092333
@<TRIPOS>BOND
     1    1    2 1   
     2    1    3 1   
     3    1   30 1   
     4    1   31 1   
     5    2    6 1   
     6    2   26 1   
     7    2   27 1   
     8    3    4 1   
     9    4    5 1   
    10    4   14 1   
    11    6    7 1   
    12    6   15 1   
    13    7    8 1   
    14    7   12 1   
    15    8   37 1   
    16    9   10 1   
    17    9   16 1   
    18   10   38 1   
    19   11   12 1   
    20   11   40 1   
    21   12   13 1   
    22   14   32 1   
    23   14   33 1   
    24   15   34 1   
    25   15   35 1   
    26   15   36 1   
    27   16   17 1   
    28   16   39 1   
    29   17   18 1   
    30   17   19 1   
    31   18   20 1   
    32   18   24 1   
    33   20   21 1   
    34   21   42 1   
    35   22   23 1   
    36   22   25 1   
    37   23   43 1   
    38   24   41 1   
    39   25   28 1   
    40   28   29 1   
    41   28   44 1   
    42   28   45 1   
    43   29   46 1   
    44   29   47 1   
    45   29   48 1   
@<TRIPOS>SUBSTRUCTURE
     1 6T9         1 TEMP              0 ****  ****    0 ROOT
