@<TRIPOS>MOLECULE
6T9
   50    52     1     0     0
SMALL
bcc


@<TRIPOS>ATOM
      1 C1          0.8950   -1.4460    0.2870 c3        1 6T9      0.083400
      2 C2          2.0370   -0.3990    0.1260 c3        1 6T9      0.366600
      3 O3         -0.1360   -0.9860    1.1770 os        1 6T9     -0.419400
      4 C4          0.3140   -0.1940    2.2210 c2        1 6T9      0.680500
      5 N5          1.4760    0.3200    2.4600 n2        1 6T9     -0.582900
      6 C6          2.6030   -0.0370    1.5870 c3        1 6T9      0.172500
      7 C7          3.6090    1.0990    1.4790 ca        1 6T9     -0.120300
      8 C8          3.3600    2.3600    2.0280 ca        1 6T9     -0.044000
      9 C9          4.3090    3.3930    1.9220 ca        1 6T9     -0.065400
     10 C10         5.5400    3.1800    1.2760 ca        1 6T9     -0.044000
     11 C11         5.7990    1.9360    0.7240 ca        1 6T9     -0.143000
     12 C12         4.8490    0.8960    0.8120 ca        1 6T9      0.211900
     13 F13         5.1570   -0.2830    0.2390 f         1 6T9     -0.088900
     14 N14        -0.8590    0.0560    3.0960 n4        1 6T9     -0.790600
     15 C15         3.3080   -1.2850    2.1610 c3        1 6T9     -0.119100
     16 N16         4.0090    4.7120    2.4830 n4        1 6T9     -0.536200
     17 C17         4.0280    4.6940    4.0110 c         1 6T9      0.497600
     18 C18         5.2360    5.1790    4.6760 ca        1 6T9      0.218800
     19 O19         2.9910    4.2820    4.5190 o         1 6T9     -0.470100
     20 N20         6.3120    5.5790    3.9330 nb        1 6T9     -0.634000
     21 C21         7.3860    6.0240    4.5720 ca        1 6T9      0.332200
     22 C22         7.4640    6.1020    6.0030 ca        1 6T9      0.132800
     23 C23         6.3490    5.6830    6.7620 ca        1 6T9     -0.157000
     24 C24         5.2240    5.2180    6.0930 ca        1 6T9     -0.085300
     25 O25         8.5310    6.5480    6.6970 os        1 6T9     -0.281900
     26 F26         3.0110   -0.8830   -0.7080 f         1 6T9     -0.192800
     27 F27         1.5940    0.7300   -0.5280 f         1 6T9     -0.192800
     28 C28         9.6810    7.0080    5.9410 c3        1 6T9      0.125400
     29 C29        10.6820    7.4550    6.9790 c3        1 6T9     -0.109100
     30 H11C        1.3070   -2.4130    0.6780 h1        1 6T9      0.133200
     31 H12C        0.3480   -1.5990   -0.6860 h1        1 6T9      0.133200
     32 H141       -0.6020    0.6370    3.9050 hn        1 6T9      0.495133
     33 H142       -1.5880    0.5250    2.5390 hn        1 6T9      0.495133
     34 H151        3.9420   -0.9970    3.0350 hc        1 6T9      0.084033
     35 H152        3.9610   -1.7420    1.3750 hc        1 6T9      0.084033
     36 H153        2.5710   -2.0560    2.4920 hc        1 6T9      0.084033
     37 H8          2.4190    2.5640    2.5670 ha        1 6T9      0.166000
     38 H10         6.3010    3.9770    1.2020 ha        1 6T9      0.182000
     39 H16         4.6930    5.3950    2.1270 hn        1 6T9      0.471800
     40 H11         6.7540    1.7430    0.2010 ha        1 6T9      0.200000
     41 H24         4.3320    4.8870    6.6500 ha        1 6T9      0.179000
     42 H21         8.2350    6.3430    3.9380 h4        1 6T9      0.058100
     43 H23         6.3850    5.7340    7.8630 ha        1 6T9      0.196000
     44 H281       10.0690    6.1550    5.3270 h1        1 6T9      0.055700
     45 H282        9.3600    7.8550    5.2810 h1        1 6T9      0.055700
     46 H291       11.5970    7.8240    6.4560 hc        1 6T9      0.071367
     47 H292       10.2610    8.2780    7.6050 hc        1 6T9      0.071367
     48 H293       10.9600    6.6070    7.6500 hc        1 6T9      0.071367
     49 H143       -1.2190   -0.8560    3.4180 hn        1 6T9      0.495133
     50 H162        3.0700    4.9930    2.1720 hn        1 6T9      0.471800
@<TRIPOS>BOND
     1    1    2 1   
     2    1    3 1   
     3    1   30 1   
     4    1   31 1   
     5    2    6 1   
     6    2   26 1   
     7    2   27 1   
     8    3    4 1   
     9    4    5 2   
    10    4   14 1   
    11    5    6 1   
    12    6    7 1   
    13    6   15 1   
    14    7    8 ar  
    15    7   12 ar  
    16    8    9 ar  
    17    8   37 1   
    18    9   10 ar  
    19    9   16 1   
    20   10   11 ar  
    21   10   38 1   
    22   11   12 ar  
    23   11   40 1   
    24   12   13 1   
    25   14   32 1   
    26   14   33 1   
    27   14   49 1   
    28   15   34 1   
    29   15   35 1   
    30   15   36 1   
    31   16   17 1   
    32   16   39 1   
    33   16   50 1   
    34   17   18 1   
    35   17   19 2   
    36   18   20 ar  
    37   18   24 ar  
    38   20   21 ar  
    39   21   22 ar  
    40   21   42 1   
    41   22   23 ar  
    42   22   25 1   
    43   23   24 ar  
    44   23   43 1   
    45   24   41 1   
    46   25   28 1   
    47   28   29 1   
    48   28   44 1   
    49   28   45 1   
    50   29   46 1   
    51   29   47 1   
    52   29   48 1   
@<TRIPOS>SUBSTRUCTURE
     1 6T9         1 TEMP              0 ****  ****    0 ROOT
