@<TRIPOS>MOLECULE
6T9
   48    50     1     0     0
SMALL
bcc


@<TRIPOS>ATOM
      1 C1         -5.4240    1.6810   -0.5670 c3        1 6T9      0.088400
      2 C2         -4.5540    0.3900   -0.6470 c3        1 6T9      0.347600
      3 O3         -4.6150    2.8470   -0.5350 os        1 6T9     -0.452400
      4 C4         -3.5100    2.7690    0.3370 c2        1 6T9      0.789500
      5 N5         -2.9690    1.6810    0.8200 n2        1 6T9     -0.718900
      6 C6         -3.5750    0.3730    0.6180 c3        1 6T9      0.205500
      7 C7         -2.5060   -0.6970    0.4170 ca        1 6T9     -0.080300
      8 C8         -1.1530   -0.3570    0.3690 ca        1 6T9     -0.122000
      9 C9         -0.1360   -1.3310    0.2120 ca        1 6T9      0.045600
     10 C10        -0.5060   -2.6850    0.0950 ca        1 6T9     -0.123000
     11 C11        -1.8460   -3.0370    0.1360 ca        1 6T9     -0.148000
     12 C12        -2.8500   -2.0660    0.2980 ca        1 6T9      0.107900
     13 F13        -4.1380   -2.4880    0.3270 f         1 6T9     -0.135900
     14 N14        -3.0740    4.0680    0.6240 nh        1 6T9     -0.874800
     15 C15        -4.4120   -0.0050    1.8590 c3        1 6T9     -0.106100
     16 N16         1.2000   -0.8920    0.2040 n         1 6T9     -0.448100
     17 C17         2.3100   -1.6330   -0.1560 c         1 6T9      0.584600
     18 C18         3.6530   -0.9400   -0.1410 ca        1 6T9      0.309800
     19 O19         2.2600   -2.8410   -0.4610 o         1 6T9     -0.600100
     20 N20         3.7390    0.4110   -0.1250 nb        1 6T9     -0.629000
     21 C21         4.9590    0.9670   -0.1320 ca        1 6T9      0.319200
     22 C22         6.1510    0.2030   -0.1520 ca        1 6T9      0.040800
     23 C23         6.0580   -1.2020   -0.1690 ca        1 6T9     -0.138000
     24 C24         4.7920   -1.7770   -0.1660 ca        1 6T9     -0.151300
     25 O25         7.4200    0.7220   -0.1560 os        1 6T9     -0.317900
     26 F26        -5.3700   -0.7160   -0.7250 f         1 6T9     -0.221300
     27 F27        -3.8680    0.3320   -1.8410 f         1 6T9     -0.221300
     28 C28         7.5140    2.1570   -0.1510 c3        1 6T9      0.126400
     29 C29         8.9910    2.4730   -0.1650 c3        1 6T9     -0.101100
     30 H11C       -6.0430    1.7970   -1.4950 h1        1 6T9      0.086200
     31 H12C       -6.0730    1.6360    0.3450 h1        1 6T9      0.086200
     32 H141       -3.3550    4.7440   -0.0520 hn        1 6T9      0.420800
     33 H142       -2.1250    4.1390    0.9200 hn        1 6T9      0.420800
     34 H151       -4.9980   -0.9330    1.6550 hc        1 6T9      0.058033
     35 H152       -3.7330   -0.1860    2.7260 hc        1 6T9      0.058033
     36 H153       -5.1210    0.8140    2.1270 hc        1 6T9      0.058033
     37 H8         -0.8560    0.7010    0.4620 ha        1 6T9      0.155000
     38 H10         0.2530   -3.4740   -0.0340 ha        1 6T9      0.178000
     39 H16         1.3250    0.0830    0.3790 hn        1 6T9      0.337500
     40 H11        -2.1410   -4.0940    0.0400 ha        1 6T9      0.152000
     41 H24         4.6610   -2.8710   -0.1910 ha        1 6T9      0.176000
     42 H21         4.9770    2.0700   -0.1210 h4        1 6T9      0.029100
     43 H23         6.9700   -1.8150   -0.1870 ha        1 6T9      0.162000
     44 H281        7.0000    2.5640   -1.0610 h1        1 6T9      0.042700
     45 H282        7.0200    2.5560    0.7740 h1        1 6T9      0.042700
     46 H291        9.1260    3.5810   -0.1610 hc        1 6T9      0.053033
     47 H292        9.4930    2.0390    0.7330 hc        1 6T9      0.053033
     48 H293        9.4730    2.0470   -1.0770 hc        1 6T9      0.053033
@<TRIPOS>BOND
     1    1    2 1   
     2    1    3 1   
     3    1   30 1   
     4    1   31 1   
     5    2    6 1   
     6    2   26 1   
     7    2   27 1   
     8    3    4 1   
     9    4    5 2   
    10    4   14 1   
    11    5    6 1   
    12    6    7 1   
    13    6   15 1   
    14    7    8 ar  
    15    7   12 ar  
    16    8    9 ar  
    17    8   37 1   
    18    9   10 ar  
    19    9   16 1   
    20   10   11 ar  
    21   10   38 1   
    22   11   12 ar  
    23   11   40 1   
    24   12   13 1   
    25   14   32 1   
    26   14   33 1   
    27   15   34 1   
    28   15   35 1   
    29   15   36 1   
    30   16   17 1   
    31   16   39 1   
    32   17   18 1   
    33   17   19 2   
    34   18   20 ar  
    35   18   24 ar  
    36   20   21 ar  
    37   21   22 ar  
    38   21   42 1   
    39   22   23 ar  
    40   22   25 1   
    41   23   24 ar  
    42   23   43 1   
    43   24   41 1   
    44   25   28 1   
    45   28   29 1   
    46   28   44 1   
    47   28   45 1   
    48   29   46 1   
    49   29   47 1   
    50   29   48 1   
@<TRIPOS>SUBSTRUCTURE
     1 6T9         1 TEMP              0 ****  ****    0 ROOT
