@<TRIPOS>MOLECULE
6T9
   49    51     1     0     0
SMALL
bcc


@<TRIPOS>ATOM
      1 C1         -0.0250    0.1910   -0.1630 c3        1 6T9      0.076400
      2 C2          1.5330    0.1060   -0.0850 c3        1 6T9      0.366600
      3 O3         -0.5330    1.3050    0.5900 os        1 6T9     -0.429400
      4 C4          0.1500    1.5180    1.7820 c2        1 6T9      0.650500
      5 N5          1.2500    1.0250    2.2330 n2        1 6T9     -0.551900
      6 C6          1.9760    0.0090    1.4560 c3        1 6T9      0.188500
      7 C7          3.4790    0.1990    1.5780 ca        1 6T9     -0.115300
      8 C8          4.0250    1.2760    2.2820 ca        1 6T9     -0.146000
      9 C9          5.4220    1.4520    2.4220 ca        1 6T9      0.077600
     10 C10         6.2840    0.5030    1.8240 ca        1 6T9     -0.106000
     11 C11         5.7560   -0.5680    1.1250 ca        1 6T9     -0.125000
     12 C12         4.3640   -0.7360    0.9930 ca        1 6T9      0.114900
     13 F13         3.9140   -1.8010    0.2880 f         1 6T9     -0.130900
     14 N14        -0.6150    2.5450    2.5340 n4        1 6T9     -0.788600
     15 C15         1.5950   -1.3870    1.9900 c3        1 6T9     -0.113100
     16 N16         5.8860    2.5700    3.1260 n         1 6T9     -0.461100
     17 C17         7.1810    2.7700    3.5990 c         1 6T9      0.591600
     18 C18         7.4630    4.0350    4.3640 ca        1 6T9      0.296800
     19 O19         8.0960    1.9520    3.3950 o         1 6T9     -0.581100
     20 N20         6.4560    4.8480    4.7660 nb        1 6T9     -0.640000
     21 C21         6.7730    5.9520    5.4530 ca        1 6T9      0.315200
     22 C22         8.1100    6.3030    5.7730 ca        1 6T9      0.057800
     23 C23         9.1530    5.4550    5.3540 ca        1 6T9     -0.136000
     24 C24         8.8230    4.3080    4.6420 ca        1 6T9     -0.139300
     25 O25         8.4860    7.4190    6.4690 os        1 6T9     -0.308900
     26 F26         1.9700   -0.9590   -0.8300 f         1 6T9     -0.193300
     27 F27         2.1080    1.1880   -0.7110 f         1 6T9     -0.193300
     28 C28         7.4240    8.2870    6.9070 c3        1 6T9      0.126400
     29 C29         8.0990    9.4200    7.6420 c3        1 6T9     -0.103100
     30 H11C       -0.3620    0.4130   -1.2130 h1        1 6T9      0.119200
     31 H12C       -0.4850   -0.7540    0.2230 h1        1 6T9      0.119200
     32 H141       -1.5910    2.2320    2.6090 hn        1 6T9      0.487133
     33 H142       -0.5810    3.4250    2.0010 hn        1 6T9      0.487133
     34 H151        0.4880   -1.5140    2.0500 hc        1 6T9      0.078033
     35 H152        2.0370   -1.5390    3.0040 hc        1 6T9      0.078033
     36 H153        2.0060   -2.1660    1.3000 hc        1 6T9      0.078033
     37 H8          3.3630    2.0190    2.7550 ha        1 6T9      0.130000
     38 H10         7.3820    0.6010    1.9080 ha        1 6T9      0.195000
     39 H16         5.1920    3.2390    3.3790 hn        1 6T9      0.334500
     40 H11         6.4250   -1.3080    0.6570 ha        1 6T9      0.170000
     41 H24         9.6010    3.6070    4.2970 ha        1 6T9      0.180000
     42 H21         5.9230    6.5830    5.7620 h4        1 6T9      0.029100
     43 H23        10.1970    5.7070    5.5910 ha        1 6T9      0.172000
     44 H281        6.8590    8.6570    6.0110 h1        1 6T9      0.041700
     45 H282        6.7350    7.7140    7.5810 h1        1 6T9      0.041700
     46 H291        7.3200   10.1310    8.0070 hc        1 6T9      0.058033
     47 H292        8.6790    9.0320    8.5130 hc        1 6T9      0.058033
     48 H293        8.8030    9.9620    6.9650 hc        1 6T9      0.058033
     49 H143       -0.2130    2.6860    3.4710 hn        1 6T9      0.487133
@<TRIPOS>BOND
     1    1    2 1   
     2    1    3 1   
     3    1   30 1   
     4    1   31 1   
     5    2    6 1   
     6    2   26 1   
     7    2   27 1   
     8    3    4 1   
     9    4    5 2   
    10    4   14 1   
    11    5    6 1   
    12    6    7 1   
    13    6   15 1   
    14    7    8 ar  
    15    7   12 ar  
    16    8    9 ar  
    17    8   37 1   
    18    9   10 ar  
    19    9   16 1   
    20   10   11 ar  
    21   10   38 1   
    22   11   12 ar  
    23   11   40 1   
    24   12   13 1   
    25   14   32 1   
    26   14   33 1   
    27   14   49 1   
    28   15   34 1   
    29   15   35 1   
    30   15   36 1   
    31   16   17 1   
    32   16   39 1   
    33   17   18 1   
    34   17   19 2   
    35   18   20 ar  
    36   18   24 ar  
    37   20   21 ar  
    38   21   22 ar  
    39   21   42 1   
    40   22   23 ar  
    41   22   25 1   
    42   23   24 ar  
    43   23   43 1   
    44   24   41 1   
    45   25   28 1   
    46   28   29 1   
    47   28   44 1   
    48   28   45 1   
    49   29   46 1   
    50   29   47 1   
    51   29   48 1   
@<TRIPOS>SUBSTRUCTURE
     1 6T9         1 TEMP              0 ****  ****    0 ROOT
