@<TRIPOS>MOLECULE
6TG
   53    56     1     0     0
SMALL
bcc


@<TRIPOS>ATOM
      1 C1          0.0800   -0.8240   -0.1360 c3        1 6TG     -0.059800
      2 C2          1.4930   -0.3860   -0.0610 ca        1 6TG     -0.077300
      3 C3          2.1580   -0.3720    1.1700 ca        1 6TG     -0.103000
      4 C4          3.4940    0.0240    1.2450 ca        1 6TG     -0.109300
      5 C5          4.1740    0.4230    0.0890 ca        1 6TG     -0.103000
      6 C6          3.5360    0.4140   -1.1540 ca        1 6TG     -0.077300
      7 C7          2.1910    0.0020   -1.2200 ca        1 6TG      0.120100
      8 O8          1.5620   -0.1350   -2.4490 os        1 6TG     -0.341900
      9 C9          1.0730    1.0950   -2.9910 c3        1 6TG      0.113700
     10 C10         4.2740    0.8310   -2.3680 c3        1 6TG     -0.059800
     11 C11         4.2540    0.0640    2.5650 c3        1 6TG      0.386000
     12 N12         3.4740   -0.5530    3.7100 n2        1 6TG     -0.470900
     13 C13         4.1340   -1.5820    4.1510 ce        1 6TG      0.329000
     14 C14         5.4150   -1.7270    3.3190 ce        1 6TG      0.289900
     15 N15         5.5150   -0.7890    2.4110 n2        1 6TG     -0.458900
     16 N16         6.3690   -2.8060    3.5420 n4        1 6TG     -0.766600
     17 C17         3.8120   -2.5080    5.2530 c3        1 6TG     -0.152400
     18 C18         4.6050    1.5120    2.8910 ca        1 6TG     -0.094300
     19 C19         3.6370    2.3190    3.5030 ca        1 6TG     -0.088000
     20 C20         3.9270    3.6530    3.7860 ca        1 6TG     -0.120000
     21 C21         5.1690    4.1920    3.4590 ca        1 6TG     -0.093000
     22 C22         6.1360    3.3960    2.8300 cp        1 6TG     -0.022000
     23 C23         5.8450    2.0540    2.5420 ca        1 6TG     -0.109000
     24 C24         7.4310    3.9510    2.4740 cp        1 6TG     -0.289600
     25 C25         8.1090    4.8680    3.3150 ca        1 6TG      0.438700
     26 N26         9.3110    5.3860    2.9980 nb        1 6TG     -0.682000
     27 C27         9.8470    4.9800    1.8150 ca        1 6TG      0.641900
     28 N28         9.2900    4.1100    0.9280 nb        1 6TG     -0.682000
     29 C29         8.0870    3.6090    1.2670 ca        1 6TG      0.438700
     30 H11C       -0.4750   -0.5510    0.7950 hc        1 6TG      0.057867
     31 H12C        0.0340   -1.9350   -0.2650 hc        1 6TG      0.057867
     32 H13C       -0.4320   -0.3540   -1.0130 hc        1 6TG      0.057867
     33 H3          1.5870   -0.6630    2.0660 ha        1 6TG      0.145500
     34 H5          5.2210    0.7610    0.1500 ha        1 6TG      0.145500
     35 H101        4.2130    1.9420   -2.4920 hc        1 6TG      0.057867
     36 H102        3.8380    0.3490   -3.2790 hc        1 6TG      0.057867
     37 H103        5.3530    0.5450   -2.2970 hc        1 6TG      0.057867
     38 H91C        0.6370    0.7900   -3.9750 h1        1 6TG      0.049033
     39 H92C        0.2880    1.5250   -2.3230 h1        1 6TG      0.049033
     40 H93C        1.9100    1.8210   -3.1310 h1        1 6TG      0.049033
     41 H171        4.5930   -2.4420    6.0510 hc        1 6TG      0.081367
     42 H172        3.7510   -3.5580    4.8690 hc        1 6TG      0.081367
     43 H173        2.8230   -2.2540    5.7190 hc        1 6TG      0.081367
     44 H161        6.2310   -3.5370    2.8310 hn        1 6TG      0.477800
     45 H162        6.1960   -3.1980    4.4770 hn        1 6TG      0.477800
     46 H19         2.6410    1.9200    3.7540 ha        1 6TG      0.158000
     47 H23         6.6120    1.4540    2.0300 ha        1 6TG      0.140000
     48 H20         3.1640    4.2850    4.2670 ha        1 6TG      0.154000
     49 H21         5.3870    5.2490    3.6820 ha        1 6TG      0.153000
     50 H25         7.6710    5.1930    4.2770 h4        1 6TG      0.031100
     51 H29         7.6230    2.9160    0.5410 h4        1 6TG      0.031100
     52 H27        10.8380    5.4040    1.5440 h5        1 6TG      0.068100
     53 H163        7.3360   -2.4600    3.4840 hn        1 6TG      0.477800
@<TRIPOS>BOND
     1    1    2 1   
     2    1   30 1   
     3    1   31 1   
     4    1   32 1   
     5    2    3 ar  
     6    2    7 ar  
     7    3    4 ar  
     8    3   33 1   
     9    4    5 ar  
    10    4   11 1   
    11    5    6 ar  
    12    5   34 1   
    13    6    7 ar  
    14    6   10 1   
    15    7    8 1   
    16    8    9 1   
    17    9   38 1   
    18    9   39 1   
    19    9   40 1   
    20   10   35 1   
    21   10   36 1   
    22   10   37 1   
    23   11   12 1   
    24   11   15 1   
    25   11   18 1   
    26   12   13 2   
    27   13   14 1   
    28   13   17 1   
    29   14   15 2   
    30   14   16 1   
    31   16   44 1   
    32   16   45 1   
    33   16   53 1   
    34   17   41 1   
    35   17   42 1   
    36   17   43 1   
    37   18   19 ar  
    38   18   23 ar  
    39   19   20 ar  
    40   19   46 1   
    41   20   21 ar  
    42   20   48 1   
    43   21   22 ar  
    44   21   49 1   
    45   22   23 ar  
    46   22   24 1   
    47   23   47 1   
    48   24   25 ar  
    49   24   29 ar  
    50   25   26 ar  
    51   25   50 1   
    52   26   27 ar  
    53   27   28 ar  
    54   27   52 1   
    55   28   29 ar  
    56   29   51 1   
@<TRIPOS>SUBSTRUCTURE
     1 6TG         1 TEMP              0 ****  ****    0 ROOT
