@<TRIPOS>MOLECULE
6TG
   52    48     1     0     0
SMALL
bcc


@<TRIPOS>ATOM
      1 C1          0.7810   -1.0350   -4.6620 c3        1 6TG     -0.173000
      2 C2          0.0450   -0.8360   -3.3530 c2        1 6TG     -0.079000
      3 C3          0.7500   -0.8040   -2.1600 c2        1 6TG     -0.110000
      4 C4          0.0880   -0.5470   -0.9700 c1        1 6TG     -0.058000
      5 C5         -1.2790   -0.3210   -0.9720 c1        1 6TG     -0.099000
      6 C6         -1.9850   -0.3530   -2.1650 c1        1 6TG     -0.086000
      7 C7         -1.3230   -0.6100   -3.3550 c1        1 6TG      0.046000
      8 O8         -2.0380   -0.6430   -4.5640 os        1 6TG     -0.228000
      9 C9         -2.5260   -1.9220   -4.9050 c3        1 6TG     -0.073000
     10 C10        -3.4620   -0.0270   -2.1770 c3        1 6TG     -0.179000
     11 C11         0.8570   -0.5230    0.3330 c3        1 6TG      0.102000
     12 N12         2.1360   -1.2350    0.2010 n2        1 6TG     -0.130000
     13 C13         2.1610   -2.3200    1.0590 c1        1 6TG     -0.050000
     14 C14         0.9740   -2.3800    1.7610 c1        1 6TG      0.043000
     15 N15         0.1660   -1.3490    1.3770 n2        1 6TG     -0.222000
     16 N16         0.4090   -3.6370    2.0920 n3        1 6TG     -0.313000
     17 C17         2.8590   -3.5960    0.6440 c3        1 6TG     -0.173000
     18 C18         1.0540    0.7830    0.7760 c2        1 6TG     -0.054000
     19 C19         1.9520    1.6090    0.1200 c2        1 6TG     -0.093000
     20 C20         2.1970    2.8870    0.5980 c1        1 6TG     -0.136000
     21 C21         1.5420    3.3390    1.7320 c1        1 6TG     -0.111000
     22 C22         0.6430    2.5130    2.3890 c1        1 6TG     -0.048000
     23 C23         0.3990    1.2350    1.9110 c1        1 6TG     -0.089000
     24 C24        -0.0520    2.9970    3.6430 c2        1 6TG     -0.126000
     25 C25        -1.3550    3.3990    3.5900 c2        1 6TG     -0.033000
     26 N26        -1.9780    3.8060    4.7060 n1        1 6TG     -0.165000
     27 C27        -1.3090    3.8190    5.8930 c1        1 6TG     -0.040000
     28 N28        -0.0080    3.4180    5.9480 n1        1 6TG     -0.165000
     29 C29         0.6160    3.0110    4.8330 c1        1 6TG     -0.035000
     30 H11C        0.6240   -1.9460   -4.9900 hc        1 6TG      0.086333
     31 H12C        0.4540   -0.3890   -5.3220 hc        1 6TG      0.086333
     32 H13C        1.7410   -0.8990   -4.5200 hc        1 6TG      0.086333
     33 H3          1.7140   -0.9630   -2.1590 ha        1 6TG      0.149000
     34 H5         -1.7450   -0.1400   -0.1340 ha        1 6TG      0.150000
     35 H101       -3.9790   -0.8570   -2.2350 hc        1 6TG      0.087333
     36 H102       -3.6980    0.4490   -1.3530 hc        1 6TG      0.087333
     37 H103       -3.6650    0.5390   -2.9520 hc        1 6TG      0.087333
     38 H91C       -2.2880   -2.1260   -5.8350 h1        1 6TG      0.077667
     39 H92C       -3.5020   -1.9360   -4.8060 h1        1 6TG      0.077667
     40 H93C       -2.1270   -2.5940   -4.3100 h1        1 6TG      0.077667
     41 H171        3.7310   -3.3790    0.2560 hc        1 6TG      0.102333
     42 H172        2.9840   -4.1700    1.4290 hc        1 6TG      0.102333
     43 H173        2.3130   -4.0660   -0.0200 hc        1 6TG      0.102333
     44 H161       -0.4920   -3.7680    2.0150 hn        1 6TG      0.207500
     45 H162        0.9440   -4.3130    2.3970 hn        1 6TG      0.207500
     46 H19         2.4140    1.2900   -0.6800 ha        1 6TG      0.149000
     47 H23        -0.2340    0.6540    2.3740 ha        1 6TG      0.153000
     48 H20         2.8300    3.4680    0.1350 ha        1 6TG      0.136000
     49 H21         1.7140    4.2390    2.0690 ha        1 6TG      0.134000
     50 H25        -1.8340    3.3900    2.7400 h4        1 6TG      0.171000
     51 H29         1.5490    2.7240    4.8720 ha        1 6TG      0.168000
     52 H27        -1.7630    4.1150    6.7050 ha        1 6TG      0.191000
@<TRIPOS>BOND
     1    1    2 1   
     2    1   30 1   
     3    1   31 1   
     4    1   32 1   
     5    2    3 1   
     6    2    7 1   
     7    3    4 1   
     8    3   33 1   
     9    4   11 1   
    10    5    6 1   
    11    5   34 1   
    12    6   10 1   
    13    7    8 1   
    14    8    9 1   
    15    9   38 1   
    16    9   39 1   
    17    9   40 1   
    18   10   35 1   
    19   10   36 1   
    20   10   37 1   
    21   11   12 1   
    22   11   15 1   
    23   11   18 1   
    24   12   13 1   
    25   13   17 1   
    26   14   15 1   
    27   14   16 1   
    28   16   44 1   
    29   16   45 1   
    30   17   41 1   
    31   17   42 1   
    32   17   43 1   
    33   18   19 1   
    34   18   23 1   
    35   19   20 1   
    36   19   46 1   
    37   20   48 1   
    38   21   22 1   
    39   21   49 1   
    40   22   24 1   
    41   23   47 1   
    42   24   25 1   
    43   24   29 1   
    44   25   26 1   
    45   25   50 1   
    46   27   28 1   
    47   27   52 1   
    48   29   51 1   
@<TRIPOS>SUBSTRUCTURE
     1 6TG         1 TEMP              0 ****  ****    0 ROOT
