@<TRIPOS>MOLECULE
6TG
   52    55     1     0     0
SMALL
bcc


@<TRIPOS>ATOM
      1 C1          4.5440   -1.1430    1.9750 c3        1 6TG     -0.050800
      2 C2          3.5370   -0.9990    0.8990 ca        1 6TG     -0.090300
      3 C3          2.6380    0.0720    0.9260 ca        1 6TG     -0.103500
      4 C4          1.6840    0.2320   -0.0830 ca        1 6TG     -0.066300
      5 C5          1.6140   -0.7010   -1.1220 ca        1 6TG     -0.103500
      6 C6          2.4990   -1.7820   -1.1740 ca        1 6TG     -0.090300
      7 C7          3.4620   -1.9210   -0.1590 ca        1 6TG      0.092100
      8 O8          4.4090   -2.9360   -0.2700 os        1 6TG     -0.345900
      9 C9          4.1200   -4.0710    0.5440 c3        1 6TG      0.116700
     10 C10         2.4270   -2.7440   -2.2970 c3        1 6TG     -0.050800
     11 C11         0.6910    1.3920   -0.0270 c3        1 6TG      0.368000
     12 N12         1.3200    2.6070    0.6410 n2        1 6TG     -0.544900
     13 C13         1.2830    3.5820   -0.2180 ce        1 6TG      0.315000
     14 C14         0.6220    3.0980   -1.5270 ce        1 6TG      0.483900
     15 N15         0.2850    1.8240   -1.4160 n2        1 6TG     -0.634900
     16 N16         0.3690    3.9690   -2.5720 nh        1 6TG     -0.874800
     17 C17         1.7600    4.9710   -0.0660 c3        1 6TG     -0.131400
     18 C18        -0.5130    0.9090    0.7810 ca        1 6TG     -0.060300
     19 C19        -0.4990    0.9900    2.1780 ca        1 6TG     -0.097000
     20 C20        -1.5900    0.5300    2.9150 ca        1 6TG     -0.138000
     21 C21        -2.6950   -0.0200    2.2730 ca        1 6TG     -0.112000
     22 C22        -2.7140   -0.1210    0.8750 cp        1 6TG     -0.047000
     23 C23        -1.6160    0.3430    0.1350 ca        1 6TG     -0.088000
     24 C24        -3.8600   -0.7000    0.1950 cp        1 6TG     -0.257600
     25 C25        -4.5770   -1.7950    0.7360 ca        1 6TG      0.431200
     26 N26        -5.6420   -2.3400    0.1170 nb        1 6TG     -0.691000
     27 C27        -5.9960   -1.7780   -1.0700 ca        1 6TG      0.622900
     28 N28        -5.3860   -0.7300   -1.6870 nb        1 6TG     -0.691000
     29 C29        -4.3250   -0.2020   -1.0470 ca        1 6TG      0.431200
     30 H11C        4.0970   -1.6790    2.8500 hc        1 6TG      0.047533
     31 H12C        5.4260   -1.7300    1.6140 hc        1 6TG      0.047533
     32 H13C        4.9000   -0.1420    2.3220 hc        1 6TG      0.047533
     33 H3          2.6970    0.7820    1.7660 ha        1 6TG      0.149500
     34 H5          0.8540   -0.6070   -1.9140 ha        1 6TG      0.149500
     35 H101        3.0230   -2.3610   -3.1640 hc        1 6TG      0.047533
     36 H102        2.8500   -3.7350   -1.9970 hc        1 6TG      0.047533
     37 H103        1.3710   -2.8890   -2.6320 hc        1 6TG      0.047533
     38 H91C        4.0780   -3.7790    1.6220 h1        1 6TG      0.039033
     39 H92C        3.1550   -4.5390    0.2320 h1        1 6TG      0.039033
     40 H93C        4.9780   -4.7630    0.3520 h1        1 6TG      0.039033
     41 H171        2.5610    5.1750   -0.8200 hc        1 6TG      0.063033
     42 H172        0.9090    5.6770   -0.2410 hc        1 6TG      0.063033
     43 H173        2.1760    5.1590    0.9550 hc        1 6TG      0.063033
     44 H161        1.0320    4.7070   -2.6510 hn        1 6TG      0.412300
     45 H162        0.1020    3.5540   -3.4370 hn        1 6TG      0.412300
     46 H19         0.3700    1.4080    2.7090 ha        1 6TG      0.150000
     47 H23        -1.6330    0.2380   -0.9620 ha        1 6TG      0.153000
     48 H20        -1.5750    0.6040    4.0130 ha        1 6TG      0.135000
     49 H21        -3.5560   -0.3710    2.8620 ha        1 6TG      0.134000
     50 H25        -4.2790   -2.2510    1.6970 h4        1 6TG      0.033600
     51 H29        -3.8270    0.6530   -1.5390 h4        1 6TG      0.033600
     52 H27        -6.8720   -2.2200   -1.5890 h5        1 6TG      0.054100
@<TRIPOS>BOND
     1    1    2 1   
     2    1   30 1   
     3    1   31 1   
     4    1   32 1   
     5    2    3 ar  
     6    2    7 ar  
     7    3    4 ar  
     8    3   33 1   
     9    4    5 ar  
    10    4   11 1   
    11    5    6 ar  
    12    5   34 1   
    13    6    7 ar  
    14    6   10 1   
    15    7    8 1   
    16    8    9 1   
    17    9   38 1   
    18    9   39 1   
    19    9   40 1   
    20   10   35 1   
    21   10   36 1   
    22   10   37 1   
    23   11   12 1   
    24   11   15 1   
    25   11   18 1   
    26   12   13 2   
    27   13   14 1   
    28   13   17 1   
    29   14   15 2   
    30   14   16 1   
    31   16   44 1   
    32   16   45 1   
    33   17   41 1   
    34   17   42 1   
    35   17   43 1   
    36   18   19 ar  
    37   18   23 ar  
    38   19   20 ar  
    39   19   46 1   
    40   20   21 ar  
    41   20   48 1   
    42   21   22 ar  
    43   21   49 1   
    44   22   23 ar  
    45   22   24 1   
    46   23   47 1   
    47   24   25 ar  
    48   24   29 ar  
    49   25   26 ar  
    50   25   50 1   
    51   26   27 ar  
    52   27   28 ar  
    53   27   52 1   
    54   28   29 ar  
    55   29   51 1   
@<TRIPOS>SUBSTRUCTURE
     1 6TG         1 TEMP              0 ****  ****    0 ROOT
