@<TRIPOS>MOLECULE
6TG
   53    56     1     0     0
SMALL
bcc


@<TRIPOS>ATOM
      1 C1          0.0670   -0.8050   -0.1270 c3        1 6TG     -0.059800
      2 C2          1.4800   -0.3660   -0.0570 ca        1 6TG     -0.077300
      3 C3          2.1530   -0.3680    1.1700 ca        1 6TG     -0.102500
      4 C4          3.4890    0.0280    1.2400 ca        1 6TG     -0.108300
      5 C5          4.1610    0.4440    0.0840 ca        1 6TG     -0.102500
      6 C6          3.5140    0.4500   -1.1530 ca        1 6TG     -0.077300
      7 C7          2.1690    0.0380   -1.2150 ca        1 6TG      0.120100
      8 O8          1.5310   -0.0840   -2.4410 os        1 6TG     -0.341900
      9 C9          1.0370    1.1530   -2.9630 c3        1 6TG      0.113700
     10 C10         4.2430    0.8840   -2.3670 c3        1 6TG     -0.059800
     11 C11         4.2590    0.0520    2.5550 c3        1 6TG      0.386000
     12 N12         3.4860   -0.5760    3.6990 n2        1 6TG     -0.470900
     13 C13         4.1480   -1.6110    4.1230 ce        1 6TG      0.329000
     14 C14         5.4240   -1.7480    3.2810 ce        1 6TG      0.289900
     15 N15         5.5170   -0.8020    2.3820 n2        1 6TG     -0.458900
     16 N16         6.3840   -2.8230    3.4940 nz        1 6TG     -0.766600
     17 C17         3.8260   -2.5550    5.2100 c3        1 6TG     -0.152400
     18 C18         4.6160    1.4960    2.8950 ca        1 6TG     -0.094300
     19 C19         3.6530    2.2970    3.5210 ca        1 6TG     -0.088000
     20 C20         3.9480    3.6270    3.8180 ca        1 6TG     -0.120000
     21 C21         5.1890    4.1670    3.4910 ca        1 6TG     -0.093000
     22 C22         6.1520    3.3760    2.8470 cp        1 6TG     -0.022000
     23 C23         5.8550    2.0380    2.5460 ca        1 6TG     -0.110000
     24 C24         7.4460    3.9320    2.4900 cp        1 6TG     -0.289600
     25 C25         8.1300    4.8380    3.3380 ca        1 6TG      0.438700
     26 N26         9.3320    5.3560    3.0220 nb        1 6TG     -0.682000
     27 C27         9.8610    4.9620    1.8310 ca        1 6TG      0.641900
     28 N28         9.2970    4.1030    0.9380 nb        1 6TG     -0.682000
     29 C29         8.0950    3.6010    1.2760 ca        1 6TG      0.438700
     30 H11C       -0.4810   -0.5460    0.8120 hc        1 6TG      0.057867
     31 H12C       -0.4530   -0.3220   -0.9930 hc        1 6TG      0.057867
     32 H13C        0.0210   -1.9140   -0.2730 hc        1 6TG      0.057867
     33 H3          1.5890   -0.6720    2.0650 ha        1 6TG      0.145500
     34 H5          5.2080    0.7820    0.1430 ha        1 6TG      0.145500
     35 H101        5.3220    0.5980   -2.3070 hc        1 6TG      0.057867
     36 H102        4.1800    1.9960   -2.4750 hc        1 6TG      0.057867
     37 H103        3.8000    0.4140   -3.2820 hc        1 6TG      0.057867
     38 H91C        1.8720    1.8810   -3.1000 h1        1 6TG      0.049033
     39 H92C        0.5950    0.8610   -3.9490 h1        1 6TG      0.049033
     40 H93C        0.2570    1.5740   -2.2850 h1        1 6TG      0.049033
     41 H171        4.6460   -2.5620    5.9710 hc        1 6TG      0.081367
     42 H172        2.8750   -2.2630    5.7310 hc        1 6TG      0.081367
     43 H173        3.6860   -3.5860    4.7960 hc        1 6TG      0.081367
     44 H161        7.2350   -2.4470    3.9350 hn        1 6TG      0.477800
     45 H162        6.6380   -3.2650    2.5980 hn        1 6TG      0.477800
     46 H19         2.6580    1.8990    3.7730 ha        1 6TG      0.158000
     47 H23         6.6180    1.4420    2.0220 ha        1 6TG      0.140000
     48 H20         3.1890    4.2560    4.3090 ha        1 6TG      0.155000
     49 H21         5.4110    5.2210    3.7230 ha        1 6TG      0.153000
     50 H25         7.6980    5.1530    4.3050 h4        1 6TG      0.031100
     51 H29         7.6260    2.9180    0.5460 h4        1 6TG      0.031100
     52 H27        10.8510    5.3870    1.5600 h5        1 6TG      0.068100
     53 H163        5.9530   -3.5210    4.1140 hn        1 6TG      0.477800
@<TRIPOS>BOND
     1    1    2 1   
     2    1   30 1   
     3    1   31 1   
     4    1   32 1   
     5    2    3 ar  
     6    2    7 ar  
     7    3    4 ar  
     8    3   33 1   
     9    4    5 ar  
    10    4   11 1   
    11    5    6 ar  
    12    5   34 1   
    13    6    7 ar  
    14    6   10 1   
    15    7    8 1   
    16    8    9 1   
    17    9   38 1   
    18    9   39 1   
    19    9   40 1   
    20   10   35 1   
    21   10   36 1   
    22   10   37 1   
    23   11   12 1   
    24   11   15 1   
    25   11   18 1   
    26   12   13 2   
    27   13   14 1   
    28   13   17 1   
    29   14   15 2   
    30   14   16 1   
    31   16   44 1   
    32   16   45 1   
    33   16   53 1   
    34   17   41 1   
    35   17   42 1   
    36   17   43 1   
    37   18   19 ar  
    38   18   23 ar  
    39   19   20 ar  
    40   19   46 1   
    41   20   21 ar  
    42   20   48 1   
    43   21   22 ar  
    44   21   49 1   
    45   22   23 ar  
    46   22   24 1   
    47   23   47 1   
    48   24   25 ar  
    49   24   29 ar  
    50   25   26 ar  
    51   25   50 1   
    52   26   27 ar  
    53   27   28 ar  
    54   27   52 1   
    55   28   29 ar  
    56   29   51 1   
@<TRIPOS>SUBSTRUCTURE
     1 6TG         1 TEMP              0 ****  ****    0 ROOT
