@<TRIPOS>MOLECULE
6TG
   53    56     1     0     0
SMALL
bcc


@<TRIPOS>ATOM
      1 C1          0.1070   -0.7670   -0.1630 c3        1 6TG     -0.059300
      2 C2          1.5290   -0.3580   -0.0940 ca        1 6TG     -0.077300
      3 C3          2.1870   -0.3450    1.1420 ca        1 6TG     -0.102500
      4 C4          3.5270    0.0360    1.2220 ca        1 6TG     -0.109300
      5 C5          4.2190    0.4230    0.0690 ca        1 6TG     -0.102500
      6 C6          3.5870    0.4140   -1.1760 ca        1 6TG     -0.077300
      7 C7          2.2380    0.0160   -1.2490 ca        1 6TG      0.120100
      8 O8          1.6520   -0.1050   -2.5010 os        1 6TG     -0.341900
      9 C9          0.7870    0.9810   -2.8450 c3        1 6TG      0.113700
     10 C10         4.3330    0.7990   -2.3960 c3        1 6TG     -0.059300
     11 C11         4.2790    0.0750    2.5480 c3        1 6TG      0.386000
     12 N12         3.4900   -0.5410    3.6870 n2        1 6TG     -0.471900
     13 C13         4.1470   -1.5710    4.1320 ce        1 6TG      0.329000
     14 C14         5.4340   -1.7160    3.3090 ce        1 6TG      0.289900
     15 N15         5.5400   -0.7790    2.4030 n2        1 6TG     -0.458900
     16 N16         6.3860   -2.7960    3.5390 n4        1 6TG     -0.766600
     17 C17         3.8170   -2.4980    5.2320 c3        1 6TG     -0.152400
     18 C18         4.6290    1.5230    2.8760 ca        1 6TG     -0.094300
     19 C19         3.6590    2.3290    3.4850 ca        1 6TG     -0.088000
     20 C20         3.9490    3.6630    3.7700 ca        1 6TG     -0.120000
     21 C21         5.1920    4.2020    3.4490 ca        1 6TG     -0.093000
     22 C22         6.1620    3.4060    2.8230 cp        1 6TG     -0.021000
     23 C23         5.8710    2.0640    2.5330 ca        1 6TG     -0.109000
     24 C24         7.4590    3.9600    2.4730 cp        1 6TG     -0.289600
     25 C25         8.1330    4.8760    3.3180 ca        1 6TG      0.438700
     26 N26         9.3360    5.3930    3.0080 nb        1 6TG     -0.682000
     27 C27         9.8790    4.9880    1.8270 ca        1 6TG      0.641900
     28 N28         9.3250    4.1180    0.9370 nb        1 6TG     -0.682000
     29 C29         8.1200    3.6180    1.2700 ca        1 6TG      0.438700
     30 H11C       -0.1380   -1.1700   -1.1780 hc        1 6TG      0.057700
     31 H12C       -0.5550    0.1130    0.0370 hc        1 6TG      0.057700
     32 H13C       -0.1200   -1.5550    0.5970 hc        1 6TG      0.057700
     33 H3          1.6090   -0.6290    2.0350 ha        1 6TG      0.146000
     34 H5          5.2680    0.7550    0.1350 ha        1 6TG      0.146000
     35 H101        5.1240    1.5540   -2.1630 hc        1 6TG      0.057700
     36 H102        4.8220   -0.1040   -2.8430 hc        1 6TG      0.057700
     37 H103        3.6390    1.2280   -3.1620 hc        1 6TG      0.057700
     38 H91C        0.3950    0.6920   -3.8520 h1        1 6TG      0.049033
     39 H92C        1.3670    1.9340   -2.9000 h1        1 6TG      0.049033
     40 H93C       -0.0430    1.0700   -2.1020 h1        1 6TG      0.049033
     41 H171        4.5930   -2.4320    6.0360 hc        1 6TG      0.081033
     42 H172        2.8250   -2.2430    5.6920 hc        1 6TG      0.081033
     43 H173        3.7590   -3.5470    4.8480 hc        1 6TG      0.081033
     44 H161        6.2080   -3.1860    4.4740 hn        1 6TG      0.477800
     45 H162        6.2510   -3.5280    2.8280 hn        1 6TG      0.477800
     46 H19         2.6620    1.9320    3.7310 ha        1 6TG      0.157000
     47 H23         6.6390    1.4640    2.0230 ha        1 6TG      0.140000
     48 H20         3.1830    4.2960    4.2480 ha        1 6TG      0.154000
     49 H21         5.4100    5.2590    3.6730 ha        1 6TG      0.153000
     50 H25         7.6910    5.2010    4.2780 h4        1 6TG      0.031100
     51 H29         7.6590    2.9260    0.5410 h4        1 6TG      0.031100
     52 H27        10.8710    5.4110    1.5610 h5        1 6TG      0.068100
     53 H163        7.3540   -2.4500    3.4850 hn        1 6TG      0.477800
@<TRIPOS>BOND
     1    1    2 1   
     2    1   30 1   
     3    1   31 1   
     4    1   32 1   
     5    2    3 ar  
     6    2    7 ar  
     7    3    4 ar  
     8    3   33 1   
     9    4    5 ar  
    10    4   11 1   
    11    5    6 ar  
    12    5   34 1   
    13    6    7 ar  
    14    6   10 1   
    15    7    8 1   
    16    8    9 1   
    17    9   38 1   
    18    9   39 1   
    19    9   40 1   
    20   10   35 1   
    21   10   36 1   
    22   10   37 1   
    23   11   12 1   
    24   11   15 1   
    25   11   18 1   
    26   12   13 2   
    27   13   14 1   
    28   13   17 1   
    29   14   15 2   
    30   14   16 1   
    31   16   44 1   
    32   16   45 1   
    33   16   53 1   
    34   17   41 1   
    35   17   42 1   
    36   17   43 1   
    37   18   19 ar  
    38   18   23 ar  
    39   19   20 ar  
    40   19   46 1   
    41   20   21 ar  
    42   20   48 1   
    43   21   22 ar  
    44   21   49 1   
    45   22   23 ar  
    46   22   24 1   
    47   23   47 1   
    48   24   25 ar  
    49   24   29 ar  
    50   25   26 ar  
    51   25   50 1   
    52   26   27 ar  
    53   27   28 ar  
    54   27   52 1   
    55   28   29 ar  
    56   29   51 1   
@<TRIPOS>SUBSTRUCTURE
     1 6TG         1 TEMP              0 ****  ****    0 ROOT
