@<TRIPOS>MOLECULE
6TP
   50    52     1     0     0
SMALL
bcc


@<TRIPOS>ATOM
      1 C1         -5.5870   -1.3090   -1.4750 c3        1 6TP      0.262200
      2 N1          5.8060    2.1990    0.6400 nb        1 6TP     -0.755000
      3 O1         -5.1810    1.9620    0.3090 o         1 6TP     -0.658300
      4 S1          2.2170   -0.4430    0.0780 ss        1 6TP      0.162500
      5 C2         -0.8480   -0.3430    0.6150 ca        1 6TP     -0.153500
      6 O2          4.5940   -2.4070    0.2810 o         1 6TP     -0.612100
      7 S2         -4.7000    0.6340    0.2610 sy        1 6TP      1.518200
      8 C3         -7.0210   -1.4510   -0.9300 c3        1 6TP     -0.116433
      9 N3          6.4110   -1.7260   -0.9340 n         1 6TP     -0.572900
     10 O3         -5.1140   -0.2260    1.3010 o         1 6TP     -0.658300
     11 C4         -5.6410   -1.5580   -2.9940 c3        1 6TP     -0.116433
     12 N4         -5.0370    0.0100   -1.1890 n3        1 6TP     -0.919100
     13 C5         -2.3480    1.9030   -0.0560 ca        1 6TP     -0.013500
     14 C6         -4.7410   -2.4350   -0.8530 c3        1 6TP     -0.116433
     15 C7          2.0070    2.0580    0.5480 cc        1 6TP     -0.084200
     16 C8          3.4080    1.7730    0.5080 ca        1 6TP     -0.271100
     17 C9          3.6570    0.3980    0.2350 ca        1 6TP      0.007900
     18 C10         4.5190    2.6660    0.7000 ca        1 6TP      0.725200
     19 C11         4.9890   -0.0490    0.1370 ca        1 6TP     -0.292900
     20 C12         5.2980   -1.4710   -0.1550 c         1 6TP      0.683700
     21 C13         5.9980    0.8970    0.3610 ca        1 6TP      0.484200
     22 C14         1.2500    0.9280    0.3250 cd        1 6TP     -0.104600
     23 C15         6.7950   -3.0460   -1.3180 c3        1 6TP      0.079300
     24 C16        -0.1910    0.8590    0.3010 ca        1 6TP      0.047200
     25 C17        -2.2350   -0.4090    0.5900 ca        1 6TP     -0.013500
     26 C18        -3.0080    0.7080    0.2520 ca        1 6TP     -0.377500
     27 C19        -0.9600    1.9850   -0.0350 ca        1 6TP     -0.153500
     28 H2         -0.2580   -1.2320    0.8920 ha        1 6TP      0.144000
     29 HN2         5.0540    4.5910    1.1710 hn        1 6TP      0.429800
     30 HN2A        3.3910    4.2750    1.2170 hn        1 6TP      0.429800
     31 H3         -7.4090   -2.4660   -1.1850 hc        1 6TP      0.048367
     32 H3A        -7.0330   -1.3340    0.1820 hc        1 6TP      0.048367
     33 H3B        -7.6950   -0.6870   -1.3850 hc        1 6TP      0.048367
     34 HN3         6.8910   -0.9670   -1.3520 hn        1 6TP      0.310500
     35 H4         -6.2870   -0.8000   -3.4980 hc        1 6TP      0.048367
     36 H4A        -4.6180   -1.5190   -3.4380 hc        1 6TP      0.048367
     37 H4B        -6.0720   -2.5700   -3.1810 hc        1 6TP      0.048367
     38 HN4        -4.9230    0.5590   -2.0090 hn        1 6TP      0.445800
     39 H5         -2.9450    2.8000   -0.3030 ha        1 6TP      0.154500
     40 H6         -5.1720   -3.4190   -1.1550 hc        1 6TP      0.048367
     41 H6A        -3.6850   -2.3850   -1.2120 hc        1 6TP      0.048367
     42 H6B        -4.7560   -2.3700    0.2630 hc        1 6TP      0.048367
     43 H7          1.5960    3.0530    0.7390 ha        1 6TP      0.153000
     44 H13         7.0670    0.6050    0.3430 h4        1 6TP      0.025100
     45 H15         7.8920   -3.1900   -1.1220 h1        1 6TP      0.045033
     46 H15A        6.2150   -3.8060   -0.7300 h1        1 6TP      0.045033
     47 H15B        6.6030   -3.2120   -2.4130 h1        1 6TP      0.045033
     48 H17        -2.7430   -1.3550    0.8540 ha        1 6TP      0.154500
     49 H19        -0.4610    2.9330   -0.2870 ha        1 6TP      0.144000
     50 N2          4.2920    4.0150    0.8970 nh        1 6TP     -0.943500
@<TRIPOS>BOND
     1    1    8 1   
     2    1   11 1   
     3    1   12 1   
     4    1   14 1   
     5    2   18 ar  
     6    2   21 ar  
     7    3    7 2   
     8    4   17 1   
     9    4   22 1   
    10    5   24 ar  
    11    5   25 ar  
    12    5   28 1   
    13    6   20 2   
    14    7   10 2   
    15    7   12 1   
    16    7   26 1   
    17    8   31 1   
    18    8   32 1   
    19    8   33 1   
    20    9   20 1   
    21    9   23 1   
    22    9   34 1   
    23   11   35 1   
    24   11   36 1   
    25   11   37 1   
    26   12   38 1   
    27   13   26 ar  
    28   13   27 ar  
    29   13   39 1   
    30   14   40 1   
    31   14   41 1   
    32   14   42 1   
    33   15   16 1   
    34   15   22 2   
    35   15   43 1   
    36   16   17 ar  
    37   16   18 ar  
    38   17   19 ar  
    39   18   50 1   
    40   19   20 1   
    41   19   21 ar  
    42   21   44 1   
    43   22   24 1   
    44   23   45 1   
    45   23   46 1   
    46   23   47 1   
    47   24   27 ar  
    48   25   26 ar  
    49   25   48 1   
    50   27   49 1   
    51   29   50 1   
    52   30   50 1   
@<TRIPOS>SUBSTRUCTURE
     1 6TP         1 TEMP              0 ****  ****    0 ROOT
