@<TRIPOS>MOLECULE
6TP
   53    53     1     0     0
SMALL
bcc


@<TRIPOS>ATOM
      1 C1          1.2390    0.6310    2.1200 c2        1 6TP      0.332000
      2 N1         -6.4470   -5.6380   -8.1560 n3        1 6TP     -0.089000
      3 O1          0.6700    0.2370   -1.5850 o         1 6TP     -0.959500
      4 S1         -2.4440   -4.2940   -6.7240 ss        1 6TP      0.580000
      5 C2         -1.2260   -2.2830   -4.5930 c2        1 6TP     -0.010000
      6 O2         -3.0650   -7.3410   -9.9680 o         1 6TP     -0.337000
      7 S2         -0.6830    0.5890   -1.8060 s6        1 6TP      2.867000
      8 C3          2.1400   -0.1790    1.3190 c3        1 6TP     -0.323333
      9 N3         -4.1390   -9.1510  -11.9470 n3        1 6TP     -0.137000
     10 O3         -1.4370    0.5670   -0.6080 o         1 6TP     -0.959500
     11 C4          1.6880    1.9160    2.6370 c3        1 6TP     -0.323333
     12 N4         -0.8150    1.9770   -2.5450 n3        1 6TP     -0.958000
     13 C5         -2.8500   -0.5850   -2.9890 c3        1 6TP     -0.182000
     14 C6         -0.1130    0.1750    2.3950 c3        1 6TP     -0.323333
     15 C7         -4.6180   -3.3490   -5.7400 c2        1 6TP     -0.174000
     16 C8         -5.0230   -4.3010   -6.7410 c2        1 6TP     -0.055000
     17 C9         -3.8640   -4.9140   -7.3800 c2        1 6TP     -0.218000
     18 C10        -6.3010   -4.6790   -7.1440 c2        1 6TP     -0.073000
     19 C11        -4.0620   -5.8570   -8.3760 c2        1 6TP     -0.190000
     20 C12        -2.9350   -6.5130   -9.0620 c2        1 6TP      0.289000
     21 C13        -5.3960   -6.2130   -8.7580 c1        1 6TP     -0.046000
     22 C14        -3.2530   -3.2520   -5.6350 c2        1 6TP     -0.184000
     23 C15        -2.8920   -9.3800  -12.1950 c2        1 6TP      0.116000
     24 C16        -2.5880   -2.3570   -4.7120 c2        1 6TP     -0.110000
     25 C17        -0.6240   -1.3450   -3.6750 c2        1 6TP     -0.014000
     26 C18        -1.3690   -0.5160   -2.9070 c2        1 6TP     -0.798000
     27 C19        -3.4470   -1.5290   -3.9080 c1        1 6TP     -0.054000
     28 H2         -0.5420   -2.9200   -5.1840 ha        1 6TP      0.158000
     29 HN2        -7.1670   -3.3910   -5.7920 hn        1 6TP      0.276667
     30 HN2A       -8.0560   -4.7880   -6.0520 hn        1 6TP      0.276667
     31 H3          1.9110    0.0060    0.2160 hc        1 6TP      0.181222
     32 H3A         3.2200    0.0860    1.4740 hc        1 6TP      0.181222
     33 H3B         1.9940   -1.2790    1.4840 hc        1 6TP      0.181222
     34 HN3        -1.9230   -6.2080   -8.7040 h4        1 6TP      0.120000
     35 H4          2.1520    1.7420    3.6580 hc        1 6TP      0.181222
     36 H4A         0.8440    2.6410    2.7890 hc        1 6TP      0.181222
     37 H4B         2.4850    2.3850    2.0000 hc        1 6TP      0.181222
     38 HN4        -1.5680    2.6110   -2.4080 hn        1 6TP      0.271500
     39 H5         -3.2820    0.4310   -3.2590 hc        1 6TP      0.197000
     40 H6         -0.7720    0.4260    1.4980 hc        1 6TP      0.181222
     41 H6A        -0.1740   -0.9390    2.5220 hc        1 6TP      0.181222
     42 H6B        -0.5710    0.6820    3.2850 hc        1 6TP      0.181222
     43 H7         -5.2900   -2.7470   -5.1130 ha        1 6TP      0.198000
     44 H13        -7.3620   -5.9200   -8.4580 hn        1 6TP      0.286000
     45 H15        -4.8850   -9.6090  -12.4470 hn        1 6TP      0.294500
     46 H15A       -2.5790  -10.1020  -12.9850 h4        1 6TP      0.213000
     47 H15B       -2.1010   -8.8480  -11.6140 h4        1 6TP      0.213000
     48 H17         0.4830   -1.3340   -3.6220 ha        1 6TP      0.179000
     49 H19        -3.2780   -0.8190   -1.9580 hc        1 6TP      0.197000
     50 H32        -4.4250   -8.4930  -11.2280 hn        1 6TP      0.294500
     51 H42        -0.1400    2.3400   -3.1780 hn        1 6TP      0.271500
     52 H23        -8.0480   -3.5690   -7.2070 hn        1 6TP      0.276667
     53 N2         -7.4800   -4.0660   -6.5060 n4        1 6TP     -0.023000
@<TRIPOS>BOND
     1    1    8 1   
     2    1   11 1   
     3    1   14 1   
     4    2   18 1   
     5    2   21 1   
     6    2   44 1   
     7    3    7 1   
     8    4   17 1   
     9    4   22 1   
    10    5   24 1   
    11    5   25 1   
    12    5   28 1   
    13    6   20 1   
    14    7   10 1   
    15    7   12 1   
    16    7   26 1   
    17    8   31 1   
    18    8   32 1   
    19    8   33 1   
    20    9   23 1   
    21    9   45 1   
    22    9   50 1   
    23   11   35 1   
    24   11   36 1   
    25   11   37 1   
    26   12   38 1   
    27   12   51 1   
    28   13   26 1   
    29   13   27 1   
    30   13   39 1   
    31   13   49 1   
    32   14   40 1   
    33   14   41 1   
    34   14   42 1   
    35   15   16 1   
    36   15   22 1   
    37   15   43 1   
    38   16   17 1   
    39   16   18 1   
    40   17   19 1   
    41   18   53 1   
    42   19   20 1   
    43   19   21 1   
    44   20   34 1   
    45   22   24 1   
    46   23   46 1   
    47   23   47 1   
    48   24   27 1   
    49   25   26 1   
    50   25   48 1   
    51   29   53 1   
    52   30   53 1   
    53   52   53 1   
@<TRIPOS>SUBSTRUCTURE
     1 6TP         1 TEMP              0 ****  ****    0 ROOT
