@<TRIPOS>MOLECULE
6TP
   52    52     1     0     0
SMALL
bcc


@<TRIPOS>ATOM
      1 C1          0.7430    1.4780    0.1160 c3        1 6TP      0.161200
      2 N1         -5.7390   -4.8650   -9.1500 na        1 6TP     -0.199100
      3 O1         -1.3220    0.5560   -2.4340 o         1 6TP     -0.564800
      4 S1         -3.0560   -5.1520   -5.6240 ss        1 6TP      0.383500
      5 C2          0.3790   -3.8610   -0.7920 c2        1 6TP     -0.193100
      6 O2         -2.4360   -7.6100   -7.0420 o         1 6TP     -0.499100
      7 S2         -0.3960   -0.3060   -1.8750 sy        1 6TP      1.456800
      8 C3          0.6500    2.5180   -1.0020 c3        1 6TP     -0.136433
      9 N3         -5.0060   -8.9530  -10.9570 n2        1 6TP     -0.847100
     10 O3          0.9030   -0.3640   -2.3350 o         1 6TP     -0.564800
     11 C4          0.4290    2.1550    1.4550 c3        1 6TP     -0.136433
     12 N4         -0.2690    0.3610   -0.1280 ny        1 6TP     -0.718900
     13 C5         -2.5090   -1.9540   -1.6530 c3        1 6TP      0.074900
     14 C6          2.1600    0.9030    0.1730 c3        1 6TP     -0.136433
     15 C7         -4.5990   -3.1440   -5.9800 cc        1 6TP     -0.060200
     16 C8         -4.8080   -4.0270   -7.0820 ca        1 6TP     -0.206800
     17 C9         -3.9870   -5.1890   -6.9820 ca        1 6TP     -0.055100
     18 C10        -5.7100   -3.8610   -8.1930 ca        1 6TP      0.250500
     19 C11        -4.0640   -6.1830   -8.0000 ca        1 6TP     -0.196600
     20 C12        -3.2360   -7.4110   -7.9550 c         1 6TP      0.583500
     21 C13        -4.9360   -5.9870   -9.0470 ca        1 6TP      0.024700
     22 C14        -3.6520   -3.6610   -5.1080 cd        1 6TP     -0.018100
     23 C15        -4.4560   -9.3020  -12.0500 c2        1 6TP      0.472100
     24 C16        -3.2240   -3.0700   -3.9260 ch        1 6TP     -0.111300
     25 C17        -0.2930   -2.8110   -1.1330 c1        1 6TP      0.190200
     26 C18        -1.0180   -1.7660   -1.4920 ce        1 6TP     -0.534400
     27 C19        -2.8680   -2.5600   -2.9010 c1        1 6TP     -0.098100
     28 H2          0.8320   -4.5380   -1.5430 ha        1 6TP      0.210500
     29 HN2        -6.4550   -2.0640   -7.5930 hn        1 6TP      0.324700
     30 HN2A       -7.1350   -2.6270   -9.0560 hn        1 6TP      0.324700
     31 H3          1.0110    2.1030   -1.9760 hc        1 6TP      0.079700
     32 H3A        -0.3910    2.9050   -1.1240 hc        1 6TP      0.079700
     33 H3B         1.3110    3.3810   -0.7330 hc        1 6TP      0.079700
     34 HN3        -3.3910   -8.1250   -8.7940 h4        1 6TP      0.062200
     35 H4          0.4740    1.4270    2.3000 hc        1 6TP      0.079700
     36 H4A         1.1960    2.9490    1.6410 hc        1 6TP      0.079700
     37 H4B        -0.5750    2.6440    1.4380 hc        1 6TP      0.079700
     38 HN4        -1.1800    0.7440    0.1330 hn        1 6TP      0.446800
     39 H5         -3.0270   -0.9520   -1.5770 hc        1 6TP      0.096200
     40 H6          2.4530    0.4260   -0.7950 hc        1 6TP      0.079700
     41 H6A         2.2650    0.1630    1.0030 hc        1 6TP      0.079700
     42 H6B         2.8690    1.7460    0.3690 hc        1 6TP      0.079700
     43 H7         -5.1140   -2.1890   -5.8370 ha        1 6TP      0.176000
     44 H13        -6.3530   -4.7970   -9.9420 hn        1 6TP      0.335700
     45 H15        -5.6430   -9.6080  -10.5510 hn        1 6TP      0.393400
     46 H15A       -4.6080  -10.2540  -12.5960 h4        1 6TP     -0.006700
     47 H15B       -3.7430   -8.6030  -12.5300 h4        1 6TP     -0.006700
     48 H17         0.5630   -4.1480    0.2610 ha        1 6TP      0.210500
     49 H19        -2.8990   -2.5950   -0.8090 hc        1 6TP      0.096200
     50 H32        -5.0490   -6.7240   -9.8760 h4        1 6TP      0.237000
     51 H42        -0.0520   -0.3780    0.5370 hn        1 6TP      0.446800
     52 N2         -6.5010   -2.7630   -8.3010 nv        1 6TP     -0.382200
@<TRIPOS>BOND
     1    1    8 1   
     2    1   11 1   
     3    1   12 1   
     4    1   14 1   
     5    2   18 1   
     6    2   21 2   
     7    2   44 1   
     8    3    7 2   
     9    4   17 1   
    10    4   22 1   
    11    5   25 2   
    12    5   28 1   
    13    5   48 1   
    14    6   20 2   
    15    7   10 2   
    16    7   12 1   
    17    7   26 1   
    18    8   31 1   
    19    8   32 1   
    20    8   33 1   
    21    9   23 2   
    22    9   45 1   
    23   11   35 1   
    24   11   36 1   
    25   11   37 1   
    26   12   38 1   
    27   12   51 1   
    28   13   26 1   
    29   13   27 1   
    30   13   39 1   
    31   13   49 1   
    32   14   40 1   
    33   14   41 1   
    34   14   42 1   
    35   15   16 1   
    36   15   22 2   
    37   15   43 1   
    38   16   17 ar  
    39   16   18 ar  
    40   17   19 ar  
    41   18   52 1   
    42   19   20 1   
    43   19   21 ar  
    44   20   34 1   
    45   21   50 1   
    46   22   24 1   
    47   23   46 1   
    48   23   47 1   
    49   24   27 3   
    50   25   26 2   
    51   29   52 1   
    52   30   52 1   
@<TRIPOS>SUBSTRUCTURE
     1 6TP         1 TEMP              0 ****  ****    0 ROOT
