@<TRIPOS>MOLECULE
6TP
   50    43     1     0     0
SMALL
bcc


@<TRIPOS>ATOM
      1 C1          4.5730    0.9670    3.9640 c3        1 6TP      0.099000
      2 N1         -4.6260   -2.5020   -4.5300 n1        1 6TP     -0.231000
      3 O1          2.3350   -1.2310    4.2900 o         1 6TP     -0.945000
      4 S1         -1.9380   -0.0500   -2.1890 ss        1 6TP      0.630000
      5 C2          0.4260   -1.3400    0.1660 c1        1 6TP     -0.151000
      6 N2         -4.6460   -4.1420   -2.9590 n3        1 6TP     -0.347000
      7 O2         -1.8570    1.1790   -5.2670 o         1 6TP     -0.373000
      8 S2          2.1330   -0.0040    3.5700 ss        1 6TP      2.874000
      9 C3          4.9890   -0.2610    4.7450 c3        1 6TP     -0.236333
     10 N3         -4.0370    1.8560   -5.2890 n3        1 6TP     -0.381000
     11 O3          1.5550    0.8270    4.5910 o         1 6TP     -0.945000
     12 C4          5.7690    1.5200    3.2190 c3        1 6TP     -0.236333
     13 N4          3.5580    0.6150    3.0350 n2        1 6TP     -0.899000
     14 C5         -0.2000    0.4410    2.1970 c1        1 6TP     -0.009000
     15 C6          4.0420    2.0150    4.9180 c3        1 6TP     -0.236333
     16 C7         -2.6070   -2.1190   -1.1540 c1        1 6TP     -0.094000
     17 C8         -3.3220   -1.9910   -2.5910 c1        1 6TP     -0.198000
     18 C9         -2.9180   -0.7700   -3.1840 c1        1 6TP     -0.217000
     19 C10        -4.1730   -2.8420   -3.2740 c1        1 6TP      0.210000
     20 C11        -3.3690   -0.4370   -4.4280 c1        1 6TP     -0.210000
     21 C12        -3.0150    0.9080   -5.0220 c1        1 6TP      0.357000
     22 C13        -4.2300   -1.3020   -5.1150 c2        1 6TP      0.022000
     23 C14        -1.7930   -0.9490   -0.9490 c1        1 6TP     -0.360000
     24 C15        -3.7050    3.2280   -5.4720 c3        1 6TP     -0.076000
     25 C16        -0.7870   -0.6690    0.1500 c1        1 6TP      0.065000
     26 C17         1.3260   -1.1200    1.1970 c1        1 6TP     -0.012000
     27 C18         1.0130   -0.2300    2.2130 c1        1 6TP     -0.829000
     28 C19        -1.1010    0.2210    1.1650 c2        1 6TP     -0.160000
     29 H2          0.6460   -1.9670   -0.5500 ha        1 6TP      0.140000
     30 HN2        -5.3260   -4.5120   -3.4460 hn        1 6TP      0.229500
     31 HN2A       -4.2660   -4.6130   -2.2730 hn        1 6TP      0.229500
     32 H3          4.3050   -0.4700    5.4160 hc        1 6TP      0.088333
     33 H3A         5.8440   -0.0890    5.1940 hc        1 6TP      0.088333
     34 H3B         5.0890   -1.0200    4.1330 hc        1 6TP      0.088333
     35 HN3        -4.9050    1.5840   -5.3550 hn        1 6TP      0.224000
     36 H4          6.4870    1.7190    3.8560 hc        1 6TP      0.088333
     37 H4A         5.5110    2.3420    2.7520 hc        1 6TP      0.088333
     38 H4B         6.0830    0.8590    2.5680 hc        1 6TP      0.088333
     39 HN4         3.6900    0.7490    2.1420 hn        1 6TP      0.241000
     40 H5         -0.4210    1.0680    2.9110 ha        1 6TP      0.158000
     41 H6          3.5910    2.7210    4.4090 hc        1 6TP      0.088333
     42 H6A         3.4060    1.6020    5.5370 hc        1 6TP      0.088333
     43 H6B         4.7870    2.4030    5.4240 hc        1 6TP      0.088333
     44 H7         -2.7080   -2.8620   -0.5290 DU        1 6TP      0.152000
     45 H13        -4.5530   -1.0640   -6.0050 h4        1 6TP      0.163000
     46 H15        -3.2830    3.5740   -4.6560 h1        1 6TP      0.084333
     47 H15A       -4.5210    3.7400   -5.6600 h1        1 6TP      0.084333
     48 H15B       -3.0820    3.3170   -6.2250 h1        1 6TP      0.084333
     49 H17         2.1810   -1.5930    1.2080 ha        1 6TP      0.157000
     50 H19        -1.9540    0.6930    1.1540 ha        1 6TP      0.147000
@<TRIPOS>BOND
     1    1    9 1   
     2    1   12 1   
     3    1   13 1   
     4    1   15 1   
     5    2   22 1   
     6    3    8 1   
     7    4   18 1   
     8    4   23 1   
     9    5   25 1   
    10    5   29 1   
    11    6   19 1   
    12    6   30 1   
    13    6   31 1   
    14    7   21 1   
    15    8   11 1   
    16    9   32 1   
    17    9   33 1   
    18    9   34 1   
    19   10   21 1   
    20   10   24 1   
    21   10   35 1   
    22   12   36 1   
    23   12   37 1   
    24   12   38 1   
    25   13   39 1   
    26   14   28 1   
    27   14   40 1   
    28   15   41 1   
    29   15   42 1   
    30   15   43 1   
    31   16   17 1   
    32   16   23 1   
    33   17   19 1   
    34   18   20 1   
    35   20   22 1   
    36   22   45 1   
    37   24   46 1   
    38   24   47 1   
    39   24   48 1   
    40   25   28 1   
    41   26   27 1   
    42   26   49 1   
    43   28   50 1   
@<TRIPOS>SUBSTRUCTURE
     1 6TP         1 TEMP              0 ****  ****    0 ROOT
