@<TRIPOS>MOLECULE
6TP
   52    53     1     0     0
SMALL
bcc


@<TRIPOS>ATOM
      1 C1          0.3670    1.2170    0.3920 c3        1 6TP      0.161200
      2 N1         -6.2120   -4.2710   -9.1040 nh        1 6TP     -0.244500
      3 O1         -1.9080    0.1190   -1.9000 o         1 6TP     -0.565800
      4 S1         -2.9630   -5.1670   -6.1920 ss        1 6TP      0.168200
      5 C2          1.7860   -3.2110   -2.4820 c2        1 6TP     -0.196100
      6 O2         -2.7200   -7.4700   -8.3160 o         1 6TP     -0.490100
      7 S2         -0.5950   -0.3150   -1.8880 sy        1 6TP      1.458800
      8 C3         -0.4780    2.3410   -0.2110 c3        1 6TP     -0.135767
      9 N3         -4.1690   -7.6210  -10.1400 n4        1 6TP     -0.666800
     10 O3          0.3940    0.3730   -2.5610 o         1 6TP     -0.565800
     11 C4          0.2830    1.2970    1.9210 c3        1 6TP     -0.135767
     12 N4         -0.1640   -0.1370   -0.0680 n4        1 6TP     -0.716900
     13 C5         -1.6940   -2.7670   -1.8480 c3        1 6TP      0.081900
     14 C6          1.8280    1.3830   -0.0320 c3        1 6TP     -0.135767
     15 C7         -4.4950   -3.1380   -5.9210 cc        1 6TP     -0.058000
     16 C8         -4.9130   -3.8130   -7.1130 cc        1 6TP     -0.316900
     17 C9         -4.1190   -4.9740   -7.3670 cd        1 6TP      0.066100
     18 C10        -5.9870   -3.4430   -7.9920 ce        1 6TP      0.459400
     19 C11        -4.4140   -5.7510   -8.5110 cf        1 6TP     -0.379500
     20 C12        -3.6800   -6.9380   -8.8690 c         1 6TP      0.600300
     21 C13        -5.4740   -5.3680   -9.3610 c1        1 6TP     -0.053900
     22 C14        -3.4320   -3.7840   -5.3240 cd        1 6TP     -0.021100
     23 C15        -4.5150   -9.0370   -9.9060 c3        1 6TP      0.085100
     24 C16        -2.7990   -3.4160   -4.1440 ch        1 6TP     -0.052000
     25 C17         0.7000   -2.5620   -2.2230 c1        1 6TP      0.196200
     26 C18        -0.4360   -1.9360   -1.9700 ce        1 6TP     -0.537400
     27 C19        -2.2700   -3.1020   -3.1150 c1        1 6TP     -0.127100
     28 H2          2.4490   -3.6220   -1.6980 ha        1 6TP      0.209000
     29 HN2        -6.5610   -1.7850   -6.9540 hn        1 6TP      0.315700
     30 HN2A       -7.4960   -2.0760   -8.3520 hn        1 6TP      0.315700
     31 H3         -0.3340    2.4090   -1.3180 hc        1 6TP      0.079033
     32 H3A        -0.1430    3.3100    0.2370 hc        1 6TP      0.079033
     33 H3B        -1.5650    2.2110    0.0160 hc        1 6TP      0.079033
     34 HN3        -4.9990   -7.0940  -10.4860 hn        1 6TP      0.474800
     35 H4          0.8790    0.4850    2.4040 hc        1 6TP      0.079033
     36 H4A        -0.7750    1.2420    2.2730 hc        1 6TP      0.079033
     37 H4B         0.7060    2.2790    2.2500 hc        1 6TP      0.079033
     38 HN4        -1.0120   -0.3080    0.4760 hn        1 6TP      0.445800
     39 H5         -2.4600   -2.2000   -1.2400 hc        1 6TP      0.091200
     40 H6          1.9410    1.3690   -1.1440 hc        1 6TP      0.079033
     41 H6A         2.4740    0.5930    0.4210 hc        1 6TP      0.079033
     42 H6B         2.1860    2.3770    0.3380 hc        1 6TP      0.079033
     43 H7         -4.9600   -2.2290   -5.5310 ha        1 6TP      0.169000
     44 H13        -6.9510   -4.0540   -9.7460 hn        1 6TP      0.330700
     45 H15        -4.7840   -9.5200  -10.8840 hx        1 6TP      0.106367
     46 H15A       -5.3900   -9.0960   -9.2050 hx        1 6TP      0.106367
     47 H15B       -3.6350   -9.5680   -9.4500 hx        1 6TP      0.106367
     48 H17         2.1320   -3.3840   -3.5210 ha        1 6TP      0.209000
     49 H19        -1.4610   -3.7180   -1.2870 hc        1 6TP      0.091200
     50 H32        -3.4230   -7.5630  -10.8400 hn        1 6TP      0.474800
     51 H42         0.5220   -0.8320    0.2200 hn        1 6TP      0.445800
     52 N2         -6.7470   -2.3440   -7.7550 nh        1 6TP     -0.482100
@<TRIPOS>BOND
     1    1    8 1   
     2    1   11 1   
     3    1   12 1   
     4    1   14 1   
     5    2   18 1   
     6    2   21 2   
     7    2   44 1   
     8    3    7 2   
     9    4   17 1   
    10    4   22 1   
    11    5   25 2   
    12    5   28 1   
    13    5   48 1   
    14    6   20 2   
    15    7   10 2   
    16    7   12 1   
    17    7   26 1   
    18    8   31 1   
    19    8   32 1   
    20    8   33 1   
    21    9   20 1   
    22    9   23 1   
    23    9   34 1   
    24    9   50 1   
    25   11   35 1   
    26   11   36 1   
    27   11   37 1   
    28   12   38 1   
    29   12   51 1   
    30   13   26 1   
    31   13   27 1   
    32   13   39 1   
    33   13   49 1   
    34   14   40 1   
    35   14   41 1   
    36   14   42 1   
    37   15   16 1   
    38   15   22 2   
    39   15   43 1   
    40   16   17 2   
    41   16   18 1   
    42   17   19 1   
    43   18   52 2   
    44   19   20 1   
    45   19   21 2   
    46   22   24 1   
    47   23   45 1   
    48   23   46 1   
    49   23   47 1   
    50   24   27 3   
    51   25   26 2   
    52   29   52 1   
    53   30   52 1   
@<TRIPOS>SUBSTRUCTURE
     1 6TP         1 TEMP              0 ****  ****    0 ROOT
