@<TRIPOS>MOLECULE
6UA
   15    15     1     0     0
SMALL
bcc


@<TRIPOS>ATOM
      1 O2         -0.1690   -0.0010    0.0170 o         1 6UA     -0.454500
      2 C2          1.0620   -0.0020    0.0360 c         1 6UA      0.842900
      3 N3          1.8030   -0.0000    1.2270 n         1 6UA     -0.597500
      4 C4          3.1980   -0.0020    1.2760 c         1 6UA      0.706500
      5 O4          3.7950    0.0000    2.3550 o         1 6UA     -0.510500
      6 N1          1.7820   -0.0060   -1.2340 ne        1 6UA     -0.549100
      7 C6          3.0710   -0.0070   -1.2300 c2        1 6UA      0.530200
      8 N6          3.7680   -0.0110   -2.5500 n4        1 6UA     -0.815600
      9 C5          3.9820   -0.0060   -0.0320 c3        1 6UA     -0.259700
     10 H1          1.2910    0.0030    2.0920 hn        1 6UA      0.388500
     11 H2          3.0970   -0.0110   -3.3350 hn        1 6UA      0.483133
     12 H3          4.3600    0.8260   -2.6140 hn        1 6UA      0.483133
     13 H4          4.6430   -0.9180   -0.0240 hc        1 6UA      0.134700
     14 H5          4.6450    0.9050   -0.0280 hc        1 6UA      0.134700
     15 H63         4.3550   -0.8520   -2.6110 hn        1 6UA      0.483133
@<TRIPOS>BOND
     1    1    2 2   
     2    2    3 1   
     3    2    6 1   
     4    3    4 1   
     5    3   10 1   
     6    4    5 2   
     7    4    9 1   
     8    6    7 2   
     9    7    8 1   
    10    7    9 1   
    11    8   11 1   
    12    8   12 1   
    13    8   15 1   
    14    9   13 1   
    15    9   14 1   
@<TRIPOS>SUBSTRUCTURE
     1 6UA         1 TEMP              0 ****  ****    0 ROOT
