@<TRIPOS>MOLECULE
6UA
   15    15     1     0     0
SMALL
bcc


@<TRIPOS>ATOM
      1 O2         -0.1700    0.0270    0.0180 o         1 6UA     -0.454500
      2 C2          1.0610    0.0140    0.0360 c         1 6UA      0.842900
      3 N3          1.8030    0.0020    1.2270 ns        1 6UA     -0.597500
      4 C4          3.1980   -0.0140    1.2750 c         1 6UA      0.706500
      5 O4          3.7950   -0.0240    2.3540 o         1 6UA     -0.510500
      6 N1          1.7800    0.0100   -1.2340 ne        1 6UA     -0.549100
      7 C6          3.0690   -0.0050   -1.2310 c2        1 6UA      0.530200
      8 N6          3.7660   -0.0080   -2.5520 nz        1 6UA     -0.815600
      9 C5          3.9810   -0.0190   -0.0330 c3        1 6UA     -0.259700
     10 H1          1.2910    0.0040    2.0920 hn        1 6UA      0.388500
     11 H2          4.3650    0.8240   -2.6110 hn        1 6UA      0.483133
     12 H3          4.3450   -0.8540   -2.6170 hn        1 6UA      0.483133
     13 H4          4.6330   -0.9370   -0.0300 hc        1 6UA      0.134700
     14 H5          4.6530    0.8850   -0.0250 hc        1 6UA      0.134700
     15 H63         3.0940    0.0030   -3.3360 hn        1 6UA      0.483133
@<TRIPOS>BOND
     1    1    2 2   
     2    2    3 1   
     3    2    6 1   
     4    3    4 1   
     5    3   10 1   
     6    4    5 2   
     7    4    9 1   
     8    6    7 2   
     9    7    8 1   
    10    7    9 1   
    11    8   11 1   
    12    8   12 1   
    13    8   15 1   
    14    9   13 1   
    15    9   14 1   
@<TRIPOS>SUBSTRUCTURE
     1 6UA         1 TEMP              0 ****  ****    0 ROOT
