@<TRIPOS>MOLECULE
6UI
   38    41     1     0     0
SMALL
bcc


@<TRIPOS>ATOM
      1 CAW        -0.1270    0.0330   -0.0690 c3        1 6UI      0.114700
      2 OAV         1.2940    0.0530   -0.0240 os        1 6UI     -0.327900
      3 CAS         1.8700    0.0330    1.2330 ca        1 6UI      0.125100
      4 CAR         3.2560    0.0810    1.2520 ca        1 6UI     -0.161000
      5 CAT         1.1240   -0.0360    2.4400 ca        1 6UI     -0.187000
      6 CAU         1.7850   -0.0560    3.6430 ca        1 6UI     -0.080000
      7 CAP         3.2040   -0.0090    3.7010 ca        1 6UI     -0.073000
      8 CAQ         3.8950   -0.0280    4.9420 ca        1 6UI     -0.073000
      9 CAO         3.9410    0.0610    2.4900 ca        1 6UI     -0.001000
     10 CAN         5.3620    0.1130    2.5550 ca        1 6UI     -0.131000
     11 CAM         6.0100    0.0880    3.7620 ca        1 6UI     -0.108000
     12 CAL         5.2740    0.0120    4.9790 ca        1 6UI     -0.129500
     13 CAK         5.9840    0.0090    6.2480 cc        1 6UI      0.390800
     14 NAJ         5.5160    0.7050    7.3730 nc        1 6UI     -0.661000
     15 CAI         6.4270    0.5010    8.3460 cd        1 6UI      0.405400
     16 NAH         7.4800   -0.2990    7.9050 na        1 6UI     -0.312900
     17 CAG         7.2130   -0.6340    6.5670 cd        1 6UI     -0.168600
     18 CAF         8.0770   -1.4970    5.7900 ca        1 6UI      0.027000
     19 CAA         9.4700   -1.4820    5.9670 ca        1 6UI     -0.240300
     20 CAB        10.2570   -2.3580    5.1990 ca        1 6UI      0.395700
     21 NAC         9.7510   -3.2200    4.2960 nb        1 6UI     -0.662000
     22 CAD         8.4140   -3.2230    4.1330 ca        1 6UI      0.395700
     23 CAE         7.5380   -2.3890    4.8500 ca        1 6UI     -0.240300
     24 HAW1       -0.5230   -0.9090    0.3810 h1        1 6UI      0.044367
     25 HAW2       -0.3520    0.0700   -1.1650 h1        1 6UI      0.044367
     26 HAW3       -0.5530    0.9260    0.4500 h1        1 6UI      0.044367
     27 HAR         3.8210    0.1360    0.3110 ha        1 6UI      0.150000
     28 HAT         0.0260   -0.0720    2.4100 ha        1 6UI      0.138000
     29 HAU         1.2210   -0.1070    4.5880 ha        1 6UI      0.136000
     30 HAQ         3.3080   -0.0690    5.8730 ha        1 6UI      0.148000
     31 HAN         5.9290    0.1770    1.6140 ha        1 6UI      0.137000
     32 HAM         7.1090    0.1300    3.8120 ha        1 6UI      0.139000
     33 HAI         6.3740    0.9060    9.3620 h5        1 6UI      0.065100
     34 HAH         8.2550   -0.6110    8.4260 hn        1 6UI      0.305700
     35 HAA         9.9500   -0.7940    6.6740 ha        1 6UI      0.150500
     36 HAE         6.4540   -2.4270    4.6730 ha        1 6UI      0.150500
     37 HAB        11.3560   -2.3700    5.3110 h4        1 6UI      0.025100
     38 HAD         8.0220   -3.9360    3.3850 h4        1 6UI      0.025100
@<TRIPOS>BOND
     1    1    2 1   
     2    1   24 1   
     3    1   25 1   
     4    1   26 1   
     5    2    3 1   
     6    3    4 ar  
     7    3    5 ar  
     8    4    9 ar  
     9    4   27 1   
    10    5    6 ar  
    11    5   28 1   
    12    6    7 ar  
    13    6   29 1   
    14    7    8 ar  
    15    7    9 ar  
    16    8   12 ar  
    17    8   30 1   
    18    9   10 ar  
    19   10   11 ar  
    20   10   31 1   
    21   11   12 ar  
    22   11   32 1   
    23   12   13 1   
    24   13   14 1   
    25   13   17 2   
    26   14   15 2   
    27   15   16 1   
    28   15   33 1   
    29   16   17 1   
    30   16   34 1   
    31   17   18 1   
    32   18   19 ar  
    33   18   23 ar  
    34   19   20 ar  
    35   19   35 1   
    36   20   21 ar  
    37   20   37 1   
    38   21   22 ar  
    39   22   23 ar  
    40   22   38 1   
    41   23   36 1   
@<TRIPOS>SUBSTRUCTURE
     1 6UI         1 TEMP              0 ****  ****    0 ROOT
