@<TRIPOS>MOLECULE
6UL
  122   121     1     0     0
SMALL
bcc


@<TRIPOS>ATOM
      1 CBP       -13.0610   -5.1900  -19.2570 c3        1 6UL     -0.092100
      2 CBN       -11.9320   -4.4140  -18.5850 c3        1 6UL     -0.080400
      3 CAX       -12.3810   -3.9620  -17.1880 c3        1 6UL     -0.079400
      4 CAY       -11.2380   -3.1700  -16.5070 c3        1 6UL     -0.079400
      5 CAZ       -11.6450   -2.8270  -15.0460 c3        1 6UL     -0.079400
      6 CBA       -10.5030   -2.0320  -14.3630 c3        1 6UL     -0.079400
      7 CBB       -10.8310   -1.8430  -12.8610 c3        1 6UL     -0.079400
      8 CBC        -9.6110   -1.2500  -12.1410 c3        1 6UL     -0.079400
      9 CBD        -9.8940   -1.1650  -10.6290 c3        1 6UL     -0.079400
     10 CBE        -8.6570   -0.5800   -9.9080 c3        1 6UL     -0.079400
     11 CBF        -8.8890   -0.6060   -8.3690 c3        1 6UL     -0.079400
     12 CBG        -7.5520   -0.3170   -7.6400 c3        1 6UL     -0.079400
     13 CBH        -7.7820   -0.3240   -6.1250 c3        1 6UL     -0.079400
     14 CBI        -6.4680   -0.6670   -5.4090 c3        1 6UL     -0.079400
     15 CBJ        -6.5770   -0.2810   -3.9250 c3        1 6UL     -0.079400
     16 CBK        -5.4330   -0.9420   -3.1380 c3        1 6UL     -0.079400
     17 CBL        -5.1780   -0.1520   -1.8370 c3        1 6UL     -0.079400
     18 CBM        -4.1850   -0.9360   -0.9420 c3        1 6UL     -0.079400
     19 CAW        -3.5700    0.0180    0.1030 c3        1 6UL     -0.079400
     20 CAV        -2.6320   -0.7770    1.0350 c3        1 6UL     -0.079400
     21 CAU        -1.6140    0.1860    1.6850 c3        1 6UL     -0.078400
     22 CAT        -0.7150   -0.5950    2.6570 c3        1 6UL     -0.075400
     23 CAS         0.5200    0.2610    3.0120 c3        1 6UL     -0.111400
     24 CAR         1.2990   -0.4060    4.1830 c3        1 6UL      0.138400
     25 OAQ         2.6910   -0.0060    4.1280 os        1 6UL     -0.443900
     26 CAP         3.3960   -0.1560    5.3900 c         1 6UL      0.631100
     27 OBO         2.8130    0.0380    6.4370 o         1 6UL     -0.543000
     28 CAO         4.9180   -0.4660    5.3960 c3        1 6UL     -0.128400
     29 CAN         5.6590    0.6260    6.1750 c3        1 6UL     -0.079400
     30 CAM         7.0020    0.0730    6.6880 c3        1 6UL     -0.078400
     31 CAL         7.8480    1.2250    7.2370 c3        1 6UL     -0.079400
     32 CAK         8.7650    0.7020    8.3640 c3        1 6UL     -0.079400
     33 CAJ         9.7940    1.8050    8.7510 c3        1 6UL     -0.079400
     34 CAI        10.3270    1.5330   10.1830 c3        1 6UL     -0.079400
     35 CAH        11.5520    2.4520   10.4660 c3        1 6UL     -0.079400
     36 CAG        11.5740    2.8370   11.9680 c3        1 6UL     -0.079400
     37 CAF        13.0410    2.9180   12.4600 c3        1 6UL     -0.079400
     38 CAE        13.0730    3.4760   13.9120 c3        1 6UL     -0.079400
     39 CAD        14.4970    3.3470   14.4790 c3        1 6UL     -0.079400
     40 CAC        14.5430    3.9440   15.8930 c3        1 6UL     -0.079400
     41 CAB        15.9910    3.9330   16.4090 c3        1 6UL     -0.080400
     42 CAA        15.9930    4.1080   17.9310 c3        1 6UL     -0.092100
     43 HBP1      -12.7290   -5.6000  -20.0850 hc        1 6UL      0.032700
     44 HBP2      -13.7960   -4.5790  -19.4670 hc        1 6UL      0.032700
     45 HBP3      -13.3820   -5.8900  -18.6510 hc        1 6UL      0.032700
     46 HBN1      -11.7090   -3.6310  -19.1240 hc        1 6UL      0.038700
     47 HBN2      -11.1440   -4.9890  -18.5040 hc        1 6UL      0.038700
     48 HAX1      -13.1770   -3.3860  -17.2700 hc        1 6UL      0.039700
     49 HAX2      -12.6010   -4.7450  -16.6480 hc        1 6UL      0.039700
     50 HAY1      -11.0740   -2.3400  -17.0040 hc        1 6UL      0.039700
     51 HAY2      -10.4230   -3.7130  -16.5000 hc        1 6UL      0.039700
     52 HAZ1      -12.4590   -2.2860  -15.0520 hc        1 6UL      0.039700
     53 HAZ2      -11.8080   -3.6590  -14.5470 hc        1 6UL      0.039700
     54 HBA1       -9.6640   -2.5240  -14.4540 hc        1 6UL      0.039700
     55 HBA2      -10.4150   -1.1580  -14.7900 hc        1 6UL      0.039700
     56 HBB1      -11.5980   -1.2300  -12.7660 hc        1 6UL      0.039700
     57 HBB2      -11.0540   -2.7070  -12.4650 hc        1 6UL      0.039700
     58 HBC1       -9.4300   -0.3530  -12.4900 hc        1 6UL      0.039700
     59 HBC2       -8.8300   -1.8230  -12.2960 hc        1 6UL      0.039700
     60 HBD1      -10.0810   -2.0570  -10.2830 hc        1 6UL      0.039700
     61 HBD2      -10.6660   -0.5860  -10.4740 hc        1 6UL      0.039700
     62 HBE1       -7.8690   -1.1160  -10.1270 hc        1 6UL      0.039700
     63 HBE2       -8.5160    0.3400  -10.2000 hc        1 6UL      0.039700
     64 HBF1       -9.5510    0.0830   -8.1250 hc        1 6UL      0.039700
     65 HBF2       -9.2240   -1.4920   -8.1010 hc        1 6UL      0.039700
     66 HBG1       -6.8960   -1.0080   -7.8740 hc        1 6UL      0.039700
     67 HBG2       -7.2140    0.5570   -7.9130 hc        1 6UL      0.039700
     68 HBH1       -8.0880    0.5550   -5.8390 hc        1 6UL      0.039700
     69 HBH2       -8.4570   -0.9920   -5.9020 hc        1 6UL      0.039700
     70 HBI1       -6.2970   -1.6210   -5.4830 hc        1 6UL      0.039700
     71 HBI2       -5.7320   -0.1710   -5.8210 hc        1 6UL      0.039700
     72 HBJ1       -7.4350   -0.5860   -3.5710 hc        1 6UL      0.039700
     73 HBJ2       -6.5150    0.6940   -3.8350 hc        1 6UL      0.039700
     74 HBK1       -4.6200   -0.9440   -3.6830 hc        1 6UL      0.039700
     75 HBK2       -5.6810   -1.8660   -2.9160 hc        1 6UL      0.039700
     76 HBL1       -6.0240   -0.0310   -1.3580 hc        1 6UL      0.039700
     77 HBL2       -4.7970    0.7290   -2.0580 hc        1 6UL      0.039700
     78 HBM1       -3.4720   -1.3130   -1.4980 hc        1 6UL      0.039700
     79 HBM2       -4.6590   -1.6600   -0.4840 hc        1 6UL      0.039700
     80 HAW1       -4.2880    0.4280    0.6340 hc        1 6UL      0.040200
     81 HAW2       -3.0620    0.7160   -0.3520 hc        1 6UL      0.040200
     82 HAV1       -2.1530   -1.4560    0.5150 hc        1 6UL      0.039700
     83 HAV2       -3.1610   -1.2150    1.7360 hc        1 6UL      0.039700
     84 HAU1       -2.0930    0.8860    2.1750 hc        1 6UL      0.041700
     85 HAU2       -1.0610    0.5960    0.9870 hc        1 6UL      0.041700
     86 HAT1       -1.2140   -0.7990    3.4690 hc        1 6UL      0.041200
     87 HAT2       -0.4260   -1.4230    2.2370 hc        1 6UL      0.041200
     88 HAS1        1.1060    0.3310    2.2270 hc        1 6UL      0.056200
     89 HAS2        0.2260    1.1630    3.2840 hc        1 6UL      0.056200
     90 HAR1        0.9120   -0.1230    5.0350 h1        1 6UL      0.062700
     91 HAR2        1.2360   -1.3830    4.1040 h1        1 6UL      0.062700
     92 HAO1        5.2510   -0.4920    4.4750 hc        1 6UL      0.077700
     93 HAO2        5.0730   -1.3320    5.8230 hc        1 6UL      0.077700
     94 HAN1        5.1120    0.9120    6.9350 hc        1 6UL      0.057700
     95 HAN2        5.8250    1.3910    5.5850 hc        1 6UL      0.057700
     96 HAM1        7.4800   -0.3610    5.9500 hc        1 6UL      0.041200
     97 HAM2        6.8390   -0.5720    7.3920 hc        1 6UL      0.041200
     98 HAL1        7.2630    1.9160    7.5900 hc        1 6UL      0.042700
     99 HAL2        8.3980    1.6000    6.5140 hc        1 6UL      0.042700
    100 HAK1        8.2190    0.4720    9.1510 hc        1 6UL      0.039700
    101 HAK2        9.2430   -0.0970    8.0520 hc        1 6UL      0.039700
    102 HAJ1        9.3610    2.6780    8.7260 hc        1 6UL      0.040200
    103 HAJ2       10.5390    1.7930    8.1190 hc        1 6UL      0.040200
    104 HAI1       10.5980    0.5970   10.2570 hc        1 6UL      0.039700
    105 HAI2        9.6210    1.7210   10.8360 hc        1 6UL      0.039700
    106 HAH1       12.3750    1.9760   10.2390 hc        1 6UL      0.039700
    107 HAH2       11.4840    3.2640    9.9220 hc        1 6UL      0.039700
    108 HAG1       11.0970    2.1620   12.4830 hc        1 6UL      0.039700
    109 HAG2       11.1410    3.7070   12.0880 hc        1 6UL      0.039700
    110 HAF1       13.5510    3.5130   11.8690 hc        1 6UL      0.039700
    111 HAF2       13.4400    2.0220   12.4450 hc        1 6UL      0.039700
    112 HAE1       12.8070    4.4230   13.9050 hc        1 6UL      0.039700
    113 HAE2       12.4550    2.9690   14.4690 hc        1 6UL      0.039700
    114 HAD1       15.1210    3.8280   13.9030 hc        1 6UL      0.039700
    115 HAD2       14.7480    2.4080   14.5150 hc        1 6UL      0.039700
    116 HAC1       14.2130    4.8640   15.8690 hc        1 6UL      0.039700
    117 HAC2       13.9800    3.4110   16.4900 hc        1 6UL      0.039700
    118 HAB1       16.4150    3.0770   16.1770 hc        1 6UL      0.038700
    119 HAB2       16.4910    4.6670   15.9950 hc        1 6UL      0.038700
    120 HAA1       15.5530    4.9560   18.1630 hc        1 6UL      0.032700
    121 HAA2       16.9160    4.1190   18.2560 hc        1 6UL      0.032700
    122 HAA3       15.5110    3.3670   18.3440 hc        1 6UL      0.032700
@<TRIPOS>BOND
     1    1    2 1   
     2    1   43 1   
     3    1   44 1   
     4    1   45 1   
     5    2    3 1   
     6    2   46 1   
     7    2   47 1   
     8    3    4 1   
     9    3   48 1   
    10    3   49 1   
    11    4    5 1   
    12    4   50 1   
    13    4   51 1   
    14    5    6 1   
    15    5   52 1   
    16    5   53 1   
    17    6    7 1   
    18    6   54 1   
    19    6   55 1   
    20    7    8 1   
    21    7   56 1   
    22    7   57 1   
    23    8    9 1   
    24    8   58 1   
    25    8   59 1   
    26    9   10 1   
    27    9   60 1   
    28    9   61 1   
    29   10   11 1   
    30   10   62 1   
    31   10   63 1   
    32   11   12 1   
    33   11   64 1   
    34   11   65 1   
    35   12   13 1   
    36   12   66 1   
    37   12   67 1   
    38   13   14 1   
    39   13   68 1   
    40   13   69 1   
    41   14   15 1   
    42   14   70 1   
    43   14   71 1   
    44   15   16 1   
    45   15   72 1   
    46   15   73 1   
    47   16   17 1   
    48   16   74 1   
    49   16   75 1   
    50   17   18 1   
    51   17   76 1   
    52   17   77 1   
    53   18   19 1   
    54   18   78 1   
    55   18   79 1   
    56   19   20 1   
    57   19   80 1   
    58   19   81 1   
    59   20   21 1   
    60   20   82 1   
    61   20   83 1   
    62   21   22 1   
    63   21   84 1   
    64   21   85 1   
    65   22   23 1   
    66   22   86 1   
    67   22   87 1   
    68   23   24 1   
    69   23   88 1   
    70   23   89 1   
    71   24   25 1   
    72   24   90 1   
    73   24   91 1   
    74   25   26 1   
    75   26   27 2   
    76   26   28 1   
    77   28   29 1   
    78   28   92 1   
    79   28   93 1   
    80   29   30 1   
    81   29   94 1   
    82   29   95 1   
    83   30   31 1   
    84   30   96 1   
    85   30   97 1   
    86   31   32 1   
    87   31   98 1   
    88   31   99 1   
    89   32   33 1   
    90   32  100 1   
    91   32  101 1   
    92   33   34 1   
    93   33  102 1   
    94   33  103 1   
    95   34   35 1   
    96   34  104 1   
    97   34  105 1   
    98   35   36 1   
    99   35  106 1   
   100   35  107 1   
   101   36   37 1   
   102   36  108 1   
   103   36  109 1   
   104   37   38 1   
   105   37  110 1   
   106   37  111 1   
   107   38   39 1   
   108   38  112 1   
   109   38  113 1   
   110   39   40 1   
   111   39  114 1   
   112   39  115 1   
   113   40   41 1   
   114   40  116 1   
   115   40  117 1   
   116   41   42 1   
   117   41  118 1   
   118   41  119 1   
   119   42  120 1   
   120   42  121 1   
   121   42  122 1   
@<TRIPOS>SUBSTRUCTURE
     1 6UL         1 TEMP              0 ****  ****    0 ROOT
