@<TRIPOS>MOLECULE
6UL
  122   121     1     0     0
SMALL
bcc


@<TRIPOS>ATOM
      1 CBP        24.9930   -1.1580   -0.0130 c3        1 6UL     -0.092100
      2 CBN        23.7960   -0.2430   -0.0030 c3        1 6UL     -0.080400
      3 CAX        22.4990   -1.0240   -0.0110 c3        1 6UL     -0.079400
      4 CAY        21.2990   -0.1010   -0.0010 c3        1 6UL     -0.079400
      5 CAZ        20.0040   -0.8830   -0.0100 c3        1 6UL     -0.079400
      6 CBA        18.8040    0.0410    0.0010 c3        1 6UL     -0.079400
      7 CBB        17.5080   -0.7420   -0.0080 c3        1 6UL     -0.079400
      8 CBC        16.3090    0.1820    0.0020 c3        1 6UL     -0.079400
      9 CBD        15.0130   -0.6000   -0.0070 c3        1 6UL     -0.079400
     10 CBE        13.8140    0.3230    0.0040 c3        1 6UL     -0.079400
     11 CBF        12.5180   -0.4590   -0.0050 c3        1 6UL     -0.079400
     12 CBG        11.3190    0.4650    0.0050 c3        1 6UL     -0.079400
     13 CBH        10.0230   -0.3170   -0.0040 c3        1 6UL     -0.079400
     14 CBI         8.8240    0.6070    0.0060 c3        1 6UL     -0.079400
     15 CBJ         7.5270   -0.1750   -0.0020 c3        1 6UL     -0.079400
     16 CBK         6.3290    0.7490    0.0080 c3        1 6UL     -0.079400
     17 CBL         5.0320   -0.0320   -0.0010 c3        1 6UL     -0.079400
     18 CBM         3.8340    0.8920    0.0100 c3        1 6UL     -0.079400
     19 CAW         2.5370    0.1100    0.0010 c3        1 6UL     -0.079400
     20 CAV         1.3390    1.0350    0.0110 c3        1 6UL     -0.079400
     21 CAU         0.0430    0.2530    0.0030 c3        1 6UL     -0.078400
     22 CAT        -1.1550    1.1790    0.0130 c3        1 6UL     -0.078400
     23 CAS        -2.4480    0.3930    0.0040 c3        1 6UL     -0.085400
     24 CAR        -3.6340    1.3390    0.0150 c3        1 6UL      0.140400
     25 OAQ        -4.8070    0.5070    0.0060 os        1 6UL     -0.447900
     26 CAP        -6.0140    1.1520    0.0140 c         1 6UL      0.631100
     27 OBO        -6.0160    2.3850    0.0280 o         1 6UL     -0.542000
     28 CAO        -7.1680    0.1990    0.0030 c3        1 6UL     -0.127400
     29 CAN        -8.4900    0.9350    0.0110 c3        1 6UL     -0.078400
     30 CAM        -9.6480   -0.0390    0.0000 c3        1 6UL     -0.079400
     31 CAL       -10.9730    0.6910    0.0080 c3        1 6UL     -0.078400
     32 CAK       -12.1350   -0.2800   -0.0030 c3        1 6UL     -0.079400
     33 CAJ       -13.4600    0.4500    0.0050 c3        1 6UL     -0.079400
     34 CAI       -14.6220   -0.5200   -0.0050 c3        1 6UL     -0.078400
     35 CAH       -15.9480    0.2100    0.0020 c3        1 6UL     -0.079400
     36 CAG       -17.1100   -0.7600   -0.0080 c3        1 6UL     -0.079400
     37 CAF       -18.4350   -0.0300   -0.0010 c3        1 6UL     -0.079400
     38 CAE       -19.5970   -1.0000   -0.0110 c3        1 6UL     -0.078400
     39 CAD       -20.9230   -0.2690   -0.0030 c3        1 6UL     -0.079400
     40 CAC       -22.0850   -1.2390   -0.0140 c3        1 6UL     -0.079400
     41 CAB       -23.4120   -0.5100   -0.0060 c3        1 6UL     -0.080400
     42 CAA       -24.5720   -1.4710   -0.0160 c3        1 6UL     -0.092100
     43 HBP1       25.9370   -0.5620   -0.0060 hc        1 6UL      0.032700
     44 HBP2       24.9890   -1.8220    0.8850 hc        1 6UL      0.032700
     45 HBP3       24.9890   -1.8020   -0.9250 hc        1 6UL      0.032700
     46 HBN1       23.8300    0.4130    0.9070 hc        1 6UL      0.038700
     47 HBN2       23.8310    0.4330   -0.8970 hc        1 6UL      0.038700
     48 HAX1       22.4620   -1.6790   -0.9210 hc        1 6UL      0.039700
     49 HAX2       22.4620   -1.6990    0.8840 hc        1 6UL      0.039700
     50 HAY1       21.3370    0.5550    0.9090 hc        1 6UL      0.039700
     51 HAY2       21.3370    0.5750   -0.8960 hc        1 6UL      0.039700
     52 HAZ1       19.9660   -1.5380   -0.9200 hc        1 6UL      0.039700
     53 HAZ2       19.9660   -1.5580    0.8850 hc        1 6UL      0.039700
     54 HBA1       18.8420    0.6960    0.9100 hc        1 6UL      0.039700
     55 HBA2       18.8420    0.7160   -0.8950 hc        1 6UL      0.039700
     56 HBB1       17.4710   -1.3970   -0.9180 hc        1 6UL      0.039700
     57 HBB2       17.4710   -1.4170    0.8870 hc        1 6UL      0.039700
     58 HBC1       16.3470    0.8370    0.9120 hc        1 6UL      0.039700
     59 HBC2       16.3470    0.8570   -0.8930 hc        1 6UL      0.039700
     60 HBD1       14.9750   -1.2560   -0.9170 hc        1 6UL      0.039700
     61 HBD2       14.9750   -1.2760    0.8880 hc        1 6UL      0.039700
     62 HBE1       13.8520    0.9780    0.9130 hc        1 6UL      0.039700
     63 HBE2       13.8520    0.9990   -0.8920 hc        1 6UL      0.039700
     64 HBF1       12.4800   -1.1140   -0.9150 hc        1 6UL      0.039700
     65 HBF2       12.4800   -1.1340    0.8900 hc        1 6UL      0.039700
     66 HBG1       11.3570    1.1200    0.9150 hc        1 6UL      0.039700
     67 HBG2       11.3570    1.1400   -0.8900 hc        1 6UL      0.039700
     68 HBH1        9.9850   -0.9720   -0.9140 hc        1 6UL      0.039700
     69 HBH2        9.9850   -0.9920    0.8910 hc        1 6UL      0.039700
     70 HBI1        8.8620    1.2620    0.9160 hc        1 6UL      0.039700
     71 HBI2        8.8620    1.2820   -0.8890 hc        1 6UL      0.039700
     72 HBJ1        7.4900   -0.8300   -0.9120 hc        1 6UL      0.039700
     73 HBJ2        7.4890   -0.8500    0.8930 hc        1 6UL      0.039700
     74 HBK1        6.3670    1.4040    0.9180 hc        1 6UL      0.039700
     75 HBK2        6.3670    1.4250   -0.8870 hc        1 6UL      0.039700
     76 HBL1        4.9940   -0.6880   -0.9110 hc        1 6UL      0.039700
     77 HBL2        4.9940   -0.7080    0.8940 hc        1 6UL      0.039700
     78 HBM1        3.8720    1.5470    0.9200 hc        1 6UL      0.039700
     79 HBM2        3.8720    1.5670   -0.8850 hc        1 6UL      0.039700
     80 HAW1        2.4990   -0.5450   -0.9090 hc        1 6UL      0.039700
     81 HAW2        2.4990   -0.5650    0.8960 hc        1 6UL      0.039700
     82 HAV1        1.3770    1.6900    0.9210 hc        1 6UL      0.040700
     83 HAV2        1.3770    1.7100   -0.8840 hc        1 6UL      0.040700
     84 HAU1        0.0040   -0.4020   -0.9080 hc        1 6UL      0.041700
     85 HAU2        0.0040   -0.4220    0.8980 hc        1 6UL      0.041700
     86 HAT1       -1.1170    1.8330    0.9240 hc        1 6UL      0.042700
     87 HAT2       -1.1170    1.8540   -0.8820 hc        1 6UL      0.042700
     88 HAS1       -2.4990   -0.2600   -0.9050 hc        1 6UL      0.053700
     89 HAS2       -2.4990   -0.2800    0.8990 hc        1 6UL      0.053700
     90 HAR1       -3.6510    1.9780    0.9360 h1        1 6UL      0.051700
     91 HAR2       -3.6510    1.9990   -0.8910 h1        1 6UL      0.051700
     92 HAO1       -7.0820   -0.4500   -0.9090 hc        1 6UL      0.078700
     93 HAO2       -7.0820   -0.4690    0.9010 hc        1 6UL      0.078700
     94 HAN1       -8.5480    1.5920    0.9190 hc        1 6UL      0.057700
     95 HAN2       -8.5480    1.6110   -0.8830 hc        1 6UL      0.057700
     96 HAM1       -9.5840   -0.6930   -0.9100 hc        1 6UL      0.039700
     97 HAM2       -9.5840   -0.7120    0.8960 hc        1 6UL      0.039700
     98 HAL1      -11.0370    1.3450    0.9170 hc        1 6UL      0.042700
     99 HAL2      -11.0370    1.3640   -0.8880 hc        1 6UL      0.042700
    100 HAK1      -12.0700   -0.9340   -0.9120 hc        1 6UL      0.039700
    101 HAK2      -12.0710   -0.9530    0.8930 hc        1 6UL      0.039700
    102 HAJ1      -13.5240    1.1040    0.9140 hc        1 6UL      0.040700
    103 HAJ2      -13.5240    1.1230   -0.8910 hc        1 6UL      0.040700
    104 HAI1      -14.5580   -1.1740   -0.9150 hc        1 6UL      0.039700
    105 HAI2      -14.5580   -1.1930    0.8900 hc        1 6UL      0.039700
    106 HAH1      -16.0120    0.8640    0.9110 hc        1 6UL      0.039700
    107 HAH2      -16.0120    0.8830   -0.8930 hc        1 6UL      0.039700
    108 HAG1      -17.0460   -1.4140   -0.9180 hc        1 6UL      0.039700
    109 HAG2      -17.0460   -1.4330    0.8870 hc        1 6UL      0.039700
    110 HAF1      -18.4990    0.6240    0.9090 hc        1 6UL      0.039700
    111 HAF2      -18.4990    0.6430   -0.8960 hc        1 6UL      0.039700
    112 HAE1      -19.5330   -1.6530   -0.9200 hc        1 6UL      0.039700
    113 HAE2      -19.5340   -1.6730    0.8850 hc        1 6UL      0.039700
    114 HAD1      -20.9870    0.3850    0.9060 hc        1 6UL      0.039700
    115 HAD2      -20.9870    0.4040   -0.8990 hc        1 6UL      0.039700
    116 HAC1      -22.0220   -1.8930   -0.9230 hc        1 6UL      0.039700
    117 HAC2      -22.0220   -1.9120    0.8820 hc        1 6UL      0.039700
    118 HAB1      -23.4730    0.1450    0.9030 hc        1 6UL      0.038700
    119 HAB2      -23.4730    0.1640   -0.9010 hc        1 6UL      0.038700
    120 HAA1      -24.5420   -2.1160   -0.9280 hc        1 6UL      0.032700
    121 HAA2      -24.5420   -2.1350    0.8820 hc        1 6UL      0.032700
    122 HAA3      -25.5390   -0.9130   -0.0100 hc        1 6UL      0.032700
@<TRIPOS>BOND
     1    1    2 1   
     2    1   43 1   
     3    1   44 1   
     4    1   45 1   
     5    2    3 1   
     6    2   46 1   
     7    2   47 1   
     8    3    4 1   
     9    3   48 1   
    10    3   49 1   
    11    4    5 1   
    12    4   50 1   
    13    4   51 1   
    14    5    6 1   
    15    5   52 1   
    16    5   53 1   
    17    6    7 1   
    18    6   54 1   
    19    6   55 1   
    20    7    8 1   
    21    7   56 1   
    22    7   57 1   
    23    8    9 1   
    24    8   58 1   
    25    8   59 1   
    26    9   10 1   
    27    9   60 1   
    28    9   61 1   
    29   10   11 1   
    30   10   62 1   
    31   10   63 1   
    32   11   12 1   
    33   11   64 1   
    34   11   65 1   
    35   12   13 1   
    36   12   66 1   
    37   12   67 1   
    38   13   14 1   
    39   13   68 1   
    40   13   69 1   
    41   14   15 1   
    42   14   70 1   
    43   14   71 1   
    44   15   16 1   
    45   15   72 1   
    46   15   73 1   
    47   16   17 1   
    48   16   74 1   
    49   16   75 1   
    50   17   18 1   
    51   17   76 1   
    52   17   77 1   
    53   18   19 1   
    54   18   78 1   
    55   18   79 1   
    56   19   20 1   
    57   19   80 1   
    58   19   81 1   
    59   20   21 1   
    60   20   82 1   
    61   20   83 1   
    62   21   22 1   
    63   21   84 1   
    64   21   85 1   
    65   22   23 1   
    66   22   86 1   
    67   22   87 1   
    68   23   24 1   
    69   23   88 1   
    70   23   89 1   
    71   24   25 1   
    72   24   90 1   
    73   24   91 1   
    74   25   26 1   
    75   26   27 2   
    76   26   28 1   
    77   28   29 1   
    78   28   92 1   
    79   28   93 1   
    80   29   30 1   
    81   29   94 1   
    82   29   95 1   
    83   30   31 1   
    84   30   96 1   
    85   30   97 1   
    86   31   32 1   
    87   31   98 1   
    88   31   99 1   
    89   32   33 1   
    90   32  100 1   
    91   32  101 1   
    92   33   34 1   
    93   33  102 1   
    94   33  103 1   
    95   34   35 1   
    96   34  104 1   
    97   34  105 1   
    98   35   36 1   
    99   35  106 1   
   100   35  107 1   
   101   36   37 1   
   102   36  108 1   
   103   36  109 1   
   104   37   38 1   
   105   37  110 1   
   106   37  111 1   
   107   38   39 1   
   108   38  112 1   
   109   38  113 1   
   110   39   40 1   
   111   39  114 1   
   112   39  115 1   
   113   40   41 1   
   114   40  116 1   
   115   40  117 1   
   116   41   42 1   
   117   41  118 1   
   118   41  119 1   
   119   42  120 1   
   120   42  121 1   
   121   42  122 1   
@<TRIPOS>SUBSTRUCTURE
     1 6UL         1 TEMP              0 ****  ****    0 ROOT
