@<TRIPOS>MOLECULE
6UL
  122   121     1     0     0
SMALL
bcc


@<TRIPOS>ATOM
      1 CBP        -0.2870   -0.0000    0.5930 c3        1 6UL     -0.092100
      2 CBN         1.2190   -0.0000    0.5440 c3        1 6UL     -0.080400
      3 CAX         1.8200   -0.0000    1.9340 c3        1 6UL     -0.079400
      4 CAY         3.3330   -0.0000    1.8800 c3        1 6UL     -0.079400
      5 CAZ         3.9320   -0.0000    3.2700 c3        1 6UL     -0.079400
      6 CBA         5.4450   -0.0000    3.2160 c3        1 6UL     -0.079400
      7 CBB         6.0450   -0.0000    4.6050 c3        1 6UL     -0.079400
      8 CBC         7.5570   -0.0000    4.5510 c3        1 6UL     -0.079400
      9 CBD         8.1570   -0.0000    5.9410 c3        1 6UL     -0.079400
     10 CBE         9.6700   -0.0010    5.8870 c3        1 6UL     -0.079400
     11 CBF        10.2690   -0.0000    7.2770 c3        1 6UL     -0.079400
     12 CBG        11.7820   -0.0010    7.2230 c3        1 6UL     -0.079400
     13 CBH        12.3820   -0.0010    8.6130 c3        1 6UL     -0.079400
     14 CBI        13.8940   -0.0010    8.5590 c3        1 6UL     -0.079400
     15 CBJ        14.4940   -0.0010    9.9480 c3        1 6UL     -0.079400
     16 CBK        16.0060   -0.0010    9.8940 c3        1 6UL     -0.079400
     17 CBL        16.6060   -0.0010   11.2840 c3        1 6UL     -0.079400
     18 CBM        18.1190   -0.0010   11.2300 c3        1 6UL     -0.079400
     19 CAW        18.7180   -0.0010   12.6200 c3        1 6UL     -0.079400
     20 CAV        20.2300   -0.0010   12.5660 c3        1 6UL     -0.079400
     21 CAU        20.8290   -0.0010   13.9570 c3        1 6UL     -0.078400
     22 CAT        22.3420   -0.0020   13.9020 c3        1 6UL     -0.078400
     23 CAS        22.9350   -0.0020   15.2940 c3        1 6UL     -0.085400
     24 CAR        24.4500   -0.0030   15.2160 c3        1 6UL      0.140400
     25 OAQ        24.9190   -0.0030   16.5750 os        1 6UL     -0.447900
     26 CAP        26.2760   -0.0040   16.7540 c         1 6UL      0.631100
     27 OBO        26.9960   -0.0050   15.7540 o         1 6UL     -0.542000
     28 CAO        26.6580   -0.0040   18.2010 c3        1 6UL     -0.127400
     29 CAN        28.1610   -0.0030   18.3730 c3        1 6UL     -0.078400
     30 CAM        28.5340   -0.0040   19.8400 c3        1 6UL     -0.079400
     31 CAL        30.0370   -0.0020   20.0200 c3        1 6UL     -0.078400
     32 CAK        30.4140   -0.0030   21.4850 c3        1 6UL     -0.079400
     33 CAJ        31.9170   -0.0020   21.6650 c3        1 6UL     -0.079400
     34 CAI        32.2950   -0.0030   23.1310 c3        1 6UL     -0.078400
     35 CAH        33.7970   -0.0020   23.3110 c3        1 6UL     -0.079400
     36 CAG        34.1750   -0.0030   24.7770 c3        1 6UL     -0.079400
     37 CAF        35.6780   -0.0020   24.9570 c3        1 6UL     -0.079400
     38 CAE        36.0560   -0.0030   26.4230 c3        1 6UL     -0.078400
     39 CAD        37.5590   -0.0020   26.6030 c3        1 6UL     -0.079400
     40 CAC        37.9370   -0.0030   28.0690 c3        1 6UL     -0.079400
     41 CAB        39.4400   -0.0020   28.2500 c3        1 6UL     -0.080400
     42 CAA        39.8210   -0.0030   29.7080 c3        1 6UL     -0.092100
     43 HBP1       -0.6640    0.9050    1.1280 hc        1 6UL      0.032700
     44 HBP2       -0.6640   -0.9050    1.1290 hc        1 6UL      0.032700
     45 HBP3       -0.7090   -0.0000   -0.4400 hc        1 6UL      0.032700
     46 HBN1        1.5780   -0.9030   -0.0180 hc        1 6UL      0.038700
     47 HBN2        1.5780    0.9020   -0.0180 hc        1 6UL      0.038700
     48 HAX1        1.4640   -0.9030    2.4970 hc        1 6UL      0.039700
     49 HAX2        1.4640    0.9020    2.4970 hc        1 6UL      0.039700
     50 HAY1        3.6890   -0.9030    1.3170 hc        1 6UL      0.039700
     51 HAY2        3.6890    0.9020    1.3170 hc        1 6UL      0.039700
     52 HAZ1        3.5760   -0.9030    3.8330 hc        1 6UL      0.039700
     53 HAZ2        3.5760    0.9020    3.8330 hc        1 6UL      0.039700
     54 HBA1        5.8010   -0.9030    2.6520 hc        1 6UL      0.039700
     55 HBA2        5.8010    0.9020    2.6520 hc        1 6UL      0.039700
     56 HBB1        5.6890   -0.9030    5.1690 hc        1 6UL      0.039700
     57 HBB2        5.6890    0.9020    5.1680 hc        1 6UL      0.039700
     58 HBC1        7.9130   -0.9030    3.9880 hc        1 6UL      0.039700
     59 HBC2        7.9140    0.9020    3.9880 hc        1 6UL      0.039700
     60 HBD1        7.8010   -0.9030    6.5040 hc        1 6UL      0.039700
     61 HBD2        7.8010    0.9020    6.5040 hc        1 6UL      0.039700
     62 HBE1       10.0260    0.9020    5.3240 hc        1 6UL      0.039700
     63 HBE2       10.0260   -0.9030    5.3240 hc        1 6UL      0.039700
     64 HBF1        9.9130    0.9020    7.8400 hc        1 6UL      0.039700
     65 HBF2        9.9130   -0.9030    7.8400 hc        1 6UL      0.039700
     66 HBG1       12.1380   -0.9030    6.6600 hc        1 6UL      0.039700
     67 HBG2       12.1380    0.9020    6.6590 hc        1 6UL      0.039700
     68 HBH1       12.0250   -0.9030    9.1760 hc        1 6UL      0.039700
     69 HBH2       12.0250    0.9020    9.1760 hc        1 6UL      0.039700
     70 HBI1       14.2510    0.9020    7.9950 hc        1 6UL      0.039700
     71 HBI2       14.2500   -0.9030    7.9950 hc        1 6UL      0.039700
     72 HBJ1       14.1380    0.9020   10.5110 hc        1 6UL      0.039700
     73 HBJ2       14.1370   -0.9030   10.5120 hc        1 6UL      0.039700
     74 HBK1       16.3630    0.9010    9.3310 hc        1 6UL      0.039700
     75 HBK2       16.3630   -0.9040    9.3310 hc        1 6UL      0.039700
     76 HBL1       16.2500    0.9020   11.8470 hc        1 6UL      0.039700
     77 HBL2       16.2490   -0.9030   11.8480 hc        1 6UL      0.039700
     78 HBM1       18.4750    0.9010   10.6670 hc        1 6UL      0.039700
     79 HBM2       18.4750   -0.9040   10.6670 hc        1 6UL      0.039700
     80 HAW1       18.3610   -0.9030   13.1840 hc        1 6UL      0.039700
     81 HAW2       18.3620    0.9020   13.1830 hc        1 6UL      0.039700
     82 HAV1       20.5870    0.9010   12.0030 hc        1 6UL      0.040700
     83 HAV2       20.5860   -0.9040   12.0040 hc        1 6UL      0.040700
     84 HAU1       20.4730   -0.9040   14.5200 hc        1 6UL      0.041700
     85 HAU2       20.4730    0.9020   14.5200 hc        1 6UL      0.041700
     86 HAT1       22.6980   -0.9050   13.3390 hc        1 6UL      0.042700
     87 HAT2       22.6980    0.9010   13.3390 hc        1 6UL      0.042700
     88 HAS1       22.5900   -0.9040   15.8630 hc        1 6UL      0.053700
     89 HAS2       22.5910    0.9010   15.8620 hc        1 6UL      0.053700
     90 HAR1       24.8420   -0.9160   14.6970 h1        1 6UL      0.051700
     91 HAR2       24.8430    0.9100   14.6970 h1        1 6UL      0.051700
     92 HAO1       26.2030    0.9000   18.6870 hc        1 6UL      0.078700
     93 HAO2       26.2060   -0.9100   18.6860 hc        1 6UL      0.078700
     94 HAN1       28.5980   -0.9030   17.8650 hc        1 6UL      0.057700
     95 HAN2       28.5960    0.9000   17.8670 hc        1 6UL      0.057700
     96 HAM1       28.0940    0.8980   20.3430 hc        1 6UL      0.039700
     97 HAM2       28.0960   -0.9080   20.3400 hc        1 6UL      0.039700
     98 HAL1       30.4740    0.9020   19.5190 hc        1 6UL      0.042700
     99 HAL2       30.4770   -0.9040   19.5170 hc        1 6UL      0.042700
    100 HAK1       29.9760   -0.9070   21.9860 hc        1 6UL      0.039700
    101 HAK2       29.9740    0.8980   21.9880 hc        1 6UL      0.039700
    102 HAJ1       32.3550    0.9020   21.1650 hc        1 6UL      0.040700
    103 HAJ2       32.3570   -0.9030   21.1630 hc        1 6UL      0.040700
    104 HAI1       31.8570   -0.9070   23.6320 hc        1 6UL      0.039700
    105 HAI2       31.8550    0.8990   23.6340 hc        1 6UL      0.039700
    106 HAH1       34.2370   -0.9030   22.8090 hc        1 6UL      0.039700
    107 HAH2       34.2360    0.9020   22.8100 hc        1 6UL      0.039700
    108 HAG1       33.7370   -0.9060   25.2770 hc        1 6UL      0.039700
    109 HAG2       33.7360    0.8990   25.2790 hc        1 6UL      0.039700
    110 HAF1       36.1160    0.9020   24.4560 hc        1 6UL      0.039700
    111 HAF2       36.1180   -0.9030   24.4550 hc        1 6UL      0.039700
    112 HAE1       35.6180   -0.9060   26.9230 hc        1 6UL      0.039700
    113 HAE2       35.6170    0.8990   26.9250 hc        1 6UL      0.039700
    114 HAD1       37.9970    0.9020   26.1020 hc        1 6UL      0.039700
    115 HAD2       37.9980   -0.9030   26.1010 hc        1 6UL      0.039700
    116 HAC1       37.4990   -0.9060   28.5700 hc        1 6UL      0.039700
    117 HAC2       37.4980    0.8990   28.5710 hc        1 6UL      0.039700
    118 HAB1       39.8770   -0.9030   27.7460 hc        1 6UL      0.038700
    119 HAB2       39.8760    0.9010   27.7470 hc        1 6UL      0.038700
    120 HAA1       39.4140    0.9020   30.2230 hc        1 6UL      0.032700
    121 HAA2       40.9320   -0.0020   29.8190 hc        1 6UL      0.032700
    122 HAA3       39.4160   -0.9080   30.2210 hc        1 6UL      0.032700
@<TRIPOS>BOND
     1    1    2 1   
     2    1   43 1   
     3    1   44 1   
     4    1   45 1   
     5    2    3 1   
     6    2   46 1   
     7    2   47 1   
     8    3    4 1   
     9    3   48 1   
    10    3   49 1   
    11    4    5 1   
    12    4   50 1   
    13    4   51 1   
    14    5    6 1   
    15    5   52 1   
    16    5   53 1   
    17    6    7 1   
    18    6   54 1   
    19    6   55 1   
    20    7    8 1   
    21    7   56 1   
    22    7   57 1   
    23    8    9 1   
    24    8   58 1   
    25    8   59 1   
    26    9   10 1   
    27    9   60 1   
    28    9   61 1   
    29   10   11 1   
    30   10   62 1   
    31   10   63 1   
    32   11   12 1   
    33   11   64 1   
    34   11   65 1   
    35   12   13 1   
    36   12   66 1   
    37   12   67 1   
    38   13   14 1   
    39   13   68 1   
    40   13   69 1   
    41   14   15 1   
    42   14   70 1   
    43   14   71 1   
    44   15   16 1   
    45   15   72 1   
    46   15   73 1   
    47   16   17 1   
    48   16   74 1   
    49   16   75 1   
    50   17   18 1   
    51   17   76 1   
    52   17   77 1   
    53   18   19 1   
    54   18   78 1   
    55   18   79 1   
    56   19   20 1   
    57   19   80 1   
    58   19   81 1   
    59   20   21 1   
    60   20   82 1   
    61   20   83 1   
    62   21   22 1   
    63   21   84 1   
    64   21   85 1   
    65   22   23 1   
    66   22   86 1   
    67   22   87 1   
    68   23   24 1   
    69   23   88 1   
    70   23   89 1   
    71   24   25 1   
    72   24   90 1   
    73   24   91 1   
    74   25   26 1   
    75   26   27 2   
    76   26   28 1   
    77   28   29 1   
    78   28   92 1   
    79   28   93 1   
    80   29   30 1   
    81   29   94 1   
    82   29   95 1   
    83   30   31 1   
    84   30   96 1   
    85   30   97 1   
    86   31   32 1   
    87   31   98 1   
    88   31   99 1   
    89   32   33 1   
    90   32  100 1   
    91   32  101 1   
    92   33   34 1   
    93   33  102 1   
    94   33  103 1   
    95   34   35 1   
    96   34  104 1   
    97   34  105 1   
    98   35   36 1   
    99   35  106 1   
   100   35  107 1   
   101   36   37 1   
   102   36  108 1   
   103   36  109 1   
   104   37   38 1   
   105   37  110 1   
   106   37  111 1   
   107   38   39 1   
   108   38  112 1   
   109   38  113 1   
   110   39   40 1   
   111   39  114 1   
   112   39  115 1   
   113   40   41 1   
   114   40  116 1   
   115   40  117 1   
   116   41   42 1   
   117   41  118 1   
   118   41  119 1   
   119   42  120 1   
   120   42  121 1   
   121   42  122 1   
@<TRIPOS>SUBSTRUCTURE
     1 6UL         1 TEMP              0 ****  ****    0 ROOT
