@<TRIPOS>MOLECULE
6UL
  122   121     1     0     0
SMALL
bcc


@<TRIPOS>ATOM
      1 CBP        -0.2760   -0.7360    0.7740 c3        1 6UL     -0.092100
      2 CBN         1.2290   -0.6820    0.7090 c3        1 6UL     -0.080400
      3 CAX         1.8430   -0.6130    2.0910 c3        1 6UL     -0.079400
      4 CAY         3.3540   -0.5600    2.0210 c3        1 6UL     -0.079400
      5 CAZ         3.9660   -0.4900    3.4040 c3        1 6UL     -0.079400
      6 CBA         5.4770   -0.4360    3.3330 c3        1 6UL     -0.079400
      7 CBB         6.0890   -0.3650    4.7160 c3        1 6UL     -0.079400
      8 CBC         7.6000   -0.3090    4.6460 c3        1 6UL     -0.079400
      9 CBD         8.2130   -0.2350    6.0280 c3        1 6UL     -0.079400
     10 CBE         9.7230   -0.1770    5.9570 c3        1 6UL     -0.079400
     11 CBF        10.3360   -0.0990    7.3390 c3        1 6UL     -0.079400
     12 CBG        11.8470   -0.0370    7.2670 c3        1 6UL     -0.079400
     13 CBH        12.4600    0.0460    8.6490 c3        1 6UL     -0.079400
     14 CBI        13.9700    0.1110    8.5760 c3        1 6UL     -0.079400
     15 CBJ        14.5840    0.1990    9.9580 c3        1 6UL     -0.079400
     16 CBK        16.0940    0.2690    9.8840 c3        1 6UL     -0.079400
     17 CBL        16.7070    0.3630   11.2650 c3        1 6UL     -0.079400
     18 CBM        18.2170    0.4380   11.1910 c3        1 6UL     -0.079400
     19 CAW        18.8310    0.5380   12.5710 c3        1 6UL     -0.079400
     20 CAV        20.3410    0.6180   12.4960 c3        1 6UL     -0.079400
     21 CAU        20.9540    0.7240   13.8750 c3        1 6UL     -0.078400
     22 CAT        22.4640    0.8110   13.7980 c3        1 6UL     -0.078400
     23 CAS        23.0730    0.9230   15.1780 c3        1 6UL     -0.085400
     24 CAR        24.5840    1.0140   15.0760 c3        1 6UL      0.139400
     25 OAQ        25.0680    1.1280   16.4260 os        1 6UL     -0.445900
     26 CAP        26.4220    1.2450   16.5820 c         1 6UL      0.631100
     27 OBO        27.1290    1.2360   15.5720 o         1 6UL     -0.544000
     28 CAO        26.8240    1.3900   18.0160 c3        1 6UL     -0.127400
     29 CAN        28.1650    0.7370   18.2750 c3        1 6UL     -0.079400
     30 CAM        28.6330    1.0120   19.6880 c3        1 6UL     -0.078400
     31 CAL        29.9680    0.3520   19.9570 c3        1 6UL     -0.079400
     32 CAK        30.4450    0.6330   21.3660 c3        1 6UL     -0.079400
     33 CAJ        31.7820   -0.0230   21.6340 c3        1 6UL     -0.079400
     34 CAI        32.2610    0.2610   23.0420 c3        1 6UL     -0.079400
     35 CAH        33.6000   -0.3910   23.3080 c3        1 6UL     -0.079400
     36 CAG        34.0810   -0.1050   24.7150 c3        1 6UL     -0.079400
     37 CAF        35.4220   -0.7550   24.9800 c3        1 6UL     -0.079400
     38 CAE        35.9030   -0.4670   26.3870 c3        1 6UL     -0.079400
     39 CAD        37.2450   -1.1150   26.6510 c3        1 6UL     -0.079400
     40 CAC        37.7270   -0.8270   28.0570 c3        1 6UL     -0.079400
     41 CAB        39.0700   -1.4730   28.3230 c3        1 6UL     -0.080400
     42 CAA        39.5530   -1.1890   29.7210 c3        1 6UL     -0.092100
     43 HBP1       -0.6810    0.1720    1.2830 hc        1 6UL      0.032700
     44 HBP2       -0.6140   -1.6350    1.3420 hc        1 6UL      0.032700
     45 HBP3       -0.7070   -0.7860   -0.2550 hc        1 6UL      0.032700
     46 HBN1        1.6160   -1.5890    0.1730 hc        1 6UL      0.038700
     47 HBN2        1.5490    0.2140    0.1140 hc        1 6UL      0.038700
     48 HAX1        1.5250   -1.5090    2.6880 hc        1 6UL      0.039700
     49 HAX2        1.4580    0.2940    2.6280 hc        1 6UL      0.039700
     50 HAY1        3.7380   -1.4670    1.4850 hc        1 6UL      0.039700
     51 HAY2        3.6710    0.3360    1.4240 hc        1 6UL      0.039700
     52 HAZ1        3.6490   -1.3860    4.0010 hc        1 6UL      0.039700
     53 HAZ2        3.5820    0.4170    3.9400 hc        1 6UL      0.039700
     54 HBA1        5.8610   -1.3440    2.7980 hc        1 6UL      0.039700
     55 HBA2        5.7940    0.4580    2.7350 hc        1 6UL      0.039700
     56 HBB1        5.7730   -1.2600    5.3140 hc        1 6UL      0.039700
     57 HBB2        5.7040    0.5420    5.2520 hc        1 6UL      0.039700
     58 HBC1        7.9860   -1.2180    4.1120 hc        1 6UL      0.039700
     59 HBC2        7.9160    0.5850    4.0460 hc        1 6UL      0.039700
     60 HBD1        7.8990   -1.1300    6.6270 hc        1 6UL      0.039700
     61 HBD2        7.8260    0.6720    6.5620 hc        1 6UL      0.039700
     62 HBE1       10.0370    0.7170    5.3550 hc        1 6UL      0.039700
     63 HBE2       10.1110   -1.0850    5.4250 hc        1 6UL      0.039700
     64 HBF1        9.9470    0.8090    7.8720 hc        1 6UL      0.039700
     65 HBF2       10.0240   -0.9940    7.9390 hc        1 6UL      0.039700
     66 HBG1       12.2360   -0.9460    6.7370 hc        1 6UL      0.039700
     67 HBG2       12.1580    0.8560    6.6640 hc        1 6UL      0.039700
     68 HBH1       12.1500   -0.8490    9.2520 hc        1 6UL      0.039700
     69 HBH2       12.0690    0.9530    9.1800 hc        1 6UL      0.039700
     70 HBI1       14.2790    1.0040    7.9710 hc        1 6UL      0.039700
     71 HBI2       14.3610   -0.7980    8.0480 hc        1 6UL      0.039700
     72 HBJ1       14.1900    1.1070   10.4870 hc        1 6UL      0.039700
     73 HBJ2       14.2770   -0.6950   10.5630 hc        1 6UL      0.039700
     74 HBK1       16.3990    1.1610    9.2760 hc        1 6UL      0.039700
     75 HBK2       16.4880   -0.6400    9.3580 hc        1 6UL      0.039700
     76 HBL1       16.3110    1.2700   11.7920 hc        1 6UL      0.039700
     77 HBL2       16.4040   -0.5310   11.8730 hc        1 6UL      0.039700
     78 HBM1       18.5200    1.3290   10.5800 hc        1 6UL      0.039700
     79 HBM2       18.6140   -0.4710   10.6670 hc        1 6UL      0.039700
     80 HAW1       18.5320   -0.3550   13.1810 hc        1 6UL      0.039700
     81 HAW2       18.4310    1.4450   13.0960 hc        1 6UL      0.039700
     82 HAV1       20.6390    1.5090   11.8820 hc        1 6UL      0.040700
     83 HAV2       20.7410   -0.2910   11.9750 hc        1 6UL      0.040700
     84 HAU1       20.6590   -0.1680   14.4880 hc        1 6UL      0.041700
     85 HAU2       20.5520    1.6320   14.3980 hc        1 6UL      0.041700
     86 HAT1       22.8670   -0.0990   13.2800 hc        1 6UL      0.042700
     87 HAT2       22.7580    1.7010   13.1810 hc        1 6UL      0.042700
     88 HAS1       22.7920    0.0340   15.8000 hc        1 6UL      0.053700
     89 HAS2       22.6780    1.8320   15.7030 hc        1 6UL      0.053700
     90 HAR1       25.0270    0.0960   14.6100 h1        1 6UL      0.051700
     91 HAR2       24.9100    1.9160   14.4960 h1        1 6UL      0.051700
     92 HAO1       26.8760    2.4900   18.2390 hc        1 6UL      0.077700
     93 HAO2       26.0340    0.9450   18.6760 hc        1 6UL      0.077700
     94 HAN1       28.0820   -0.3700   18.1120 hc        1 6UL      0.057700
     95 HAN2       28.9180    1.1240   17.5380 hc        1 6UL      0.057700
     96 HAM1       28.7230    2.1200   19.8460 hc        1 6UL      0.040700
     97 HAM2       27.8710    0.6340   20.4190 hc        1 6UL      0.040700
     98 HAL1       30.7280    0.7260   19.2210 hc        1 6UL      0.042700
     99 HAL2       29.8780   -0.7560   19.8040 hc        1 6UL      0.042700
    100 HAK1       29.6860    0.2560   22.1020 hc        1 6UL      0.039700
    101 HAK2       30.5320    1.7410   21.5200 hc        1 6UL      0.039700
    102 HAJ1       32.5390    0.3520   20.8960 hc        1 6UL      0.040200
    103 HAJ2       31.6940   -1.1320   21.4830 hc        1 6UL      0.040200
    104 HAI1       31.5050   -0.1170   23.7800 hc        1 6UL      0.039700
    105 HAI2       32.3450    1.3690   23.1940 hc        1 6UL      0.039700
    106 HAH1       33.5160   -1.5000   23.1580 hc        1 6UL      0.039700
    107 HAH2       34.3560   -0.0150   22.5690 hc        1 6UL      0.039700
    108 HAG1       33.3270   -0.4840   25.4540 hc        1 6UL      0.039700
    109 HAG2       34.1630    1.0030   24.8660 hc        1 6UL      0.039700
    110 HAF1       36.1760   -0.3760   24.2400 hc        1 6UL      0.039700
    111 HAF2       35.3400   -1.8630   24.8300 hc        1 6UL      0.039700
    112 HAE1       35.1500   -0.8470   27.1270 hc        1 6UL      0.039700
    113 HAE2       35.9840    0.6410   26.5370 hc        1 6UL      0.039700
    114 HAD1       37.9980   -0.7360   25.9110 hc        1 6UL      0.039700
    115 HAD2       37.1640   -2.2240   26.5010 hc        1 6UL      0.039700
    116 HAC1       36.9740   -1.2070   28.7980 hc        1 6UL      0.039700
    117 HAC2       37.8070    0.2820   28.2080 hc        1 6UL      0.039700
    118 HAB1       38.9870   -2.5820   28.1700 hc        1 6UL      0.038700
    119 HAB2       39.8210   -1.0930   27.5800 hc        1 6UL      0.038700
    120 HAA1       39.6650   -0.0900   29.8840 hc        1 6UL      0.032700
    121 HAA2       40.5440   -1.6740   29.8960 hc        1 6UL      0.032700
    122 HAA3       38.8300   -1.5830   30.4760 hc        1 6UL      0.032700
@<TRIPOS>BOND
     1    1    2 1   
     2    1   43 1   
     3    1   44 1   
     4    1   45 1   
     5    2    3 1   
     6    2   46 1   
     7    2   47 1   
     8    3    4 1   
     9    3   48 1   
    10    3   49 1   
    11    4    5 1   
    12    4   50 1   
    13    4   51 1   
    14    5    6 1   
    15    5   52 1   
    16    5   53 1   
    17    6    7 1   
    18    6   54 1   
    19    6   55 1   
    20    7    8 1   
    21    7   56 1   
    22    7   57 1   
    23    8    9 1   
    24    8   58 1   
    25    8   59 1   
    26    9   10 1   
    27    9   60 1   
    28    9   61 1   
    29   10   11 1   
    30   10   62 1   
    31   10   63 1   
    32   11   12 1   
    33   11   64 1   
    34   11   65 1   
    35   12   13 1   
    36   12   66 1   
    37   12   67 1   
    38   13   14 1   
    39   13   68 1   
    40   13   69 1   
    41   14   15 1   
    42   14   70 1   
    43   14   71 1   
    44   15   16 1   
    45   15   72 1   
    46   15   73 1   
    47   16   17 1   
    48   16   74 1   
    49   16   75 1   
    50   17   18 1   
    51   17   76 1   
    52   17   77 1   
    53   18   19 1   
    54   18   78 1   
    55   18   79 1   
    56   19   20 1   
    57   19   80 1   
    58   19   81 1   
    59   20   21 1   
    60   20   82 1   
    61   20   83 1   
    62   21   22 1   
    63   21   84 1   
    64   21   85 1   
    65   22   23 1   
    66   22   86 1   
    67   22   87 1   
    68   23   24 1   
    69   23   88 1   
    70   23   89 1   
    71   24   25 1   
    72   24   90 1   
    73   24   91 1   
    74   25   26 1   
    75   26   27 2   
    76   26   28 1   
    77   28   29 1   
    78   28   92 1   
    79   28   93 1   
    80   29   30 1   
    81   29   94 1   
    82   29   95 1   
    83   30   31 1   
    84   30   96 1   
    85   30   97 1   
    86   31   32 1   
    87   31   98 1   
    88   31   99 1   
    89   32   33 1   
    90   32  100 1   
    91   32  101 1   
    92   33   34 1   
    93   33  102 1   
    94   33  103 1   
    95   34   35 1   
    96   34  104 1   
    97   34  105 1   
    98   35   36 1   
    99   35  106 1   
   100   35  107 1   
   101   36   37 1   
   102   36  108 1   
   103   36  109 1   
   104   37   38 1   
   105   37  110 1   
   106   37  111 1   
   107   38   39 1   
   108   38  112 1   
   109   38  113 1   
   110   39   40 1   
   111   39  114 1   
   112   39  115 1   
   113   40   41 1   
   114   40  116 1   
   115   40  117 1   
   116   41   42 1   
   117   41  118 1   
   118   41  119 1   
   119   42  120 1   
   120   42  121 1   
   121   42  122 1   
@<TRIPOS>SUBSTRUCTURE
     1 6UL         1 TEMP              0 ****  ****    0 ROOT
