@<TRIPOS>MOLECULE
6UP
   25    19     1     0     0
SMALL
bcc


@<TRIPOS>ATOM
      1 CAI        -0.8000    0.0850    0.3900 c1        1 6UP     -0.068000
      2 CAN         0.6050    0.0080    0.4250 c1        1 6UP     -0.079000
      3 CAL         1.2780   -0.0340    1.6600 c2        1 6UP      0.086000
      4 N1          0.8640    0.1040    3.0100 n3        1 6UP     -0.334000
      5 CAE         2.6650   -0.1050    1.6940 c1        1 6UP     -0.218000
      6 CAD         3.3890   -0.1350    0.5060 c1        1 6UP     -0.123500
      7 CAG         2.7260   -0.0940   -0.7140 c1        1 6UP     -0.123500
      8 CAM         1.3210   -0.0210   -0.7490 c1        1 6UP     -0.062000
      9 CAH         0.6480    0.0250   -1.9840 c1        1 6UP     -0.118000
     10 CAF        -0.7390    0.1010   -2.0170 c1        1 6UP     -0.118000
     11 CAK        -1.4630    0.1310   -0.8300 c1        1 6UP     -0.062000
     12 CAJ        -2.9740    0.1870   -0.8720 c1        1 6UP      0.114000
     13 N2         -3.7270   -1.0150   -0.9140 n3        1 6UP     -0.330000
     14 N3         -3.5850    1.3420   -0.8690 n1        1 6UP     -0.301000
     15 H1         -1.3090    0.1060    1.2230 ha        1 6UP      0.144000
     16 H2          1.0230    0.8840    3.4600 hn        1 6UP      0.192500
     17 H3          0.4380   -0.5870    3.4310 hn        1 6UP      0.192500
     18 H4          3.1310   -0.1340    2.5510 ha        1 6UP      0.133000
     19 H5          4.3630   -0.1850    0.5300 ha        1 6UP      0.133500
     20 H6          3.2340   -0.1150   -1.5460 ha        1 6UP      0.133500
     21 H7          1.1550    0.0040   -2.8170 ha        1 6UP      0.138000
     22 H8         -1.2050    0.1340   -2.8740 ha        1 6UP      0.138000
     23 H9         -3.2990   -1.8220   -0.9260 hn        1 6UP      0.190500
     24 H10        -4.6400   -0.9810   -0.9260 hn        1 6UP      0.190500
     25 H11        -3.1000    2.1150   -0.8420 DU        1 6UP      0.152000
@<TRIPOS>BOND
     1    1    2 1   
     2    1   15 1   
     3    2    3 1   
     4    3    4 1   
     5    3    5 1   
     6    4   16 1   
     7    4   17 1   
     8    5   18 1   
     9    6    7 1   
    10    6   19 1   
    11    7   20 1   
    12    8    9 1   
    13    9   21 1   
    14   10   11 1   
    15   10   22 1   
    16   12   13 1   
    17   12   14 1   
    18   13   23 1   
    19   13   24 1   
@<TRIPOS>SUBSTRUCTURE
     1 6UP         1 TEMP              0 ****  ****    0 ROOT
