@<TRIPOS>MOLECULE
6UP
   27    28     1     0     0
SMALL
bcc


@<TRIPOS>ATOM
      1 CAI        -0.0250   -0.0110   -0.0250 ca        1 6UP     -0.109000
      2 CAN         1.3960    0.0060   -0.0000 ca        1 6UP     -0.018000
      3 CAL         2.1790    0.2220    1.1850 ca        1 6UP     -0.079400
      4 N1          1.5130    0.4280    2.4720 n4        1 6UP     -0.702000
      5 CAE         3.5670    0.2330    1.1420 ca        1 6UP     -0.029000
      6 CAD         4.2390    0.0260   -0.0820 ca        1 6UP     -0.104000
      7 CAG         3.5260   -0.1930   -1.2360 ca        1 6UP     -0.037000
      8 CAM         2.1020   -0.2090   -1.2160 ca        1 6UP     -0.016000
      9 CAH         1.3770   -0.4510   -2.4150 ca        1 6UP     -0.047000
     10 CAF         0.0030   -0.4710   -2.4160 ca        1 6UP     -0.126000
     11 CAK        -0.7010   -0.2430   -1.2080 ca        1 6UP     -0.191900
     12 CAJ        -2.1830   -0.3270   -1.2190 ce        1 6UP      0.567800
     13 N2         -2.8180    0.7220   -2.0900 n4        1 6UP     -0.819600
     14 N3         -2.9780   -1.1400   -0.6400 n2        1 6UP     -0.678100
     15 H1         -0.6020    0.1570    0.8970 ha        1 6UP      0.128000
     16 H2          0.9400   -0.3930    2.7020 hn        1 6UP      0.468800
     17 H3          0.9140    1.2600    2.4270 hn        1 6UP      0.468800
     18 H4          4.1810    0.3990    2.0470 ha        1 6UP      0.178000
     19 H5          5.3450    0.0400   -0.0910 ha        1 6UP      0.199000
     20 H6          4.0480   -0.3630   -2.1960 ha        1 6UP      0.190000
     21 H7          1.9410   -0.6310   -3.3490 ha        1 6UP      0.189000
     22 H8         -0.5430   -0.6970   -3.3470 ha        1 6UP      0.163000
     23 H9         -2.4100    0.6560   -3.0300 hn        1 6UP      0.479800
     24 H10        -2.6190    1.6480   -1.6970 hn        1 6UP      0.479800
     25 H11        -2.6110   -1.8750   -0.0710 hn        1 6UP      0.494400
     26 H13         2.2130    0.5620    3.2150 hn        1 6UP      0.468800
     27 H23        -3.8410    0.5950   -2.1550 hn        1 6UP      0.479800
@<TRIPOS>BOND
     1    1    2 ar  
     2    1   11 ar  
     3    1   15 1   
     4    2    3 ar  
     5    2    8 ar  
     6    3    4 1   
     7    3    5 ar  
     8    4   16 1   
     9    4   17 1   
    10    4   26 1   
    11    5    6 ar  
    12    5   18 1   
    13    6    7 ar  
    14    6   19 1   
    15    7    8 ar  
    16    7   20 1   
    17    8    9 ar  
    18    9   10 ar  
    19    9   21 1   
    20   10   11 ar  
    21   10   22 1   
    22   11   12 1   
    23   12   13 1   
    24   12   14 2   
    25   13   23 1   
    26   13   24 1   
    27   13   27 1   
    28   14   25 1   
@<TRIPOS>SUBSTRUCTURE
     1 6UP         1 TEMP              0 ****  ****    0 ROOT
