@<TRIPOS>MOLECULE
6UP
   26    27     1     0     0
SMALL
bcc


@<TRIPOS>ATOM
      1 CAI        -0.0340   -0.0220   -0.0250 ca        1 6UP     -0.020000
      2 CAN         1.3830    0.0090   -0.0100 ca        1 6UP     -0.096000
      3 CAL         2.1410    0.3050    1.1830 ca        1 6UP      0.185600
      4 N1          1.5020    0.6080    2.3800 nv        1 6UP     -0.828200
      5 CAE         3.5400    0.3640    1.0930 ca        1 6UP     -0.200000
      6 CAD         4.2000    0.1290   -0.1200 ca        1 6UP     -0.038000
      7 CAG         3.4920   -0.1780   -1.2640 ca        1 6UP     -0.173000
      8 CAM         2.0840   -0.2410   -1.2260 ca        1 6UP      0.022000
      9 CAH         1.3430   -0.5480   -2.4080 ca        1 6UP     -0.087000
     10 CAF        -0.0240   -0.5730   -2.4000 ca        1 6UP     -0.134000
     11 CAK        -0.7200   -0.2950   -1.1920 ca        1 6UP     -0.297900
     12 CAJ        -2.1930   -0.3260   -1.1940 ce        1 6UP      0.602800
     13 N2         -2.7580    0.8000   -2.0290 nz        1 6UP     -0.827600
     14 N3         -3.0420   -1.1020   -0.6400 n2        1 6UP     -0.721100
     15 H1         -0.6040    0.1890    0.8940 ha        1 6UP      0.139000
     16 H2          0.6530    0.1270    2.5630 hn        1 6UP      0.410800
     17 H3          2.0990    0.6960    3.1720 hn        1 6UP      0.410800
     18 H4          4.1440    0.5990    1.9840 ha        1 6UP      0.154000
     19 H5          5.3010    0.1860   -0.1470 ha        1 6UP      0.156000
     20 H6          4.0150   -0.3750   -2.2120 ha        1 6UP      0.154000
     21 H7          1.9050   -0.7670   -3.3320 ha        1 6UP      0.161000
     22 H8         -0.5850   -0.8360   -3.3090 ha        1 6UP      0.133000
     23 H9         -2.5130    1.6870   -1.5760 hn        1 6UP      0.468800
     24 H10        -3.7780    0.7380   -2.1310 hn        1 6UP      0.468800
     25 H11        -2.6990   -1.8670   -0.0950 hn        1 6UP      0.487400
     26 H23        -2.3120    0.7610   -2.9520 hn        1 6UP      0.468800
@<TRIPOS>BOND
     1    1    2 ar  
     2    1   11 ar  
     3    1   15 1   
     4    2    3 ar  
     5    2    8 ar  
     6    3    4 1   
     7    3    5 ar  
     8    4   16 1   
     9    4   17 1   
    10    5    6 ar  
    11    5   18 1   
    12    6    7 ar  
    13    6   19 1   
    14    7    8 ar  
    15    7   20 1   
    16    8    9 ar  
    17    9   10 ar  
    18    9   21 1   
    19   10   11 ar  
    20   10   22 1   
    21   11   12 1   
    22   12   13 1   
    23   12   14 2   
    24   13   23 1   
    25   13   24 1   
    26   13   26 1   
    27   14   25 1   
@<TRIPOS>SUBSTRUCTURE
     1 6UP         1 TEMP              0 ****  ****    0 ROOT
