@<TRIPOS>MOLECULE
6UP
   26    27     1     0     0
SMALL
bcc


@<TRIPOS>ATOM
      1 CAI        -0.0370   -0.0160   -0.0300 ca        1 6UP     -0.020000
      2 CAN         1.3790    0.0220   -0.0040 ca        1 6UP     -0.096000
      3 CAL         2.1270    0.3400    1.1900 ca        1 6UP      0.185600
      4 N1          1.4770    0.6590    2.3770 nh        1 6UP     -0.828200
      5 CAE         3.5260    0.4040    1.1100 ca        1 6UP     -0.200000
      6 CAD         4.1960    0.1540   -0.0950 ca        1 6UP     -0.038000
      7 CAG         3.4990   -0.1740   -1.2390 ca        1 6UP     -0.173000
      8 CAM         2.0900   -0.2430   -1.2100 ca        1 6UP      0.022000
      9 CAH         1.3610   -0.5720   -2.3930 ca        1 6UP     -0.087000
     10 CAF        -0.0070   -0.6030   -2.3960 ca        1 6UP     -0.134000
     11 CAK        -0.7140   -0.3100   -1.1980 ca        1 6UP     -0.297900
     12 CAJ        -2.1860   -0.3480   -1.2100 ce        1 6UP      0.602800
     13 N2         -2.7500    0.7630   -2.0660 n4        1 6UP     -0.827600
     14 N3         -3.0350   -1.1200   -0.6510 n2        1 6UP     -0.721100
     15 H1         -0.6160    0.2060    0.8820 ha        1 6UP      0.139000
     16 H2          2.0680    0.7610    3.1730 hn        1 6UP      0.410800
     17 H3          0.6280    0.1760    2.5610 hn        1 6UP      0.410800
     18 H4          4.1220    0.6560    2.0020 ha        1 6UP      0.154000
     19 H5          5.2970    0.2160   -0.1140 ha        1 6UP      0.156000
     20 H6          4.0300   -0.3830   -2.1800 ha        1 6UP      0.154000
     21 H7          1.9300   -0.8020   -3.3090 ha        1 6UP      0.161000
     22 H8         -0.5590   -0.8820   -3.3050 ha        1 6UP      0.133000
     23 H9         -2.5110    1.6570   -1.6250 hn        1 6UP      0.468800
     24 H10        -2.2970    0.7110   -2.9850 hn        1 6UP      0.468800
     25 H11        -2.6930   -1.8750   -0.0920 hn        1 6UP      0.487400
     26 H23        -3.7680    0.6940   -2.1750 hn        1 6UP      0.468800
@<TRIPOS>BOND
     1    1    2 ar  
     2    1   11 ar  
     3    1   15 1   
     4    2    3 ar  
     5    2    8 ar  
     6    3    4 1   
     7    3    5 ar  
     8    4   16 1   
     9    4   17 1   
    10    5    6 ar  
    11    5   18 1   
    12    6    7 ar  
    13    6   19 1   
    14    7    8 ar  
    15    7   20 1   
    16    8    9 ar  
    17    9   10 ar  
    18    9   21 1   
    19   10   11 ar  
    20   10   22 1   
    21   11   12 1   
    22   12   13 1   
    23   12   14 2   
    24   13   23 1   
    25   13   24 1   
    26   13   26 1   
    27   14   25 1   
@<TRIPOS>SUBSTRUCTURE
     1 6UP         1 TEMP              0 ****  ****    0 ROOT
