@<TRIPOS>MOLECULE
6UP
   25    26     1     0     0
SMALL
bcc


@<TRIPOS>ATOM
      1 CAI        -0.5520   -0.7220    0.0220 ca        1 6UP     -0.056000
      2 CAN         0.7940   -0.2650    0.0240 ca        1 6UP     -0.076000
      3 CAL         1.9190   -1.1570    0.1870 ca        1 6UP      0.167600
      4 N1          1.7250   -2.5210    0.4120 nh        1 6UP     -0.822200
      5 CAE         3.2100   -0.6220    0.1910 ca        1 6UP     -0.219000
      6 CAD         3.4240    0.7600    0.0450 ca        1 6UP     -0.077000
      7 CAG         2.3690    1.6220   -0.1220 ca        1 6UP     -0.171000
      8 CAM         1.0400    1.1230   -0.1390 ca        1 6UP      0.003000
      9 CAH        -0.0590    2.0100   -0.3220 ca        1 6UP     -0.127000
     10 CAF        -1.3480    1.5440   -0.3280 ca        1 6UP     -0.114000
     11 CAK        -1.5970    0.1610   -0.1460 ca        1 6UP     -0.151900
     12 CAJ        -3.0100   -0.3370   -0.1500 ce        1 6UP      0.658800
     13 N2         -3.8520    0.2980    0.7860 nh        1 6UP     -0.961800
     14 N3         -3.3160   -1.3250   -0.9370 n2        1 6UP     -0.835100
     15 H1         -0.7830   -1.7890    0.1630 ha        1 6UP      0.146000
     16 H2          0.8990   -2.9070    0.0140 hn        1 6UP      0.396800
     17 H3          2.5340   -3.0820    0.2660 hn        1 6UP      0.396800
     18 H4          4.0860   -1.2780    0.3150 ha        1 6UP      0.132000
     19 H5          4.4580    1.1390    0.0630 ha        1 6UP      0.131000
     20 H6          2.5320    2.7020   -0.2450 ha        1 6UP      0.133000
     21 H7          0.1520    3.0810   -0.4610 ha        1 6UP      0.135000
     22 H8         -2.1900    2.2340   -0.4880 ha        1 6UP      0.129000
     23 H9         -3.5200    1.1550    1.1600 hn        1 6UP      0.400800
     24 H10        -4.8290    0.2680    0.6140 hn        1 6UP      0.400800
     25 H11        -4.2650   -1.6320   -0.9180 hn        1 6UP      0.381400
@<TRIPOS>BOND
     1    1    2 ar  
     2    1   11 ar  
     3    1   15 1   
     4    2    3 ar  
     5    2    8 ar  
     6    3    4 1   
     7    3    5 ar  
     8    4   16 1   
     9    4   17 1   
    10    5    6 ar  
    11    5   18 1   
    12    6    7 ar  
    13    6   19 1   
    14    7    8 ar  
    15    7   20 1   
    16    8    9 ar  
    17    9   10 ar  
    18    9   21 1   
    19   10   11 ar  
    20   10   22 1   
    21   11   12 1   
    22   12   13 1   
    23   12   14 2   
    24   13   23 1   
    25   13   24 1   
    26   14   25 1   
@<TRIPOS>SUBSTRUCTURE
     1 6UP         1 TEMP              0 ****  ****    0 ROOT
