@<TRIPOS>MOLECULE
6W2
   27    28     1     0     0
SMALL
bcc


@<TRIPOS>ATOM
      1 O2          0.0390   -0.0060   -0.0480 o         1 6W2     -0.644300
      2 S           1.4480    0.0880    0.0110 sy        1 6W2      1.528200
      3 O1          2.0180    0.1060    1.2900 o         1 6W2     -0.644300
      4 N           1.9850   -1.2140   -0.8650 nh        1 6W2     -0.835800
      5 C7          3.3020   -1.5760   -1.0800 cc        1 6W2      0.670300
      6 S1          3.7310   -3.0950   -1.8320 ss        1 6W2     -0.128300
      7 C9          5.3590   -2.7240   -1.6850 cc        1 6W2     -0.265400
      8 C8          5.5290   -1.4920   -1.0800 cd        1 6W2      0.369200
      9 N1          4.3690   -0.8230   -0.7340 nd        1 6W2     -0.705000
     10 C4          1.9530    1.4070   -0.8670 ca        1 6W2     -0.445500
     11 C3          1.1680    1.9080   -1.9210 ca        1 6W2      0.036500
     12 C2          1.5540    3.0220   -2.6450 ca        1 6W2     -0.217000
     13 C5          3.1460    2.0720   -0.5510 ca        1 6W2      0.036500
     14 C6          3.5590    3.1950   -1.2590 ca        1 6W2     -0.217000
     15 C1          2.7640    3.6690   -2.3110 ca        1 6W2      0.197100
     16 O           3.0670    4.7620   -3.0860 os        1 6W2     -0.319900
     17 C           4.2760    5.4500   -2.7730 c3        1 6W2      0.109700
     18 H           1.3240   -1.8270   -1.2890 hn        1 6W2      0.460800
     19 H9          6.1570   -3.3790   -2.0260 h4        1 6W2      0.184000
     20 H8          6.4870   -1.0080   -0.8550 h4        1 6W2      0.046100
     21 H3          0.2130    1.4060   -2.1620 ha        1 6W2      0.161500
     22 H5          3.7660    1.6960    0.2840 ha        1 6W2      0.161500
     23 H2          0.9400    3.4150   -3.4670 ha        1 6W2      0.152500
     24 H6          4.4990    3.6950   -0.9870 ha        1 6W2      0.152500
     25 HC1         4.2400    5.8540   -1.7320 h1        1 6W2      0.051033
     26 HC2         4.2990    6.2820   -3.5220 h1        1 6W2      0.051033
     27 HC3         5.1560    4.7740   -2.9040 h1        1 6W2      0.051033
@<TRIPOS>BOND
     1    1    2 2   
     2    2    3 2   
     3    2    4 1   
     4    2   10 1   
     5    4    5 1   
     6    4   18 1   
     7    5    6 1   
     8    5    9 2   
     9    6    7 1   
    10    7    8 2   
    11    7   19 1   
    12    8    9 1   
    13    8   20 1   
    14   10   11 ar  
    15   10   13 ar  
    16   11   12 ar  
    17   11   21 1   
    18   12   15 ar  
    19   12   23 1   
    20   13   14 ar  
    21   13   22 1   
    22   14   15 ar  
    23   14   24 1   
    24   15   16 1   
    25   16   17 1   
    26   17   25 1   
    27   17   26 1   
    28   17   27 1   
@<TRIPOS>SUBSTRUCTURE
     1 6W2         1 TEMP              0 ****  ****    0 ROOT
