@<TRIPOS>MOLECULE
6W2
   27    28     1     0     0
SMALL
bcc


@<TRIPOS>ATOM
      1 O2          0.0370   -0.0050   -0.0500 o         1 6W2     -0.644300
      2 S           1.4460    0.0920    0.0110 sy        1 6W2      1.528200
      3 O1          2.0140    0.1150    1.2920 o         1 6W2     -0.644300
      4 N           1.9870   -1.2120   -0.8590 nu        1 6W2     -0.835800
      5 C7          3.3040   -1.5740   -1.0690 cc        1 6W2      0.670300
      6 S1          3.7370   -3.0950   -1.8150 ss        1 6W2     -0.128300
      7 C9          5.3640   -2.7230   -1.6660 cc        1 6W2     -0.265400
      8 C8          5.5310   -1.4880   -1.0650 cd        1 6W2      0.369200
      9 N1          4.3700   -0.8190   -0.7240 nd        1 6W2     -0.705000
     10 C4          1.9520    1.4090   -0.8700 ca        1 6W2     -0.445500
     11 C3          1.1680    1.9040   -1.9280 ca        1 6W2      0.036500
     12 C2          1.5540    3.0160   -2.6540 ca        1 6W2     -0.217000
     13 C5          3.1430    2.0750   -0.5540 ca        1 6W2      0.036500
     14 C6          3.5570    3.1960   -1.2650 ca        1 6W2     -0.217000
     15 C1          2.7630    3.6660   -2.3210 ca        1 6W2      0.197100
     16 O           3.0670    4.7560   -3.0990 os        1 6W2     -0.319900
     17 C           4.2750    5.4460   -2.7860 c3        1 6W2      0.109700
     18 H           1.3270   -1.8280   -1.2820 hn        1 6W2      0.460800
     19 H9          6.1630   -3.3790   -2.0020 h4        1 6W2      0.184000
     20 H8          6.4890   -1.0020   -0.8390 h4        1 6W2      0.046100
     21 H3          0.2140    1.4010   -2.1680 ha        1 6W2      0.161500
     22 H5          3.7630    1.7030    0.2840 ha        1 6W2      0.161500
     23 H2          0.9410    3.4050   -3.4790 ha        1 6W2      0.152500
     24 H6          4.4960    3.6980   -0.9940 ha        1 6W2      0.152500
     25 HC1         4.2980    6.2760   -3.5370 h1        1 6W2      0.051033
     26 HC2         5.1550    4.7710   -2.9130 h1        1 6W2      0.051033
     27 HC3         4.2350    5.8540   -1.7470 h1        1 6W2      0.051033
@<TRIPOS>BOND
     1    1    2 2   
     2    2    3 2   
     3    2    4 1   
     4    2   10 1   
     5    4    5 1   
     6    4   18 1   
     7    5    6 1   
     8    5    9 2   
     9    6    7 1   
    10    7    8 2   
    11    7   19 1   
    12    8    9 1   
    13    8   20 1   
    14   10   11 ar  
    15   10   13 ar  
    16   11   12 ar  
    17   11   21 1   
    18   12   15 ar  
    19   12   23 1   
    20   13   14 ar  
    21   13   22 1   
    22   14   15 ar  
    23   14   24 1   
    24   15   16 1   
    25   16   17 1   
    26   17   25 1   
    27   17   26 1   
    28   17   27 1   
@<TRIPOS>SUBSTRUCTURE
     1 6W2         1 TEMP              0 ****  ****    0 ROOT
