@<TRIPOS>MOLECULE
6X1
   30    26     1     0     0
SMALL
bcc


@<TRIPOS>ATOM
      1 CAA         1.7130    1.2200    1.0650 c1        1 6X1      0.015000
      2 CAB         2.9800    0.6850    1.2330 c1        1 6X1     -0.133000
      3 NAC         1.0620    1.1220   -0.1920 n         1 6X1     -0.248000
      4 CAD         1.0640    1.8140    2.1370 c1        1 6X1     -0.132000
      5 CAE         3.5990    0.7430    2.4720 c1        1 6X1     -0.098000
      6 CAF         3.7070    0.0780    0.0520 c2        1 6X1      0.364000
      7 CAG        -0.0860    0.3010   -0.3340 c2        1 6X1      0.384000
      8 CAH         1.6830    1.8720    3.3760 c1        1 6X1     -0.153500
      9 CAI         2.9500    1.3370    3.5430 c1        1 6X1     -0.153500
     10 OAJ         4.4080    0.8080   -0.6970 o         1 6X1     -0.572000
     11 OAK         3.6290   -1.1590   -0.1670 o         1 6X1     -0.572000
     12 NAL        -0.7390    0.2060   -1.5890 n         1 6X1     -0.339000
     13 OAM        -0.5120   -0.3190    0.6210 o         1 6X1     -0.371000
     14 CAN        -1.8900   -0.6110   -1.7300 c2        1 6X1      0.138000
     15 CAO        -1.7520   -1.9550   -2.0410 c2        1 6X1     -0.191000
     16 CAP        -3.1540   -0.0570   -1.6020 c1        1 6X1     -0.179000
     17 CAQ        -2.8760   -2.7440   -2.2230 c1        1 6X1     -0.022000
     18 CAR        -4.2790   -0.8460   -1.7840 c1        1 6X1     -0.023000
     19 CAS        -4.1400   -2.1890   -2.0950 c2        1 6X1     -0.183000
     20 CLAT       -2.7020   -4.4300   -2.6330 cl        1 6X1     -0.037000
     21 CLAU       -5.8680   -0.1550   -1.5920 cl        1 6X1     -0.039000
     22 HNAC        1.3920    1.5730   -0.9120 hn        1 6X1      0.227000
     23 HAD         0.1720    2.1910    2.0190 ha        1 6X1      0.141000
     24 HAE         4.4920    0.3660    2.5900 ha        1 6X1      0.155000
     25 HAH         1.2270    2.2910    4.1300 ha        1 6X1      0.111000
     26 HAI         3.3860    1.3780    4.4160 ha        1 6X1      0.111000
     27 HNAL       -0.4220    0.6740   -2.3050 hn        1 6X1      0.296000
     28 HAO        -0.8620   -2.3440   -2.1380 ha        1 6X1      0.166000
     29 HAP        -3.2520    0.8900   -1.3830 ha        1 6X1      0.188000
     30 HAS        -4.9320   -2.7410   -2.2380 ha        1 6X1      0.148000
@<TRIPOS>BOND
     1    1    3 1   
     2    1    4 1   
     3    2    5 1   
     4    2    6 1   
     5    3    7 1   
     6    3   22 1   
     7    4   23 1   
     8    5   24 1   
     9    6   10 1   
    10    6   11 1   
    11    7   12 1   
    12    7   13 1   
    13    8    9 1   
    14    8   25 1   
    15    9   26 1   
    16   12   14 1   
    17   12   27 1   
    18   14   15 1   
    19   14   16 1   
    20   15   17 1   
    21   15   28 1   
    22   16   29 1   
    23   17   19 1   
    24   18   19 1   
    25   18   21 1   
    26   19   30 1   
@<TRIPOS>SUBSTRUCTURE
     1 6X1         1 TEMP              0 ****  ****    0 ROOT
