@<TRIPOS>MOLECULE
6X1
   30    31     1     0     0
SMALL
bcc


@<TRIPOS>ATOM
      1 CAA        -0.2980    0.1860    0.5150 ca        1 6X1      0.007600
      2 CAB         0.9010    0.2310   -0.2340 ca        1 6X1     -0.153600
      3 NAC        -1.5320    0.6600   -0.0280 ns        1 6X1     -0.394100
      4 CAD        -0.2710   -0.2760    1.8480 ca        1 6X1     -0.132000
      5 CAE         2.0990   -0.1390    0.3860 ca        1 6X1     -0.098000
      6 CAF         0.9590    0.6490   -1.6950 c         1 6X1      0.915200
      7 CAG        -2.4630   -0.3930   -0.3590 c         1 6X1      0.757100
      8 CAH         0.9320   -0.6540    2.4320 ca        1 6X1     -0.147000
      9 CAI         2.1210   -0.5780    1.7070 ca        1 6X1     -0.160000
     10 OAJ        -0.1020    0.6040   -2.3960 o         1 6X1     -0.837300
     11 OAK         2.0690    1.0140   -2.1630 o         1 6X1     -0.837300
     12 NAL        -2.6140   -0.7210   -1.7230 ns        1 6X1     -0.485100
     13 OAM        -3.1420   -0.9410    0.5340 o         1 6X1     -0.610100
     14 CAN        -3.5600   -1.5780   -2.2730 ca        1 6X1      0.130600
     15 CAO        -3.4290   -1.9250   -3.6460 ca        1 6X1     -0.185000
     16 CAP        -4.6590   -2.0990   -1.5490 ca        1 6X1     -0.185000
     17 CAQ        -4.3700   -2.7530   -4.2470 ca        1 6X1      0.055900
     18 CAR        -5.5780   -2.9270   -2.1900 ca        1 6X1      0.055900
     19 CAS        -5.4580   -3.2680   -3.5380 ca        1 6X1     -0.183000
     20 ClAT       -4.1950   -3.1550   -5.8960 cl        1 6X1     -0.116400
     21 ClAU       -6.8990   -3.5440   -1.3010 cl        1 6X1     -0.116400
     22 HNAC       -1.3420    1.2600   -0.8250 hn        1 6X1      0.313500
     23 HAD        -1.2110   -0.3470    2.4170 ha        1 6X1      0.141000
     24 HAE         3.0260   -0.0720   -0.2060 ha        1 6X1      0.155000
     25 HAH         0.9420   -1.0130    3.4710 ha        1 6X1      0.111000
     26 HAI         3.0710   -0.8690    2.1760 ha        1 6X1      0.111000
     27 HNAL       -1.8920   -0.3870   -2.3490 hn        1 6X1      0.382500
     28 HAO        -2.5790   -1.5390   -4.2350 ha        1 6X1      0.177000
     29 HAP        -4.7880   -1.8590   -0.4800 ha        1 6X1      0.177000
     30 HAS        -6.1920   -3.9220   -4.0260 ha        1 6X1      0.148000
@<TRIPOS>BOND
     1    1    2 ar  
     2    1    3 1   
     3    1    4 ar  
     4    2    5 ar  
     5    2    6 1   
     6    3    7 1   
     7    3   22 1   
     8    4    8 ar  
     9    4   23 1   
    10    5    9 ar  
    11    5   24 1   
    12    6   10 1   
    13    6   11 1   
    14    7   12 1   
    15    7   13 2   
    16    8    9 ar  
    17    8   25 1   
    18    9   26 1   
    19   12   14 1   
    20   12   27 1   
    21   14   15 ar  
    22   14   16 ar  
    23   15   17 ar  
    24   15   28 1   
    25   16   18 ar  
    26   16   29 1   
    27   17   19 ar  
    28   17   20 1   
    29   18   19 ar  
    30   18   21 1   
    31   19   30 1   
@<TRIPOS>SUBSTRUCTURE
     1 6X1         1 TEMP              0 ****  ****    0 ROOT
