@<TRIPOS>MOLECULE
6X1
   32    33     1     0     0
SMALL
bcc


@<TRIPOS>ATOM
      1 CAA        -0.5460   -0.2830    0.4610 ca        1 6X1      0.009600
      2 CAB         0.4420    0.4840   -0.2060 ca        1 6X1     -0.146600
      3 NAC        -1.5760   -0.9570   -0.2690 n         1 6X1     -0.363100
      4 CAD        -0.5570   -0.3430    1.8640 ca        1 6X1     -0.089000
      5 CAE         1.3750    1.2010    0.5560 ca        1 6X1     -0.053000
      6 CAF         0.5710    0.6120   -1.6630 c         1 6X1      0.647700
      7 CAG        -1.3850   -2.3070   -0.5290 c         1 6X1      0.645100
      8 CAH         0.3920    0.3710    2.5990 ca        1 6X1     -0.078000
      9 CAI         1.3510    1.1430    1.9500 ca        1 6X1     -0.105000
     10 OAJ        -0.1130   -0.2910   -2.4550 oh        1 6X1     -0.700100
     11 OAK         1.2410    1.4300   -2.2940 o         1 6X1     -0.481000
     12 NAL        -1.7210   -2.8080   -1.9600 n4        1 6X1     -0.552200
     13 OAM        -1.0550   -3.2120    0.2320 o         1 6X1     -0.448100
     14 CAN        -3.0670   -2.4420   -2.3910 ca        1 6X1     -0.032400
     15 CAO        -3.2570   -1.2500   -3.1120 ca        1 6X1     -0.118000
     16 CAP        -4.1470   -3.2860   -2.0850 ca        1 6X1     -0.118000
     17 CAQ        -4.5480   -0.9090   -3.5260 ca        1 6X1      0.041400
     18 CAR        -5.4300   -2.9210   -2.5120 ca        1 6X1      0.041400
     19 CAS        -5.6380   -1.7380   -3.2300 ca        1 6X1     -0.074000
     20 CLAT       -4.7890    0.5180   -4.3930 cl        1 6X1     -0.004900
     21 CLAU       -6.7350   -3.9270   -2.1520 cl        1 6X1     -0.004900
     22 HNAC       -1.9490   -0.4030   -1.0240 hn        1 6X1      0.335500
     23 HAD        -1.3130   -0.9500    2.3910 ha        1 6X1      0.171000
     24 HAE         2.1330    1.8170    0.0370 ha        1 6X1      0.181000
     25 HAH         0.3720    0.3190    3.7010 ha        1 6X1      0.169000
     26 HAI         2.0950    1.7110    2.5330 ha        1 6X1      0.171000
     27 HNAL       -1.0300   -2.3990   -2.6050 hn        1 6X1      0.472800
     28 HAO        -2.4070   -0.5890   -3.3610 ha        1 6X1      0.173000
     29 HAP        -4.0060   -4.2230   -1.5190 ha        1 6X1      0.173000
     30 HAS        -6.6550   -1.4600   -3.5630 ha        1 6X1      0.196000
     31 HAC2        0.0910   -0.0960   -3.3880 ho        1 6X1      0.469000
     32 HAL2       -1.6230   -3.8330   -1.9580 hn        1 6X1      0.472800
@<TRIPOS>BOND
     1    1    2 ar  
     2    1    3 1   
     3    1    4 ar  
     4    2    5 ar  
     5    2    6 1   
     6    3    7 1   
     7    3   22 1   
     8    4    8 ar  
     9    4   23 1   
    10    5    9 ar  
    11    5   24 1   
    12    6   10 1   
    13    6   11 2   
    14    7   12 1   
    15    7   13 2   
    16    8    9 ar  
    17    8   25 1   
    18    9   26 1   
    19   10   31 1   
    20   12   14 1   
    21   12   27 1   
    22   12   32 1   
    23   14   15 ar  
    24   14   16 ar  
    25   15   17 ar  
    26   15   28 1   
    27   16   18 ar  
    28   16   29 1   
    29   17   19 ar  
    30   17   20 1   
    31   18   19 ar  
    32   18   21 1   
    33   19   30 1   
@<TRIPOS>SUBSTRUCTURE
     1 6X1         1 TEMP              0 ****  ****    0 ROOT
