@<TRIPOS>MOLECULE
6X1
   30    31     1     0     0
SMALL
bcc


@<TRIPOS>ATOM
      1 CAA         2.9590   -0.4830    1.0410 ca        1 6X1      0.007600
      2 CAB         3.7000    0.4000    0.2210 ca        1 6X1     -0.153600
      3 NAC         1.8480   -0.0240    1.8140 n         1 6X1     -0.394100
      4 CAD         3.3570   -1.8320    1.1510 ca        1 6X1     -0.132000
      5 CAE         4.8450   -0.0790   -0.4240 ca        1 6X1     -0.098000
      6 CAF         3.3090    1.8510   -0.0130 c         1 6X1      0.915200
      7 CAG         0.5680   -0.4580    1.3060 c         1 6X1      0.757100
      8 CAH         4.4900   -2.2840    0.4840 ca        1 6X1     -0.147000
      9 CAI         5.2420   -1.4070   -0.2980 ca        1 6X1     -0.160000
     10 OAJ         2.1090    2.2130    0.2070 o         1 6X1     -0.837300
     11 OAK         4.1930    2.6420   -0.4320 o         1 6X1     -0.837300
     12 NAL        -0.2130    0.4930    0.6170 n         1 6X1     -0.485100
     13 OAM         0.1600   -1.6170    1.5280 o         1 6X1     -0.610100
     14 CAN        -1.5270    0.3390    0.1910 ca        1 6X1      0.130600
     15 CAO        -2.0770    1.3430   -0.6540 ca        1 6X1     -0.185000
     16 CAP        -2.3530   -0.7440    0.5740 ca        1 6X1     -0.185000
     17 CAQ        -3.3980    1.2470   -1.0770 ca        1 6X1      0.055900
     18 CAR        -3.6700   -0.8010    0.1250 ca        1 6X1      0.055900
     19 CAS        -4.2180    0.1810   -0.7000 ca        1 6X1     -0.183000
     20 CLAT       -4.0390    2.4630   -2.0880 cl        1 6X1     -0.116400
     21 CLAU       -4.6520   -2.1150    0.6010 cl        1 6X1     -0.116400
     22 HNAC        1.8950    0.9860    1.9050 hn        1 6X1      0.313500
     23 HAD         2.7570   -2.5280    1.7590 ha        1 6X1      0.141000
     24 HAE         5.4240    0.6320   -1.0370 ha        1 6X1      0.155000
     25 HAH         4.7910   -3.3360    0.5760 ha        1 6X1      0.111000
     26 HAI         6.1420   -1.7650   -0.8150 ha        1 6X1      0.111000
     27 HNAL        0.2670    1.3280    0.3020 hn        1 6X1      0.382500
     28 HAO        -1.4570    2.1960   -0.9740 ha        1 6X1      0.177000
     29 HAP        -1.9570   -1.5460    1.2210 ha        1 6X1      0.177000
     30 HAS        -5.2590    0.1190   -1.0440 ha        1 6X1      0.148000
@<TRIPOS>BOND
     1    1    2 ar  
     2    1    3 1   
     3    1    4 ar  
     4    2    5 ar  
     5    2    6 1   
     6    3    7 1   
     7    3   22 1   
     8    4    8 ar  
     9    4   23 1   
    10    5    9 ar  
    11    5   24 1   
    12    6   10 1   
    13    6   11 1   
    14    7   12 1   
    15    7   13 2   
    16    8    9 ar  
    17    8   25 1   
    18    9   26 1   
    19   12   14 1   
    20   12   27 1   
    21   14   15 ar  
    22   14   16 ar  
    23   15   17 ar  
    24   15   28 1   
    25   16   18 ar  
    26   16   29 1   
    27   17   19 ar  
    28   17   20 1   
    29   18   19 ar  
    30   18   21 1   
    31   19   30 1   
@<TRIPOS>SUBSTRUCTURE
     1 6X1         1 TEMP              0 ****  ****    0 ROOT
