@<TRIPOS>MOLECULE
6XA
   26    25     1     0     0
SMALL
bcc


@<TRIPOS>ATOM
      1 C2          0.1110   -0.3700   -0.0160 c3        1 6XA      0.099800
      2 C3          1.5670    0.0840   -0.0170 c3        1 6XA     -0.109400
      3 C4          2.1660   -0.1350    1.3610 c3        1 6XA     -0.077400
      4 C5          3.6170    0.3070    1.3790 c3        1 6XA     -0.086400
      5 C6          4.2270    0.0800    2.7520 c3        1 6XA     -0.136400
      6 C7          5.6650    0.4810    2.7480 c         1 6XA      0.586100
      7 N1         -0.5570   -0.1930   -1.3390 n4        1 6XA     -0.838600
      8 N8          6.4240    0.2970    4.1060 n4        1 6XA     -0.476300
      9 O10         6.3810    0.9300    1.8790 o         1 6XA     -0.370100
     10 O9          5.9090   -0.7870    4.7250 oh        1 6XA     -0.366300
     11 H1          0.0480   -1.4660    0.2530 hx        1 6XA      0.118700
     12 H2         -0.4780    0.2210    0.7460 hx        1 6XA      0.118700
     13 H3          1.6370    1.1720   -0.2860 hc        1 6XA      0.077700
     14 H4          2.1560   -0.4960   -0.7770 hc        1 6XA      0.077700
     15 H5          2.0980   -1.2220    1.6360 hc        1 6XA      0.067200
     16 H6          1.5830    0.4450    2.1250 hc        1 6XA      0.067200
     17 H7          4.2000   -0.2660    0.6090 hc        1 6XA      0.079700
     18 H8          3.6880    1.3950    1.1090 hc        1 6XA      0.079700
     19 H9          3.6750    0.6720    3.5350 hc        1 6XA      0.122200
     20 H10         4.1580   -1.0090    3.0440 hc        1 6XA      0.122200
     21 H11        -1.5320   -0.5120   -1.2830 hn        1 6XA      0.469467
     22 H12        -0.0700   -0.7360   -2.0610 hn        1 6XA      0.469467
     23 H14         6.2880    1.1450    4.6850 hn        1 6XA      0.473800
     24 H15         6.4610   -1.0060    5.5140 ho        1 6XA      0.488000
     25 H13        -0.5480    0.7960   -1.6140 hn        1 6XA      0.469467
     26 H82         7.4380    0.1830    3.9100 hn        1 6XA      0.473800
@<TRIPOS>BOND
     1    1    2 1   
     2    1    7 1   
     3    1   11 1   
     4    1   12 1   
     5    2    3 1   
     6    2   13 1   
     7    2   14 1   
     8    3    4 1   
     9    3   15 1   
    10    3   16 1   
    11    4    5 1   
    12    4   17 1   
    13    4   18 1   
    14    5    6 1   
    15    5   19 1   
    16    5   20 1   
    17    6    8 1   
    18    6    9 2   
    19    7   21 1   
    20    7   22 1   
    21    7   25 1   
    22    8   10 1   
    23    8   23 1   
    24    8   26 1   
    25   10   24 1   
@<TRIPOS>SUBSTRUCTURE
     1 6XA         1 TEMP              0 ****  ****    0 ROOT
