@<TRIPOS>MOLECULE
6XA
   26    25     1     0     0
SMALL
bcc


@<TRIPOS>ATOM
      1 C2          0.1120   -0.3910   -0.0130 c3        1 6XA      0.099800
      2 C3          1.5700    0.0560   -0.0220 c3        1 6XA     -0.109400
      3 C4          2.1650   -0.1350    1.3630 c3        1 6XA     -0.077400
      4 C5          3.6180    0.3000    1.3740 c3        1 6XA     -0.086400
      5 C6          4.2230    0.1020    2.7540 c3        1 6XA     -0.136400
      6 C7          5.6640    0.4950    2.7440 c         1 6XA      0.586100
      7 N1         -0.5520   -0.2400   -1.3420 nz        1 6XA     -0.838600
      8 N8          6.4180    0.3380    4.1070 ny        1 6XA     -0.476300
      9 O10         6.3850    0.9190    1.8660 o         1 6XA     -0.370100
     10 O9          5.8960   -0.7270    4.7510 oh        1 6XA     -0.366300
     11 H1         -0.4760    0.2210    0.7320 hx        1 6XA      0.118700
     12 H2          0.0420   -1.4790    0.2810 hx        1 6XA      0.118700
     13 H3          2.1580   -0.5450   -0.7670 hc        1 6XA      0.077700
     14 H4          1.6460    1.1370   -0.3160 hc        1 6XA      0.077700
     15 H5          1.5830    0.4660    2.1120 hc        1 6XA      0.067200
     16 H6          2.0900   -1.2140    1.6630 hc        1 6XA      0.067200
     17 H7          3.6960    1.3810    1.0800 hc        1 6XA      0.079700
     18 H8          4.2000   -0.2940    0.6190 hc        1 6XA      0.079700
     19 H9          4.1480   -0.9790    3.0700 hc        1 6XA      0.122200
     20 H10         3.6730    0.7150    3.5210 hc        1 6XA      0.122200
     21 H11        -0.5370    0.7420   -1.6400 hn        1 6XA      0.469467
     22 H12        -1.5280   -0.5540   -1.2810 hn        1 6XA      0.469467
     23 H14         6.2850    1.2010    4.6670 hn        1 6XA      0.473800
     24 H15         6.4450   -0.9310    5.5460 ho        1 6XA      0.488000
     25 H13        -0.0670   -0.8030   -2.0500 hn        1 6XA      0.469467
     26 H82         7.4330    0.2140    3.9170 hn        1 6XA      0.473800
@<TRIPOS>BOND
     1    1    2 1   
     2    1    7 1   
     3    1   11 1   
     4    1   12 1   
     5    2    3 1   
     6    2   13 1   
     7    2   14 1   
     8    3    4 1   
     9    3   15 1   
    10    3   16 1   
    11    4    5 1   
    12    4   17 1   
    13    4   18 1   
    14    5    6 1   
    15    5   19 1   
    16    5   20 1   
    17    6    8 1   
    18    6    9 2   
    19    7   21 1   
    20    7   22 1   
    21    7   25 1   
    22    8   10 1   
    23    8   23 1   
    24    8   26 1   
    25   10   24 1   
@<TRIPOS>SUBSTRUCTURE
     1 6XA         1 TEMP              0 ****  ****    0 ROOT
