@<TRIPOS>MOLECULE
6XC
   37    39     1     0     0
SMALL
bcc


@<TRIPOS>ATOM
      1 C01        -0.0390    0.2710    0.0190 c3        1 6XC     -0.050900
      2 C05         1.4320    0.1460    0.0490 cc        1 6XC     -0.149400
      3 C06         2.1560    0.0320    1.1870 cd        1 6XC     -0.059200
      4 C08         3.5920   -0.0940    1.1480 ca        1 6XC     -0.083800
      5 C09         4.3550   -0.1970    2.3240 ca        1 6XC     -0.219300
      6 C11         5.7370   -0.3170    2.2110 ca        1 6XC      0.384200
      7 N13         6.3990   -0.3680    1.0360 nb        1 6XC     -0.687000
      8 C14         5.7010   -0.2690   -0.1190 ca        1 6XC      0.580200
      9 N15         6.3520   -0.2520   -1.3830 nu        1 6XC     -0.822900
     10 C17         7.8030   -0.1220   -1.4400 c3        1 6XC      0.192500
     11 C19         8.2250    0.4120   -2.8220 c3        1 6XC     -0.092900
     12 C22         9.7370    0.6220   -2.8580 c3        1 6XC      0.165300
     13 N25        10.4880   -0.5690   -2.5140 n7        1 6XC     -0.822200
     14 C27        10.0800   -1.1720   -1.2600 c3        1 6XC      0.165300
     15 C30         8.5760   -1.4230   -1.1740 c3        1 6XC     -0.092900
     16 C33         4.2480   -0.1070   -0.1100 ca        1 6XC     -0.037700
     17 N34         3.5050    0.0210   -1.2740 ns        1 6XC     -0.429100
     18 C36         2.1120    0.1650   -1.2640 c         1 6XC      0.687700
     19 O37         1.5280    0.2970   -2.3570 o         1 6XC     -0.630500
     20 H011       -0.3320    1.2070   -0.5220 hc        1 6XC      0.056367
     21 H012       -0.4660    0.2980    1.0500 hc        1 6XC      0.056367
     22 H013       -0.4830   -0.5940   -0.5370 hc        1 6XC      0.056367
     23 H06         1.6710    0.0290    2.1770 ha        1 6XC      0.146000
     24 H09         3.8640   -0.1800    3.3060 ha        1 6XC      0.148000
     25 H11         6.3810   -0.3920    3.1060 h4        1 6XC      0.026100
     26 H15         6.0320   -1.0130   -1.9540 hn        1 6XC      0.388800
     27 H17         8.1160    0.6420   -0.6680 h1        1 6XC      0.077700
     28 H191        7.9210   -0.3090   -3.6240 hc        1 6XC      0.055200
     29 H192        7.7250    1.3920   -3.0290 hc        1 6XC      0.055200
     30 H301        8.3450   -1.8160   -0.1510 hc        1 6XC      0.055200
     31 H302        8.2780   -2.2030   -1.9210 hc        1 6XC      0.055200
     32 H221       10.0350    0.9140   -3.9040 h1        1 6XC      0.029950
     33 H222        9.9860    1.4920   -2.1780 h1        1 6XC      0.029950
     34 H25        11.4690   -0.3600   -2.4900 hn        1 6XC      0.363800
     35 H271       10.3810   -0.5430   -0.3700 h1        1 6XC      0.029950
     36 H272       10.6170   -2.1590   -1.1750 h1        1 6XC      0.029950
     37 H34         3.9700    0.1170   -2.1520 hn        1 6XC      0.343500
@<TRIPOS>BOND
     1    1    2 1   
     2    1   20 1   
     3    1   21 1   
     4    1   22 1   
     5    2    3 2   
     6    2   18 1   
     7    3    4 1   
     8    3   23 1   
     9    4    5 ar  
    10    4   16 ar  
    11    5    6 ar  
    12    5   24 1   
    13    6    7 ar  
    14    6   25 1   
    15    7    8 ar  
    16    8    9 1   
    17    8   16 ar  
    18    9   10 1   
    19    9   26 1   
    20   10   11 1   
    21   10   15 1   
    22   10   27 1   
    23   11   12 1   
    24   11   28 1   
    25   11   29 1   
    26   12   13 1   
    27   12   32 1   
    28   12   33 1   
    29   13   14 1   
    30   13   34 1   
    31   14   15 1   
    32   14   35 1   
    33   14   36 1   
    34   15   30 1   
    35   15   31 1   
    36   16   17 1   
    37   17   18 1   
    38   17   37 1   
    39   18   19 2   
@<TRIPOS>SUBSTRUCTURE
     1 6XC         1 TEMP              0 ****  ****    0 ROOT
