@<TRIPOS>MOLECULE
6XE
   40    38     1     0     0
SMALL
bcc


@<TRIPOS>ATOM
      1 C1          0.2100   -1.2480   -0.6860 c2        1 6XE     -0.087000
      2 C2          2.4710    2.6210    2.3310 c1        1 6XE      0.442000
      3 N3          2.5620    1.4460    2.2540 n2        1 6XE     -0.334000
      4 C4          2.4110   -1.8940    2.0040 c1        1 6XE     -0.209000
      5 C5          1.4310   -1.6100    1.3740 c1        1 6XE     -0.143000
      6 C6          0.2680   -1.2850    0.6590 c2        1 6XE     -0.085000
      7 C7         -1.0670   -0.8940   -2.7420 c2        1 6XE     -0.136000
      8 C8          2.4760    5.1730    2.6200 c1        1 6XE      0.192000
      9 C9          2.4740    3.9260    2.4790 c1        1 6XE     -0.662000
     10 C10        -1.0030   -0.9160   -1.4030 c2        1 6XE     -0.145000
     11 C11        -4.1020   -4.2850   -2.8860 c2        1 6XE     -0.036000
     12 C12        -4.5070   -5.4530   -6.3880 c1        1 6XE      0.207000
     13 N13        -3.9650   -4.4630   -6.0240 n2        1 6XE     -0.283000
     14 N14        -3.9810   -3.0400   -3.2680 n2        1 6XE     -0.064000
     15 C15        -6.7580    1.9150   -1.1160 c1        1 6XE      0.005000
     16 C16        -6.3590    0.8150   -1.3640 c1        1 6XE     -0.118000
     17 C17        -4.9690   -5.8780   -1.2550 c2        1 6XE     -0.154000
     18 C18        -4.8220   -4.6120   -1.6520 c2        1 6XE     -0.169000
     19 C19        -5.8700   -1.5370   -0.9060 c1        1 6XE      0.223000
     20 C20        -5.8960   -0.4590   -1.6700 c2        1 6XE     -0.338000
     21 N22        -3.3400   -2.6940   -4.3940 na        1 6XE     -0.123000
     22 C23        -3.3160   -3.3010   -5.7070 c2        1 6XE      0.044000
     23 N24        -2.5850   -2.4820   -6.5450 n2        1 6XE     -0.039000
     24 N25        -2.1600   -1.4440   -5.8660 n2        1 6XE     -0.079000
     25 C26        -2.5830   -1.5000   -4.5680 c2        1 6XE     -0.028000
     26 C27        -2.2950   -0.5170   -3.4870 c3        1 6XE     -0.061000
     27 H6         -0.6230   -1.0680    1.2780 ha        1 6XE      0.145000
     28 H10        -1.8880   -0.6770   -0.7870 ha        1 6XE      0.132000
     29 H9          1.1010   -1.4740   -1.2990 ha        1 6XE      0.135000
     30 H4          2.3800    0.5110    2.0450 hn        1 6XE      0.352000
     31 H5          3.2740   -2.1620    2.5610 ha        1 6XE      0.233000
     32 H8         -0.1900   -1.1340   -3.3680 ha        1 6XE      0.141000
     33 H271       -2.1320    0.4930   -3.9620 hc        1 6XE      0.124500
     34 H272       -3.1810   -0.4280   -2.8010 hc        1 6XE      0.124500
     35 H12        -3.6950   -5.1640   -3.4360 h4        1 6XE      0.137000
     36 H16        -4.5730   -6.7370   -1.8150 ha        1 6XE      0.126000
     37 H20        -5.4960   -0.5920   -2.7080 ha        1 6XE      0.213000
     38 H17        -5.5050   -6.1310   -0.3300 ha        1 6XE      0.126000
     39 H19        -5.2350   -3.7690   -1.0630 ha        1 6XE      0.173000
     40 F21        -7.1870    3.1040   -0.8440 f         1 6XE      0.017000
@<TRIPOS>BOND
     1    1    6 1   
     2    1   10 1   
     3    1   29 1   
     4    2    3 1   
     5    2    9 1   
     6    3   30 1   
     7    4    5 1   
     8    4   31 1   
     9    5    6 1   
    10    6   27 1   
    11    7   10 1   
    12    7   26 1   
    13    7   32 1   
    14    8    9 1   
    15   10   28 1   
    16   11   14 1   
    17   11   18 1   
    18   11   35 1   
    19   12   13 1   
    20   13   22 1   
    21   14   21 1   
    22   15   16 1   
    23   15   40 1   
    24   16   20 1   
    25   17   18 1   
    26   17   36 1   
    27   17   38 1   
    28   18   39 1   
    29   19   20 1   
    30   20   37 1   
    31   21   22 1   
    32   21   25 1   
    33   22   23 1   
    34   23   24 1   
    35   24   25 1   
    36   25   26 1   
    37   26   33 1   
    38   26   34 1   
@<TRIPOS>SUBSTRUCTURE
     1 6XE         1 TEMP              0 ****  ****    0 ROOT
