@<TRIPOS>MOLECULE
6XE
   40    44     1     0     0
SMALL
bcc


@<TRIPOS>ATOM
      1 C1         -3.0960    1.7070    0.1980 ca        1 6XE     -0.151300
      2 C2         -4.1900    1.2120   -0.5770 ca        1 6XE      0.398600
      3 N3         -4.9780    2.0500   -1.3450 nb        1 6XE     -0.655000
      4 C4         -4.6880    3.3390   -1.3450 ca        1 6XE      0.413200
      5 C5         -3.6130    3.9250   -0.6030 ca        1 6XE     -0.250300
      6 C6         -2.8250    3.1060    0.1640 ca        1 6XE     -0.079000
      7 C7         -2.6050   -0.5350    0.9860 ca        1 6XE     -0.091300
      8 C8         -3.6900   -1.0330    0.2160 ca        1 6XE     -0.111000
      9 C9         -4.4630   -0.1940   -0.5440 ca        1 6XE     -0.163300
     10 C10        -2.3170    0.8110    0.9720 ca        1 6XE     -0.097000
     11 C11         2.2300   -1.1300   -0.0900 cc        1 6XE      0.324500
     12 C12         2.6120   -2.3200   -0.8680 cc        1 6XE      0.317900
     13 N13         1.8540   -3.3870   -0.9840 nd        1 6XE     -0.542000
     14 N14         1.0600   -1.0560    0.5590 nd        1 6XE     -0.416800
     15 C15         4.9950    2.1100    0.0410 ca        1 6XE      0.148900
     16 C16         4.7450    1.4430   -1.1750 ca        1 6XE     -0.169500
     17 C17         3.8380    0.3910   -1.2040 ca        1 6XE     -0.073000
     18 C18         3.1740   -0.0080   -0.0350 ca        1 6XE     -0.173500
     19 C19         3.4200    0.6640    1.1700 ca        1 6XE     -0.073000
     20 C20         4.3280    1.7170    1.2160 ca        1 6XE     -0.169500
     21 N22         0.2740   -2.1150    0.4540 na        1 6XE     -0.074500
     22 C23         0.6320   -3.3210   -0.3140 cd        1 6XE      0.271500
     23 N24        -0.4170   -4.2070   -0.1910 nc        1 6XE     -0.010000
     24 N25        -1.3460   -3.6660    0.5530 nc        1 6XE     -0.354700
     25 C26        -1.0040   -2.4070    0.9800 cd        1 6XE      0.366800
     26 C27        -1.8120   -1.4820    1.8210 c3        1 6XE     -0.032400
     27 H6         -1.9850    3.5010    0.7540 ha        1 6XE      0.138000
     28 H10        -1.4770    1.2150    1.5580 ha        1 6XE      0.137000
     29 H9         -5.3030   -0.5880   -1.1390 ha        1 6XE      0.155000
     30 H4         -5.3340    3.9840   -1.9690 h4        1 6XE      0.023100
     31 H5         -3.4440    5.0080   -0.6630 ha        1 6XE      0.145000
     32 H8         -3.8980   -2.1160    0.2380 ha        1 6XE      0.152000
     33 H271       -1.1310   -0.9180    2.5160 hc        1 6XE      0.082200
     34 H272       -2.5130   -2.0980    2.4530 hc        1 6XE      0.082200
     35 H12         3.5930   -2.3330   -1.3780 h4        1 6XE      0.053100
     36 H16         5.2670    1.7620   -2.0890 ha        1 6XE      0.157500
     37 H20         4.5290    2.2450    2.1590 ha        1 6XE      0.157500
     38 H17         3.6350   -0.1230   -2.1560 ha        1 6XE      0.148500
     39 H19         2.8970    0.3600    2.0910 ha        1 6XE      0.148500
     40 F21         5.8790    3.1330    0.0770 f         1 6XE     -0.130900
@<TRIPOS>BOND
     1    1    2 ar  
     2    1    6 ar  
     3    1   10 ar  
     4    2    3 ar  
     5    2    9 ar  
     6    3    4 ar  
     7    4    5 ar  
     8    4   30 1   
     9    5    6 ar  
    10    5   31 1   
    11    6   27 1   
    12    7    8 ar  
    13    7   10 ar  
    14    7   26 1   
    15    8    9 ar  
    16    8   32 1   
    17    9   29 1   
    18   10   28 1   
    19   11   12 1   
    20   11   14 2   
    21   11   18 1   
    22   12   13 2   
    23   12   35 1   
    24   13   22 1   
    25   14   21 1   
    26   15   16 ar  
    27   15   20 ar  
    28   15   40 1   
    29   16   17 ar  
    30   16   36 1   
    31   17   18 ar  
    32   17   38 1   
    33   18   19 ar  
    34   19   20 ar  
    35   19   39 1   
    36   20   37 1   
    37   21   22 1   
    38   21   25 1   
    39   22   23 2   
    40   23   24 1   
    41   24   25 2   
    42   25   26 1   
    43   26   33 1   
    44   26   34 1   
@<TRIPOS>SUBSTRUCTURE
     1 6XE         1 TEMP              0 ****  ****    0 ROOT
