@<TRIPOS>MOLECULE
6XE
   40    31     1     0     0
SMALL
bcc


@<TRIPOS>ATOM
      1 C1          4.1750    1.7210   -0.9580 c1        1 6XE     -0.085000
      2 C2          4.7220    1.5840    0.2960 c1        1 6XE      0.004000
      3 N3          6.0980    1.5340    0.4490 n1        1 6XE     -0.132000
      4 C4          6.9120    1.6210   -0.6440 c1        1 6XE     -0.121000
      5 C5          6.3600    1.7600   -1.9140 c1        1 6XE     -0.121000
      6 C6          5.0020    1.8100   -2.0680 c1        1 6XE     -0.075000
      7 C7          1.9490    1.6410   -0.0040 c1        1 6XE     -0.088000
      8 C8          2.5030    1.5010    1.2650 c1        1 6XE     -0.113000
      9 C9          3.8830    1.4720    1.4210 c2        1 6XE     -0.101000
     10 C10         2.7760    1.7510   -1.1150 c2        1 6XE     -0.090000
     11 C11        -3.0850   -1.7050   -0.3530 c1        1 6XE     -0.045000
     12 C12        -2.6990   -2.7040   -1.2190 c1        1 6XE     -0.082000
     13 N13        -1.4980   -2.6520   -1.8060 n1        1 6XE     -0.017000
     14 N14        -2.2610   -0.6840   -0.1000 n1        1 6XE      0.016000
     15 C15        -6.3150   -1.5570    2.4570 c1        1 6XE      0.114000
     16 C16        -5.5600   -2.7120    2.3290 c1        1 6XE     -0.121000
     17 C17        -4.5270   -2.7660    1.4070 c1        1 6XE     -0.121000
     18 C18        -4.2480   -1.6650    0.6130 c1        1 6XE     -0.067000
     19 C19        -5.0030   -0.5090    0.7410 c1        1 6XE     -0.064000
     20 C20        -6.0360   -0.4550    1.6630 c1        1 6XE     -0.171000
     21 F21        -7.2890   -1.4910    3.3740 f         1 6XE     -0.096000
     22 N22        -1.0300   -0.6320   -0.7030 n1        1 6XE     -0.116000
     23 C23        -0.6530   -1.6060   -1.5470 c1        1 6XE     -0.081000
     24 N24         0.5950   -1.3080   -2.0020 n1        1 6XE     -0.011000
     25 N25         0.9810   -0.1450   -1.4320 n2        1 6XE     -0.070000
     26 C26        -0.0160    0.2770   -0.6300 c1        1 6XE     -0.035000
     27 C27         0.4470    1.6510   -0.1930 c2        1 6XE     -0.042000
     28 H6          4.6150    1.9070   -2.9590 ha        1 6XE      0.143000
     29 H10         2.3870    1.8480   -2.0050 ha        1 6XE      0.150000
     30 H9          4.2710    1.3750    2.3120 ha        1 6XE      0.152000
     31 H4          7.8810    1.5860   -0.5340 ha        1 6XE      0.152250
     32 H5          6.9430    1.8230   -2.6950 ha        1 6XE      0.152250
     33 H8          1.9220    1.4240    2.0450 ha        1 6XE      0.138000
     34 H271        0.2100    2.3080   -0.8770 ha        1 6XE      0.121500
     35 H272        0.0140    1.8890    0.6510 ha        1 6XE      0.121500
     36 H12        -3.3010   -3.4500   -1.4040 ha        1 6XE      0.190000
     37 H16        -5.7560   -3.4870    2.8890 ha        1 6XE      0.152250
     38 H20        -6.5680    0.3580    1.7530 ha        1 6XE      0.157000
     39 H17        -3.9950   -3.5800    1.3170 ha        1 6XE      0.152250
     40 H19        -4.8070    0.2660    0.1820 ha        1 6XE      0.153000
@<TRIPOS>BOND
     1    1    6 1   
     2    1   10 1   
     3    2    3 1   
     4    2    9 1   
     5    4    5 1   
     6    4   31 1   
     7    5   32 1   
     8    6   28 1   
     9    7   10 1   
    10    7   27 1   
    11    8    9 1   
    12    8   33 1   
    13    9   30 1   
    14   10   29 1   
    15   11   14 1   
    16   11   18 1   
    17   12   13 1   
    18   12   36 1   
    19   15   20 1   
    20   15   21 1   
    21   16   17 1   
    22   16   37 1   
    23   17   39 1   
    24   18   19 1   
    25   19   40 1   
    26   20   38 1   
    27   22   23 1   
    28   24   25 1   
    29   25   26 1   
    30   27   34 1   
    31   27   35 1   
@<TRIPOS>SUBSTRUCTURE
     1 6XE         1 TEMP              0 ****  ****    0 ROOT
