@<TRIPOS>MOLECULE
6XP
   45    44     1     0     0
SMALL
bcc


@<TRIPOS>ATOM
      1 C50        33.0810   21.6790  833.5280 c3        1 6XP     -0.065900
      2 C2         36.6690   21.9110  832.2960 cg        1 6XP     -0.303300
      3 C6         32.7080   19.9370  836.2600 c2        1 6XP     -0.071000
      4 C3         37.8300   21.8030  832.0050 c1        1 6XP      0.026500
      5 C5         33.9570   20.2390  835.8800 ce        1 6XP     -0.103100
      6 C19        34.9150   19.9740  833.7030 cf        1 6XP      0.581900
      7 C20        34.4930   21.3050  833.2580 cf        1 6XP     -0.286800
      8 N13       -41.8400  -31.0200-1056.6600 n         1 6XP     -0.436500
      9 N17        36.2080   17.9490  833.2170 n3        1 6XP     -0.707100
     10 N18        35.6790   19.1710  832.9390 nh        1 6XP     -0.136900
     11 O21        34.5580   19.4180  834.8920 os        1 6XP     -0.332700
     12 C1         35.3280   22.1500  832.6050 ce        1 6XP      0.138300
     13 C4         34.8640   21.2190  836.5210 c         1 6XP      0.560100
     14 C8        -40.3980  -27.6380-1057.1080 ca        1 6XP      0.081000
     15 C7        -39.4040  -27.9640-1058.0780 ca        1 6XP     -0.167000
     16 C11       -40.1020  -30.2830-1058.0310 ca        1 6XP     -0.125000
     17 C9        -41.2640  -28.5730-1056.5660 ca        1 6XP     -0.167300
     18 C15       -40.2020  -31.6210-1058.2740 cc        1 6XP      0.003800
     19 C10       -39.2430  -29.2440-1058.5400 ca        1 6XP      0.107400
     20 C12       -41.1390  -29.9100-1057.0110 ca        1 6XP      0.237000
     21 C14       -41.3280  -32.1650-1057.4020 c         1 6XP      0.658700
     22 H501       32.6750   22.2920  832.6840 hc        1 6XP      0.074367
     23 H502       33.0130   22.2860  834.4680 hc        1 6XP      0.074367
     24 H503       32.4360   20.7730  833.6450 hc        1 6XP      0.074367
     25 H20         9.7430   20.3890   -4.9360 ha        1 6XP      0.000000
     26 H2         34.9410   23.1470  832.2920 ha        1 6XP      0.192000
     27 H3         38.8600   21.7020  831.7450 ha        1 6XP      0.200500
     28 H6         32.2580   20.4570  837.1250 ha        1 6XP      0.172500
     29 H5         32.0920   19.1720  835.7650 ha        1 6XP      0.172500
     30 H18         9.4250   20.3170   -5.5290 ha        1 6XP      0.000000
     31 H241      -42.2530  -27.1210-1055.3220 hc        1 6XP      0.075367
     32 H242      -43.3150  -28.4500-1055.9430 hc        1 6XP      0.075367
     33 H243      -42.1240  -28.7820-1054.6100 hc        1 6XP      0.075367
     34 H13       -42.5870  -31.0600-1056.0020 hn        1 6XP      0.390500
     35 H17       -39.6330  -32.2750-1058.9450 ha        1 6XP      0.232000
     36 H22        35.9260   21.1620  836.2000 h4        1 6XP      0.026200
     37 H8        -40.4700  -26.5810-1056.7820 ha        1 6XP      0.189000
     38 H7        -38.7590  -27.1460-1058.4510 ha        1 6XP      0.198000
     39 H15        35.5250   17.2230  833.0130 hn        1 6XP      0.399300
     40 O22        34.4530   22.0190  837.3550 o         1 6XP     -0.451100
     41 O16       -41.7600  -33.2980-1057.2980 o         1 6XP     -0.392500
     42 CL2       -38.0820  -29.6450-1059.6780 cl        1 6XP      0.037600
     43 C24       -42.2890  -28.2140-1055.5610 c3        1 6XP     -0.071800
     44 H172       36.4620   17.8790  834.1980 hn        1 6XP      0.399300
     45 H182       35.9870   19.5260  832.0370 hn        1 6XP      0.366700
@<TRIPOS>BOND
     1    1    7 1   
     2    1   22 1   
     3    1   23 1   
     4    1   24 1   
     5    2    4 3   
     6    2   12 1   
     7    3    5 2   
     8    3   28 1   
     9    3   29 1   
    10    4   27 1   
    11    5   11 1   
    12    5   13 1   
    13    6    7 1   
    14    6   10 2   
    15    6   11 1   
    16    7   12 2   
    17    8   20 2   
    18    8   21 1   
    19    8   34 1   
    20    9   10 1   
    21    9   39 1   
    22    9   44 1   
    23   10   45 1   
    24   12   26 1   
    25   13   36 1   
    26   13   40 2   
    27   14   15 ar  
    28   14   17 ar  
    29   14   37 1   
    30   15   19 ar  
    31   15   38 1   
    32   16   18 2   
    33   16   19 ar  
    34   16   20 ar  
    35   17   20 ar  
    36   17   43 1   
    37   18   21 1   
    38   18   35 1   
    39   19   42 1   
    40   21   41 2   
    41   25   30 1   
    42   31   43 1   
    43   32   43 1   
    44   33   43 1   
@<TRIPOS>SUBSTRUCTURE
     1 6XP         1 TEMP              0 ****  ****    0 ROOT
