@<TRIPOS>MOLECULE
6XP
   43    45     1     0     0
SMALL
bcc


@<TRIPOS>ATOM
      1 C50        -2.3160    2.1820    1.4900 c3        1 6XP     -0.103100
      2 C2         -4.8500   -0.3810    1.3340 ca        1 6XP     -0.076500
      3 C6         -3.9650    0.7170   -0.6280 ca        1 6XP     -0.076500
      4 C3         -6.0080   -0.7160    0.6430 ca        1 6XP     -0.186000
      5 C5         -5.1160    0.3900   -1.3390 ca        1 6XP     -0.186000
      6 C19        -1.3980   -0.1190    1.0160 c         1 6XP      0.618100
      7 C20        -2.5980    0.6930    1.4960 c3        1 6XP     -0.076400
      8 N13         3.2590    1.7450    0.1340 n         1 6XP     -0.466100
      9 N17         0.4470   -0.2000   -0.5940 n3        1 6XP     -0.526200
     10 N18        -0.7470    0.3040   -0.1690 n         1 6XP     -0.395300
     11 O21        -1.0430   -1.1550    1.6080 o         1 6XP     -0.591100
     12 C1         -3.8200    0.3400    0.7110 ca        1 6XP     -0.120300
     13 C4         -6.1380   -0.3260   -0.7000 ca        1 6XP      0.130100
     14 C8          5.5010   -0.9730   -1.1300 ca        1 6XP     -0.083000
     15 C7          4.5980   -2.0260   -1.0530 ca        1 6XP     -0.152000
     16 C11         2.9040   -0.5300   -0.2290 ca        1 6XP     -0.131300
     17 C9          5.1520    0.3370   -0.7610 ca        1 6XP     -0.109300
     18 C15         1.6010    0.0070    0.3140 c3        1 6XP      0.096800
     19 C10         3.2840   -1.8070   -0.5990 ca        1 6XP      0.067400
     20 C12         3.8450    0.5460   -0.3100 ca        1 6XP      0.069600
     21 C14         1.9130    1.5310    0.4610 c         1 6XP      0.707500
     22 H501       -1.2840    2.3890    1.8680 hc        1 6XP      0.051033
     23 H502       -2.4110    2.6140    0.4640 hc        1 6XP      0.051033
     24 H503       -3.0500    2.7040    2.1510 hc        1 6XP      0.051033
     25 H20        -2.7540    0.3730    2.5710 hc        1 6XP      0.086700
     26 H2         -4.7420   -0.6920    2.3850 ha        1 6XP      0.138500
     27 H3         -6.8180   -1.2810    1.1260 ha        1 6XP      0.143500
     28 H6         -3.1620    1.2730   -1.1370 ha        1 6XP      0.138500
     29 H5         -5.2210    0.6880   -2.3920 ha        1 6XP      0.143500
     30 H18        -0.7790    1.3010   -0.3220 hn        1 6XP      0.322500
     31 H241        5.7420    2.2490   -1.5290 hc        1 6XP      0.048033
     32 H242        6.2890    1.8990    0.1640 hc        1 6XP      0.048033
     33 H243        7.1080    1.0930   -1.2380 hc        1 6XP      0.048033
     34 H13         3.6910    2.6290    0.0450 hn        1 6XP      0.343500
     35 H17         0.3430   -1.2070   -0.7040 hn        1 6XP      0.395800
     36 H22        -7.2550   -0.3700   -2.2490 ho        1 6XP      0.420000
     37 H8          6.5240   -1.1670   -1.4900 ha        1 6XP      0.142000
     38 H7          4.9080   -3.0390   -1.3490 ha        1 6XP      0.152000
     39 H15         1.4200   -0.4050    1.3530 h1        1 6XP      0.103700
     40 O22        -7.3060   -0.6820   -1.3340 oh        1 6XP     -0.496100
     41 O16         1.1220    2.4080    0.8260 o         1 6XP     -0.617500
     42 CL2         2.1990   -3.1070   -0.5080 cl        1 6XP     -0.072400
     43 C24         6.1230    1.4480   -0.8460 c3        1 6XP     -0.051800
@<TRIPOS>BOND
     1    1    7 1   
     2    1   22 1   
     3    1   23 1   
     4    1   24 1   
     5    2    4 ar  
     6    2   12 ar  
     7    2   26 1   
     8    3    5 ar  
     9    3   12 ar  
    10    3   28 1   
    11    4   13 ar  
    12    4   27 1   
    13    5   13 ar  
    14    5   29 1   
    15    6    7 1   
    16    6   10 1   
    17    6   11 2   
    18    7   12 1   
    19    7   25 1   
    20    8   20 1   
    21    8   21 1   
    22    8   34 1   
    23    9   10 1   
    24    9   18 1   
    25    9   35 1   
    26   10   30 1   
    27   13   40 1   
    28   14   15 ar  
    29   14   17 ar  
    30   14   37 1   
    31   15   19 ar  
    32   15   38 1   
    33   16   18 1   
    34   16   19 ar  
    35   16   20 ar  
    36   17   20 ar  
    37   17   43 1   
    38   18   21 1   
    39   18   39 1   
    40   19   42 1   
    41   21   41 2   
    42   31   43 1   
    43   32   43 1   
    44   33   43 1   
    45   36   40 1   
@<TRIPOS>SUBSTRUCTURE
     1 6XP         1 TEMP              0 ****  ****    0 ROOT
