@<TRIPOS>MOLECULE
6XP
   45    45     1     0     0
SMALL
bcc


@<TRIPOS>ATOM
      1 C50        25.5200  -12.2140  185.0690 c3        1 6XP     -0.233000
      2 C2         26.1080   -8.5690  183.9090 c2        1 6XP     -0.159000
      3 C6         24.5240  -10.1050  183.1980 c2        1 6XP     -0.046000
      4 C3         25.5900   -8.0360  182.7730 c2        1 6XP     -0.124000
      5 C5         24.5160   -8.9490  182.2260 c3        1 6XP     -0.177000
      6 C19        25.2060  -10.2780  186.5170 c1        1 6XP      0.473000
      7 C20        25.8510  -10.7440  185.2910 c3        1 6XP      0.013000
      8 N13       -30.8810   10.8700 -256.8890 ns        1 6XP     -0.283000
      9 N17        26.7850  -11.6240  188.3820 n8        1 6XP     -0.308500
     10 N18        27.4260  -10.4370  188.1760 n8        1 6XP     -0.308500
     11 O21        24.6460   -9.8900  187.4500 o         1 6XP      0.084000
     12 C1         25.4480   -9.8620  184.1730 c2        1 6XP     -0.207000
     13 C4         24.7600   -9.3580  180.7940 c2        1 6XP      0.212000
     14 C8        -31.2790   14.5250 -256.4440 ca        1 6XP      0.081000
     15 C7        -31.3600   14.8930 -257.8200 ca        1 6XP     -0.167000
     16 C11       -31.1180   12.5720 -258.4670 ca        1 6XP     -0.125000
     17 C9        -31.1200   13.2180 -256.0170 ca        1 6XP     -0.160000
     18 C15       -31.0100   11.4250 -259.1970 c2        1 6XP      0.023000
     19 C10       -31.2840   13.9590 -258.8190 ca        1 6XP      0.029000
     20 C12       -31.0360   12.2150 -257.0110 ca        1 6XP      0.237000
     21 C14       -30.8520   10.2680 -258.2150 c2        1 6XP      0.297000
     22 H501       26.0610  -12.5550  184.1500 hc        1 6XP      0.128000
     23 H502       24.4260  -12.3660  184.9100 hc        1 6XP      0.128000
     24 H503       25.8610  -12.8320  185.9360 hc        1 6XP      0.128000
     25 H20        26.9730  -10.6370  185.4660 hc        1 6XP      0.199000
     26 H2         26.8960   -8.1580  184.5400 ha        1 6XP      0.159000
     27 H3         25.8530   -7.0970  182.2840 ha        1 6XP      0.176000
     28 H6         23.8850  -10.9780  183.0500 ha        1 6XP      0.178000
     29 H5         23.5140   -8.4290  182.2650 hc        1 6XP      0.179000
     30 H18        27.7870  -10.0150  189.0260 hn        1 6XP      0.157000
     31 H241      -31.1220   13.7650 -253.9350 hc        1 6XP      0.114667
     32 H242      -31.8670   12.1560 -254.3070 hc        1 6XP      0.114667
     33 H243      -30.0610   12.3600 -254.3580 hc        1 6XP      0.114667
     34 H13       -30.8000   10.3630 -256.0360 hn        1 6XP      0.304000
     35 H17       -31.0220   11.2560 -260.2800 ha        1 6XP      0.232000
     36 H22        25.1080   -8.5330  180.1360 h4        1 6XP      0.128000
     37 H8        -31.3490   15.3360 -255.6910 ha        1 6XP      0.189000
     38 H7        -31.4880   15.9660 -258.0610 ha        1 6XP      0.198000
     39 H15        26.0830  -11.4980  189.1020 hn        1 6XP      0.157000
     40 O22        24.5670  -10.5020  180.3950 o         1 6XP     -0.249000
     41 O16       -30.7240    9.0760 -258.4260 o         1 6XP     -0.117000
     42 Cl2       -31.3770   14.3730 -260.4400 cl        1 6XP      0.116000
     43 C24       -31.0390   12.8570 -254.5840 c3        1 6XP     -0.197000
     44 H172       27.3960  -12.3700  188.6950 hn        1 6XP      0.157000
     45 H182       28.2210  -10.5920  187.5680 hn        1 6XP      0.157000
@<TRIPOS>BOND
     1    1    7 1   
     2    1   22 1   
     3    1   23 1   
     4    1   24 1   
     5    2    4 1   
     6    2   12 1   
     7    2   26 1   
     8    3    5 1   
     9    3   12 1   
    10    3   28 1   
    11    4    5 1   
    12    4   27 1   
    13    5   13 1   
    14    5   29 1   
    15    6    7 1   
    16    6   11 1   
    17    7   12 1   
    18    7   25 1   
    19    8   20 1   
    20    8   21 1   
    21    8   34 1   
    22    9   10 1   
    23    9   39 1   
    24    9   44 1   
    25   10   30 1   
    26   10   45 1   
    27   13   36 1   
    28   13   40 1   
    29   14   15 1   
    30   14   17 1   
    31   14   37 1   
    32   15   19 1   
    33   15   38 1   
    34   16   18 1   
    35   16   19 1   
    36   16   20 1   
    37   17   20 1   
    38   17   43 1   
    39   18   21 1   
    40   18   35 1   
    41   19   42 1   
    42   21   41 1   
    43   31   43 1   
    44   32   43 1   
    45   33   43 1   
@<TRIPOS>SUBSTRUCTURE
     1 6XP         1 TEMP              0 ****  ****    0 ROOT
