@<TRIPOS>MOLECULE
6XP
   43    39     1     0     0
SMALL
bcc


@<TRIPOS>ATOM
      1 C50        -2.8430    0.7050    0.5490 c3        1 6XP     -0.207000
      2 C2         -2.7350   -0.3070    3.3940 c1        1 6XP     -0.145000
      3 C6         -2.7140    2.0710    3.7160 c1        1 6XP     -0.084000
      4 C3         -3.4090   -0.4620    4.5930 c1        1 6XP     -0.145000
      5 C5         -3.3890    1.9140    4.9170 c1        1 6XP     -0.153000
      6 C19        -0.5620    0.2990    1.4140 c1        1 6XP      0.259000
      7 C24         4.6930   -1.2530   -4.9040 c3        1 6XP     -0.176000
      8 C20        -1.8230    1.1410    1.5660 c2        1 6XP     -0.073000
      9 N13         4.0330   -1.2600   -1.7310 n         1 6XP     -0.323000
     10 N17         1.0560   -0.6500   -0.1660 n3        1 6XP     -0.130000
     11 N18         0.2360    0.4120    0.2280 n3        1 6XP     -0.277000
     12 O16         3.6810   -1.2220    0.5960 o         1 6XP     -0.327000
     13 O21        -0.2060   -0.4290    2.3190 o         1 6XP     -0.357000
     14 O22        -4.3230    0.4900    6.6140 oh        1 6XP     -0.249000
     15 CL2        -0.6980    0.4580   -3.3550 cl        1 6XP      0.008000
     16 C1         -2.3870    0.9590    2.9540 c1        1 6XP     -0.128000
     17 C4         -3.7360    0.6500    5.3550 c1        1 6XP      0.090000
     18 C8          2.2690   -0.8460   -5.0970 c1        1 6XP     -0.083000
     19 C7          1.0320   -0.4500   -4.5860 c1        1 6XP     -0.154000
     20 C11         1.9480   -0.5010   -2.3490 c1        1 6XP     -0.130000
     21 C9          3.3420   -1.0680   -4.2340 c2        1 6XP     -0.104000
     22 C15         2.1340   -0.1570   -0.9000 c2        1 6XP     -0.056000
     23 C10         0.8690   -0.2780   -3.2190 c2        1 6XP     -0.012000
     24 C12         3.1780   -0.8940   -2.8560 c2        1 6XP      0.081000
     25 C14         3.3580   -0.8970   -0.5280 c2        1 6XP      0.314000
     26 H501       -2.3880    0.4360   -0.2770 hc        1 6XP      0.087667
     27 H502       -3.4520    1.4470    0.3600 hc        1 6XP      0.087667
     28 H503       -3.3520   -0.0510    0.9020 hc        1 6XP      0.087667
     29 H20        -1.6040    2.0840    1.4240 ha        1 6XP      0.127000
     30 H2         -2.5060   -1.0860    2.8610 ha        1 6XP      0.137000
     31 H3         -3.6540   -1.3550    4.9030 ha        1 6XP      0.137000
     32 H6         -2.4700    2.9600    3.4080 ha        1 6XP      0.139000
     33 H5         -3.6840    2.6980    5.4140 ha        1 6XP      0.153000
     34 H18         0.1680    1.1530   -0.2980 hn        1 6XP      0.247000
     35 H241        5.1770   -1.9870   -4.4690 hc        1 6XP      0.086667
     36 H242        4.5610   -1.4650   -5.8520 hc        1 6XP      0.086667
     37 H243        5.2120   -0.4280   -4.8240 hc        1 6XP      0.086667
     38 H13         4.8480   -1.6660   -1.7860 hn        1 6XP      0.255000
     39 H17         0.5730   -1.2330   -0.6860 hn        1 6XP      0.189000
     40 H22        -5.2050    0.5430    6.5380 ho        1 6XP      0.220000
     41 H8          2.3840   -0.9670   -6.0590 ha        1 6XP      0.141000
     42 H7          0.2870   -0.2960   -5.1860 ha        1 6XP      0.152000
     43 H15         2.1010    0.7890   -0.6620 h4        1 6XP      0.140000
@<TRIPOS>BOND
     1    1    8 1   
     2    1   26 1   
     3    1   27 1   
     4    1   28 1   
     5    2    4 1   
     6    2   30 1   
     7    3   16 1   
     8    3   32 1   
     9    4   31 1   
    10    5   17 1   
    11    5   33 1   
    12    6   11 1   
    13    6   13 1   
    14    7   21 1   
    15    7   35 1   
    16    7   36 1   
    17    7   37 1   
    18    8   16 1   
    19    8   29 1   
    20    9   24 1   
    21    9   25 1   
    22    9   38 1   
    23   10   11 1   
    24   10   22 1   
    25   10   39 1   
    26   11   34 1   
    27   12   25 1   
    28   14   17 1   
    29   14   40 1   
    30   15   23 1   
    31   18   21 1   
    32   18   41 1   
    33   19   23 1   
    34   19   42 1   
    35   20   23 1   
    36   20   24 1   
    37   21   24 1   
    38   22   25 1   
    39   22   43 1   
@<TRIPOS>SUBSTRUCTURE
     1 6XP         1 TEMP              0 ****  ****    0 ROOT
