@<TRIPOS>MOLECULE
6XP
   45    43     1     0     0
SMALL
bcc


@<TRIPOS>ATOM
      1 C50      -207.8870  400.9410  597.5330 c3        1 6XP     -0.259000
      2 C2       -209.6080  397.6960  598.4620 c2        1 6XP      0.281000
      3 C6       -212.3600  393.7610  598.9730 c2        1 6XP     -0.212000
      4 C3       -210.6500  396.9080  598.1060 c1        1 6XP     -0.267000
      5 C5       -212.9880  394.3240  597.9480 c2        1 6XP     -0.060000
      6 C19       142.6650 -267.4570 -407.3400 c1        1 6XP      0.308000
      7 C20      -208.2360  399.6830  598.1910 c2        1 6XP      0.110000
      8 N13       142.6910 -269.6490 -400.4210 n         1 6XP     -0.188000
      9 N17       143.2110 -269.7400 -404.0900 n4        1 6XP      0.180000
     10 N18       143.3250 -271.0770 -404.4960 n3        1 6XP     -0.251000
     11 O21       142.8590 -267.9820 -406.3030 o         1 6XP     -0.305000
     12 C1       -209.2950  398.9050  597.8080 c2        1 6XP     -0.279000
     13 C4       -211.5920  396.2020  597.7790 c1        1 6XP      0.212000
     14 C8        145.3180 -267.2010 -399.8320 c2        1 6XP      0.172000
     15 C7        145.9100 -267.3400 -401.1330 c2        1 6XP     -0.210000
     16 C11       143.7970 -268.2840 -402.0040 c3        1 6XP      0.003000
     17 C9        144.1220 -267.8080 -399.4830 c2        1 6XP     -0.275000
     18 C15       143.2190 -269.4790 -402.6800 c2        1 6XP     -0.628000
     19 C10       145.2280 -267.9060 -402.1650 c2        1 6XP      0.004000
     20 C12       143.4880 -268.5920 -400.5250 c2        1 6XP      0.203000
     21 C14       142.4870 -270.2790 -401.7510 c2        1 6XP      0.369000
     22 H501     -207.9110  401.7800  598.2830 hc        1 6XP      0.141667
     23 H502     -206.8350  400.8830  597.1390 hc        1 6XP      0.141667
     24 H503     -208.5720  401.1980  596.6870 hc        1 6XP      0.141667
     25 H20      -207.5890  399.3770  599.0380 ha        1 6XP      0.150000
     26 H2       -209.9330  399.2230  596.9610 ha        1 6XP      0.182000
     27 H3       -208.9790  397.3560  599.3170 ha        1 6XP      0.174000
     28 H6       -212.7150  392.8060  599.3910 ha        1 6XP      0.161000
     29 H5       -211.4740  394.1900  599.4610 ha        1 6XP      0.161000
     30 H18       144.1850 -271.4750 -404.1330 hn        1 6XP      0.205000
     31 H241      142.1890 -266.0170 -398.5180 ha        1 6XP      0.013000
     32 H242      142.8060 -268.2500 -397.8130 ha        1 6XP      0.070000
     33 H243      142.5010 -265.7450 -397.9760 ha        1 6XP      0.013000
     34 H13       142.3120 -270.0300 -399.5790 hn        1 6XP      0.291000
     35 H17       143.1910 -267.3580 -402.2760 hc        1 6XP      0.175000
     36 H22      -213.8770  393.9880  597.3840 h4        1 6XP      0.222000
     37 H8        145.8650 -266.6170 -399.0610 ha        1 6XP      0.207000
     38 H7        146.9460 -266.9760 -401.2620 ha        1 6XP      0.195000
     39 H15       142.3270 -269.3830 -404.5060 hn        1 6XP      0.257000
     40 O22      -212.6140  395.5540  597.3320 os        1 6XP     -0.002000
     41 O16       141.8180 -271.3070 -401.8740 o         1 6XP     -0.309000
     42 CL2       145.9220 -268.0760 -403.6880 cl        1 6XP      0.070000
     43 C24       143.6720 -267.6670 -398.1490 c1        1 6XP     -0.034000
     44 H172      143.9910 -269.2140 -404.5310 hn        1 6XP      0.257000
     45 H182      142.5500 -271.6180 -404.1150 hn        1 6XP      0.205000
@<TRIPOS>BOND
     1    1    7 1   
     2    1   22 1   
     3    1   23 1   
     4    1   24 1   
     5    2    4 1   
     6    2   12 1   
     7    2   27 1   
     8    3    5 1   
     9    3   28 1   
    10    3   29 1   
    11    4   13 1   
    12    5   36 1   
    13    5   40 1   
    14    6   11 1   
    15    7   12 1   
    16    7   25 1   
    17    8   20 1   
    18    8   21 1   
    19    8   34 1   
    20    9   10 1   
    21    9   18 1   
    22    9   39 1   
    23    9   44 1   
    24   10   30 1   
    25   10   45 1   
    26   12   26 1   
    27   13   40 1   
    28   14   15 1   
    29   14   17 1   
    30   14   37 1   
    31   15   19 1   
    32   15   38 1   
    33   16   18 1   
    34   16   19 1   
    35   16   20 1   
    36   16   35 1   
    37   17   20 1   
    38   17   43 1   
    39   18   21 1   
    40   19   42 1   
    41   21   41 1   
    42   31   33 1   
    43   32   43 1   
@<TRIPOS>SUBSTRUCTURE
     1 6XP         1 TEMP              0 ****  ****    0 ROOT
