@<TRIPOS>MOLECULE
6XS
   67    63     1     0     0
SMALL
bcc


@<TRIPOS>ATOM
      1 C33         5.1420    0.7790   -5.4070 c1        1 6XS     -0.137000
      2 C32         6.6680    0.3810   -5.4080 c1        1 6XS     -0.137000
      3 C31         7.0940    0.1420   -3.9970 c1        1 6XS     -0.426000
      4 CL3         8.7440   -0.1570   -3.4500 cl        1 6XS      0.056000
      5 S30         5.8570    0.3820   -3.0770 ss        1 6XS      0.715000
      6 C29         4.6600    0.7780   -3.9940 c1        1 6XS     -0.426000
      7 C28         3.2800    1.0250   -3.5500 c1        1 6XS      0.370000
      8 O39         2.4010    1.2590   -4.3780 o         1 6XS     -0.383000
      9 N27         2.9790    1.0950   -2.1310 n3        1 6XS     -0.345000
     10 C26         1.7020    1.5590   -1.6870 c3        1 6XS     -0.035000
     11 C17         1.5130    1.2000   -0.2040 c3        1 6XS      0.012000
     12 C18         1.1150    2.4690    0.5920 c2        1 6XS      0.290000
     13 O38         0.3640    3.2630    0.1120 o         1 6XS     -0.379000
     14 N19         1.6890    2.7120    1.9300 n         1 6XS     -0.326000
     15 C20         1.3960    3.8520    2.6910 c3        1 6XS     -0.061000
     16 C21         2.6470    4.5600    3.1730 c3        1 6XS     -0.088000
     17 N22         3.5520    3.6760    3.8200 n3        1 6XS     -0.244000
     18 C25         3.0130    3.2720    5.1050 c3        1 6XS     -0.130000
     19 C23         3.8400    2.5130    3.0290 c3        1 6XS     -0.088000
     20 C24         2.5820    1.8190    2.5570 c3        1 6XS     -0.061000
     21 N16         0.5020    0.2270   -0.0790 n3        1 6XS     -0.880000
     22 S15        -1.1340    0.6800   -0.1960 s4        1 6XS      2.066800
     23 O36        -1.2960    1.8700   -1.0330 o         1 6XS     -0.525900
     24 O37        -1.6460    1.1640    1.0980 o         1 6XS     -0.525900
     25 C9         -2.1300   -0.7090   -0.8210 c1        1 6XS     -0.771000
     26 C8         -2.8140   -1.5540    0.0850 c2        1 6XS      0.036000
     27 CL4        -2.7240   -1.2500    1.8060 cl        1 6XS      0.004000
     28 C10        -2.2960   -0.8760   -2.1760 c1        1 6XS     -0.067000
     29 C11        -3.1310   -1.8690   -2.6570 c1        1 6XS      0.081000
     30 F13        -3.2240   -2.0820   -3.9730 f         1 6XS     -0.093000
     31 C12        -3.8110   -2.7100   -1.7610 c1        1 6XS     -0.087000
     32 C7         -3.6450   -2.5440   -0.3920 c1        1 6XS      0.075000
     33 N3         -4.3320   -3.4370    0.5470 n         1 6XS     -0.314000
     34 C2         -4.4400   -4.8470    0.2630 c3        1 6XS     -0.014000
     35 C1         -5.7070   -5.2430   -0.2160 c3        1 6XS     -0.170000
     36 C6         -6.8380   -4.7690    0.6600 c3        1 6XS     -0.160000
     37 C5         -6.8150   -3.3450    0.8880 c3        1 6XS     -0.173000
     38 C4         -5.3720   -2.9420    1.3800 c2        1 6XS      0.315000
     39 O35        -5.2050   -1.8970    2.0290 o         1 6XS     -0.345000
     40 H33         4.5740    1.0020   -6.2410 DU        1 6XS      0.166000
     41 H32         7.2700    0.2990   -6.2440 DU        1 6XS      0.166000
     42 H27         3.5880    0.8280   -1.5350 hn        1 6XS      0.247000
     43 H261        0.9410    1.1030   -2.2620 h1        1 6XS      0.131500
     44 H262        1.6510    2.5840   -1.8010 h1        1 6XS      0.131500
     45 H17         2.3250    0.8550    0.1420 h1        1 6XS      0.113000
     46 H16         0.7370   -0.6920   -0.0730 hn        1 6XS      0.248000
     47 H201        0.9040    3.6060    3.4060 h1        1 6XS      0.096500
     48 H202        0.8840    4.4580    2.1530 h1        1 6XS      0.096500
     49 H241        2.8270    1.1090    1.9170 h1        1 6XS      0.096500
     50 H242        2.1110    1.3890    3.3690 h1        1 6XS      0.096500
     51 H211        2.3710    5.3060    3.8370 h1        1 6XS      0.102000
     52 H212        3.0870    4.9560    2.4280 h1        1 6XS      0.102000
     53 H251        2.1970    2.6760    4.9610 h1        1 6XS      0.075000
     54 H252        2.7650    4.0300    5.5920 h1        1 6XS      0.075000
     55 H253        3.6700    2.7970    5.5790 h1        1 6XS      0.075000
     56 H231        4.3450    1.9160    3.5380 h1        1 6XS      0.102000
     57 H232        4.3710    2.7870    2.2340 h1        1 6XS      0.102000
     58 H10        -1.8480   -0.3050   -2.7770 ha        1 6XS      0.188000
     59 H12        -4.3730   -3.3790   -2.0850 ha        1 6XS      0.168000
     60 H21C       -4.2300   -5.3990    1.1670 h1        1 6XS      0.088000
     61 H22C       -3.7720   -5.0780   -0.4030 h1        1 6XS      0.088000
     62 H11C       -5.7350   -6.3020   -0.2660 hc        1 6XS      0.096000
     63 H12C       -5.8240   -4.8950   -1.0750 hc        1 6XS      0.096000
     64 H61C       -6.7720   -5.2560    1.5870 hc        1 6XS      0.092500
     65 H62C       -7.6690   -5.0010    0.2450 hc        1 6XS      0.092500
     66 H51C       -7.6030   -2.9340    1.4280 hc        1 6XS      0.120000
     67 H52C       -6.9720   -2.9070   -0.0020 hc        1 6XS      0.120000
@<TRIPOS>BOND
     1    1    2 1   
     2    1    6 1   
     3    2    3 1   
     4    3    5 1   
     5    5    6 1   
     6    7    8 1   
     7    7    9 1   
     8    9   10 1   
     9    9   42 1   
    10   10   11 1   
    11   10   43 1   
    12   10   44 1   
    13   11   12 1   
    14   11   21 1   
    15   11   45 1   
    16   12   13 1   
    17   12   14 1   
    18   14   15 1   
    19   14   20 1   
    20   15   16 1   
    21   15   47 1   
    22   15   48 1   
    23   16   17 1   
    24   16   51 1   
    25   16   52 1   
    26   17   18 1   
    27   17   19 1   
    28   18   53 1   
    29   18   54 1   
    30   18   55 1   
    31   19   20 1   
    32   19   56 1   
    33   19   57 1   
    34   20   49 1   
    35   20   50 1   
    36   21   22 1   
    37   21   46 1   
    38   22   23 1   
    39   22   24 1   
    40   25   26 1   
    41   25   28 1   
    42   26   27 1   
    43   26   32 1   
    44   28   58 1   
    45   29   30 1   
    46   29   31 1   
    47   31   59 1   
    48   32   33 1   
    49   33   34 1   
    50   33   38 1   
    51   34   35 1   
    52   34   60 1   
    53   34   61 1   
    54   35   36 1   
    55   35   62 1   
    56   35   63 1   
    57   36   37 1   
    58   36   64 1   
    59   36   65 1   
    60   37   38 1   
    61   37   66 1   
    62   37   67 1   
    63   38   39 1   
@<TRIPOS>SUBSTRUCTURE
     1 6XS         1 TEMP              0 ****  ****    0 ROOT
