@<TRIPOS>MOLECULE
6XS
   67    70     1     0     0
SMALL
bcc


@<TRIPOS>ATOM
      1 C33        -5.8490   -0.5070    0.9880 cc        1 6XS     -0.069000
      2 C32        -6.9710    0.3660    0.9480 cc        1 6XS     -0.163000
      3 C31        -6.9980    1.1010   -0.2280 cd        1 6XS     -0.014700
      4 CL3        -8.1650    2.2240   -0.6340 cl        1 6XS     -0.018400
      5 S30        -5.7010    0.7280   -1.2240 ss        1 6XS      0.086200
      6 C29        -5.0680   -0.3960   -0.1540 cd        1 6XS     -0.201700
      7 C28        -3.8520   -1.1940   -0.3560 c         1 6XS      0.710700
      8 O39        -3.5910   -2.1950    0.3420 o         1 6XS     -0.607100
      9 N27        -3.0090   -0.8250   -1.4040 n         1 6XS     -0.558900
     10 C26        -1.7680   -1.5080   -1.6090 c3        1 6XS      0.080000
     11 C17        -0.5970   -1.0210   -0.6980 c3        1 6XS      0.145500
     12 C18         0.5320   -2.0680   -0.8730 c         1 6XS      0.636100
     13 O38         1.4060   -1.8920   -1.7500 o         1 6XS     -0.620100
     14 N19         0.5970   -3.1520   -0.0160 n         1 6XS     -0.451800
     15 C20         1.6460   -4.1390   -0.1830 c3        1 6XS      0.075000
     16 C21         1.1250   -5.5360   -0.5770 c3        1 6XS      0.146800
     17 N22         0.0390   -5.9950    0.2770 n3        1 6XS     -0.733600
     18 C25        -0.4570   -7.2970   -0.1080 c3        1 6XS      0.157100
     19 C23        -1.0240   -5.0100    0.4070 c3        1 6XS      0.146800
     20 C24        -0.5060   -3.6080    0.8010 c3        1 6XS      0.075000
     21 N16        -0.1510    0.3020   -1.0280 n3        1 6XS     -0.904100
     22 S15        -0.1520    1.5670   -0.0210 sy        1 6XS      1.504200
     23 O36        -0.3730    2.7460   -0.7510 o         1 6XS     -0.642300
     24 O37        -1.0510    1.3220    1.0420 o         1 6XS     -0.642300
     25 C9          1.4330    1.5690    0.6250 ca        1 6XS     -0.332500
     26 C8          2.6060    1.6900   -0.1310 ca        1 6XS      0.108400
     27 CL4         2.4820    1.8830   -1.8160 cl        1 6XS     -0.060400
     28 C10         1.5330    1.4680    2.0160 ca        1 6XS     -0.070000
     29 C11         2.7860    1.4920    2.6440 ca        1 6XS      0.115900
     30 F13         2.8670    1.4130    3.9940 f         1 6XS     -0.127900
     31 C12         3.9620    1.5860    1.8820 ca        1 6XS     -0.096000
     32 C7          3.8850    1.6660    0.4800 ca        1 6XS      0.061600
     33 N3          5.0670    1.7420   -0.3030 n         1 6XS     -0.397000
     34 C2          5.4230    0.5510   -1.0520 c3        1 6XS      0.097000
     35 C1          6.4610    0.7990   -2.1420 c3        1 6XS     -0.091400
     36 C6          7.6470    1.5480   -1.5790 c3        1 6XS     -0.082400
     37 C5          7.2070    2.8600   -0.9750 c3        1 6XS     -0.144400
     38 C4          6.0120    2.7440   -0.0510 c         1 6XS      0.703500
     39 O35         5.8420    3.5640    0.8690 o         1 6XS     -0.624500
     40 H33        -5.6260   -1.1840    1.8190 ha        1 6XS      0.179000
     41 H32        -7.7100    0.4380    1.7500 ha        1 6XS      0.172000
     42 H27        -3.0760    0.1010   -1.7590 hn        1 6XS      0.311500
     43 H261       -1.9250   -2.6060   -1.3960 h1        1 6XS      0.078200
     44 H262       -1.4700   -1.3870   -2.6890 h1        1 6XS      0.078200
     45 H17        -0.9530   -1.0040    0.3790 h1        1 6XS      0.106700
     46 H16         0.2850    0.3450   -1.9240 hn        1 6XS      0.464800
     47 H201        2.3730   -3.8000   -0.9740 h1        1 6XS      0.072700
     48 H202        2.1920   -4.2150    0.8010 h1        1 6XS      0.072700
     49 H241       -0.1410   -3.6420    1.8680 h1        1 6XS      0.072700
     50 H242       -1.3880   -2.9090    0.7500 h1        1 6XS      0.072700
     51 H211        0.8250   -5.5200   -1.6660 h1        1 6XS      0.042200
     52 H212        1.9780   -6.2620   -0.4670 h1        1 6XS      0.042200
     53 H251        0.3960   -8.0250   -0.0960 h1        1 6XS      0.034033
     54 H252       -1.2250   -7.6250    0.6400 h1        1 6XS      0.034033
     55 H253       -0.9250   -7.3110   -1.1310 h1        1 6XS      0.034033
     56 H231       -1.6290   -4.9160   -0.5430 h1        1 6XS      0.042200
     57 H232       -1.7170   -5.3550    1.2240 h1        1 6XS      0.042200
     58 H10         0.6200    1.3770    2.6350 ha        1 6XS      0.187000
     59 H12         4.9390    1.6270    2.3920 ha        1 6XS      0.174000
     60 H21C        5.8280   -0.2230   -0.3350 h1        1 6XS      0.052200
     61 H22C        4.4900    0.1270   -1.5210 h1        1 6XS      0.052200
     62 H11C        6.7830   -0.1940   -2.5490 hc        1 6XS      0.059200
     63 H12C        6.0040    1.3830   -2.9830 hc        1 6XS      0.059200
     64 H61C        8.1550    0.9210   -0.8000 hc        1 6XS      0.052700
     65 H62C        8.3970    1.7450   -2.3900 hc        1 6XS      0.052700
     66 H51C        8.0460    3.3220   -0.3890 hc        1 6XS      0.081200
     67 H52C        6.9170    3.5820   -1.7860 hc        1 6XS      0.081200
@<TRIPOS>BOND
     1    1    2 1   
     2    1    6 2   
     3    1   40 1   
     4    2    3 2   
     5    2   41 1   
     6    3    4 1   
     7    3    5 1   
     8    5    6 1   
     9    6    7 1   
    10    7    8 2   
    11    7    9 1   
    12    9   10 1   
    13    9   42 1   
    14   10   11 1   
    15   10   43 1   
    16   10   44 1   
    17   11   12 1   
    18   11   21 1   
    19   11   45 1   
    20   12   13 2   
    21   12   14 1   
    22   14   15 1   
    23   14   20 1   
    24   15   16 1   
    25   15   47 1   
    26   15   48 1   
    27   16   17 1   
    28   16   51 1   
    29   16   52 1   
    30   17   18 1   
    31   17   19 1   
    32   18   53 1   
    33   18   54 1   
    34   18   55 1   
    35   19   20 1   
    36   19   56 1   
    37   19   57 1   
    38   20   49 1   
    39   20   50 1   
    40   21   22 1   
    41   21   46 1   
    42   22   23 2   
    43   22   24 2   
    44   22   25 1   
    45   25   26 ar  
    46   25   28 ar  
    47   26   27 1   
    48   26   32 ar  
    49   28   29 ar  
    50   28   58 1   
    51   29   30 1   
    52   29   31 ar  
    53   31   32 ar  
    54   31   59 1   
    55   32   33 1   
    56   33   34 1   
    57   33   38 1   
    58   34   35 1   
    59   34   60 1   
    60   34   61 1   
    61   35   36 1   
    62   35   62 1   
    63   35   63 1   
    64   36   37 1   
    65   36   64 1   
    66   36   65 1   
    67   37   38 1   
    68   37   66 1   
    69   37   67 1   
    70   38   39 2   
@<TRIPOS>SUBSTRUCTURE
     1 6XS         1 TEMP              0 ****  ****    0 ROOT
