@<TRIPOS>MOLECULE
6XS
   69    71     1     0     0
SMALL
bcc


@<TRIPOS>ATOM
      1 C33         0.0710   -0.2110   -0.1930 cc        1 6XS      0.022000
      2 C32         1.0580   -1.1810   -0.4650 cc        1 6XS     -0.167000
      3 C31         1.2370   -2.0580    0.6060 cd        1 6XS      0.081300
      4 CL3         2.3110   -3.3160    0.6400 cl        1 6XS      0.087600
      5 S30         0.2190   -1.6810    1.8860 ss        1 6XS      0.065200
      6 C29        -0.4860   -0.3730    1.0920 cd        1 6XS     -0.312700
      7 C28        -1.4980    0.5170    1.5510 c         1 6XS      0.629700
      8 O39        -2.0230    1.4780    1.0080 o         1 6XS     -0.428100
      9 N27        -2.0230    0.2600    2.9890 n4        1 6XS     -0.691800
     10 C26        -3.5070    0.1700    3.0100 c3        1 6XS      0.069800
     11 C17        -4.1430    0.3700    4.4040 c3        1 6XS      0.048500
     12 C18        -5.6640    0.6210    4.1260 c         1 6XS      0.634100
     13 O38        -6.4210   -0.3720    4.1840 o         1 6XS     -0.596100
     14 N19        -6.1000    1.8730    3.8000 n         1 6XS     -0.426800
     15 C20        -7.5390    2.0840    3.6590 c3        1 6XS      0.083000
     16 C21        -7.9010    3.2460    2.7160 c3        1 6XS      0.158300
     17 N22        -7.1410    4.4490    3.0110 n3        1 6XS     -0.732600
     18 C25        -7.5570    5.5950    2.2320 c3        1 6XS      0.151100
     19 C23        -5.7140    4.1990    2.9410 c3        1 6XS      0.158300
     20 C24        -5.2700    3.0560    3.8840 c3        1 6XS      0.083000
     21 N16        -3.9770   -0.7450    5.3350 n3        1 6XS     -0.997800
     22 S15        -3.7760   -0.0880    7.7230 s4        1 6XS      1.672300
     23 O36        -2.6230   -0.7980    7.7390 o         1 6XS     -0.428900
     24 O37        -3.7510    1.2180    7.3400 o         1 6XS     -0.428900
     25 C9         -5.1110   -0.6410    8.3200 ca        1 6XS     -0.560500
     26 C8         -5.3610   -1.9600    8.7800 ca        1 6XS      0.164400
     27 CL4        -4.2770   -3.1830    8.3680 cl        1 6XS      0.018600
     28 C10        -6.1580    0.3140    8.4720 ca        1 6XS     -0.081000
     29 C11        -7.3510   -0.0190    9.1020 ca        1 6XS      0.157900
     30 F13        -8.3400    0.8930    9.2070 f         1 6XS     -0.085900
     31 C12        -7.5230   -1.3010    9.6750 ca        1 6XS     -0.045000
     32 C7         -6.5180   -2.2760    9.5500 ca        1 6XS      0.090600
     33 N3         -6.6490   -3.5420   10.1530 n         1 6XS     -0.404000
     34 C2         -7.9540   -4.1810   10.0750 c3        1 6XS      0.087000
     35 C1         -7.9300   -5.6540   10.4710 c3        1 6XS     -0.090400
     36 C6         -7.2600   -5.8270   11.8140 c3        1 6XS     -0.089400
     37 C5         -5.8470   -5.2960   11.7780 c3        1 6XS     -0.137400
     38 C4         -5.7110   -3.9340   11.1430 c         1 6XS      0.713500
     39 O35        -4.7750   -3.1650   11.4180 o         1 6XS     -0.614500
     40 H33        -0.2280    0.5770   -0.8970 ha        1 6XS      0.202000
     41 H32         1.6160   -1.2340   -1.4090 ha        1 6XS      0.215000
     42 H27        -1.6070   -0.5940    3.3650 hn        1 6XS      0.448800
     43 H261       -3.8120   -0.8270    2.5770 hx        1 6XS      0.140700
     44 H262       -3.9040    0.9810    2.3210 hx        1 6XS      0.140700
     45 H17        -3.6980    1.2770    4.9180 h1        1 6XS      0.112700
     46 H16        -4.7650   -1.3790    5.2560 hn        1 6XS      0.406300
     47 H201       -7.9650    2.2880    4.6820 h1        1 6XS      0.060450
     48 H202       -8.0080    1.1400    3.2570 h1        1 6XS      0.060450
     49 H241       -4.2100    2.8000    3.6040 h1        1 6XS      0.060450
     50 H242       -5.2790    3.4360    4.9470 h1        1 6XS      0.060450
     51 H211       -7.7640    2.9080    1.6470 h1        1 6XS      0.058700
     52 H212       -8.9950    3.4710    2.8710 h1        1 6XS      0.058700
     53 H251       -6.9880    6.4950    2.5830 h1        1 6XS      0.051700
     54 H252       -8.6510    5.7680    2.4090 h1        1 6XS      0.051700
     55 H253       -7.3860    5.4640    1.1280 h1        1 6XS      0.051700
     56 H231       -5.3740    3.9500    1.8930 h1        1 6XS      0.058700
     57 H232       -5.1740    5.1310    3.2720 h1        1 6XS      0.058700
     58 H10        -6.0240    1.3490    8.1010 ha        1 6XS      0.192000
     59 H12        -8.4580   -1.5120   10.2290 ha        1 6XS      0.202000
     60 H21C       -8.3290   -4.0870    9.0160 h1        1 6XS      0.052700
     61 H22C       -8.6770   -3.6390   10.7530 h1        1 6XS      0.052700
     62 H11C       -7.3950   -6.2570    9.6910 hc        1 6XS      0.073700
     63 H12C       -8.9900   -6.0170   10.5140 hc        1 6XS      0.073700
     64 H61C       -7.8500   -5.2940   12.6060 hc        1 6XS      0.073200
     65 H62C       -7.2380   -6.9140   12.0930 hc        1 6XS      0.073200
     66 H51C       -5.1840   -5.9910   11.1920 hc        1 6XS      0.098700
     67 H52C       -5.4290   -5.2250   12.8200 hc        1 6XS      0.098700
     68 H272       -1.7220    1.0520    3.5690 hn        1 6XS      0.448800
     69 H162       -3.1360   -1.2590    5.1420 hn        1 6XS      0.406300
@<TRIPOS>BOND
     1    1    2 1   
     2    1    6 2   
     3    1   40 1   
     4    2    3 2   
     5    2   41 1   
     6    3    4 1   
     7    3    5 1   
     8    5    6 1   
     9    6    7 1   
    10    7    8 2   
    11    7    9 1   
    12    9   10 1   
    13    9   42 1   
    14    9   68 1   
    15   10   11 1   
    16   10   43 1   
    17   10   44 1   
    18   11   12 1   
    19   11   21 1   
    20   11   45 1   
    21   12   13 2   
    22   12   14 1   
    23   14   15 1   
    24   14   20 1   
    25   15   16 1   
    26   15   47 1   
    27   15   48 1   
    28   16   17 1   
    29   16   51 1   
    30   16   52 1   
    31   17   18 1   
    32   17   19 1   
    33   18   53 1   
    34   18   54 1   
    35   18   55 1   
    36   19   20 1   
    37   19   56 1   
    38   19   57 1   
    39   20   49 1   
    40   20   50 1   
    41   21   46 1   
    42   21   69 1   
    43   22   23 1   
    44   22   24 1   
    45   22   25 1   
    46   25   26 ar  
    47   25   28 ar  
    48   26   27 1   
    49   26   32 ar  
    50   28   29 ar  
    51   28   58 1   
    52   29   30 1   
    53   29   31 ar  
    54   31   32 ar  
    55   31   59 1   
    56   32   33 1   
    57   33   34 1   
    58   33   38 1   
    59   34   35 1   
    60   34   60 1   
    61   34   61 1   
    62   35   36 1   
    63   35   62 1   
    64   35   63 1   
    65   36   37 1   
    66   36   64 1   
    67   36   65 1   
    68   37   38 1   
    69   37   66 1   
    70   37   67 1   
    71   38   39 2   
@<TRIPOS>SUBSTRUCTURE
     1 6XS         1 TEMP              0 ****  ****    0 ROOT
