@<TRIPOS>MOLECULE
6XS
   69    71     1     0     0
SMALL
bcc


@<TRIPOS>ATOM
      1 C33         0.0610   -0.1750   -0.2010 cc        1 6XS      0.022000
      2 C32         1.0610   -1.1320   -0.4680 cc        1 6XS     -0.167000
      3 C31         1.2550   -1.9990    0.6080 cd        1 6XS      0.081300
      4 Cl3         2.3470   -3.2410    0.6490 cl        1 6XS      0.087600
      5 S30         0.2340   -1.6290    1.8870 ss        1 6XS      0.065200
      6 C29        -0.4920   -0.3360    1.0860 cd        1 6XS     -0.312700
      7 C28        -1.5150    0.5420    1.5410 c         1 6XS      0.629700
      8 O39        -2.0540    1.4920    0.9930 o         1 6XS     -0.428100
      9 N27        -2.0360    0.2860    2.9810 ny        1 6XS     -0.691800
     10 C26        -3.5190    0.1800    3.0050 c3        1 6XS      0.069800
     11 C17        -4.1540    0.3770    4.4000 c3        1 6XS      0.048500
     12 C18        -5.6780    0.6120    4.1240 c         1 6XS      0.634100
     13 O38        -6.4250   -0.3890    4.1860 o         1 6XS     -0.596100
     14 N19        -6.1270    1.8580    3.7950 n         1 6XS     -0.426800
     15 C20        -7.5680    2.0550    3.6560 c3        1 6XS      0.083000
     16 C21        -7.9440    3.2100    2.7090 c3        1 6XS      0.158300
     17 N22        -7.1950    4.4220    3.0000 n3        1 6XS     -0.732600
     18 C25        -7.6240    5.5600    2.2170 c3        1 6XS      0.151100
     19 C23        -5.7650    4.1850    2.9280 c3        1 6XS      0.158300
     20 C24        -5.3090    3.0500    3.8740 c3        1 6XS      0.083000
     21 N16        -3.9750   -0.7340    5.3330 n8        1 6XS     -0.997800
     22 S15        -3.7740   -0.0700    7.7180 s4        1 6XS      1.672300
     23 O36        -2.6150   -0.7690    7.7330 o         1 6XS     -0.428900
     24 O37        -3.7610    1.2360    7.3320 o         1 6XS     -0.428900
     25 C9         -5.1020   -0.6330    8.3200 ca        1 6XS     -0.560500
     26 C8         -5.3400   -1.9540    8.7830 ca        1 6XS      0.164400
     27 Cl4        -4.2470   -3.1680    8.3700 cl        1 6XS      0.018600
     28 C10        -6.1570    0.3130    8.4730 ca        1 6XS     -0.081000
     29 C11        -7.3460   -0.0300    9.1080 ca        1 6XS      0.157900
     30 F13        -8.3420    0.8740    9.2130 f         1 6XS     -0.085900
     31 C12        -7.5050   -1.3120    9.6830 ca        1 6XS     -0.045000
     32 C7         -6.4920   -2.2780    9.5560 ca        1 6XS      0.090600
     33 N3         -6.6100   -3.5450   10.1610 n         1 6XS     -0.404000
     34 C2         -7.9100   -4.1950   10.0880 c3        1 6XS      0.087000
     35 C1         -7.8720   -5.6670   10.4860 c3        1 6XS     -0.090400
     36 C6         -7.1970   -5.8320   11.8270 c3        1 6XS     -0.089400
     37 C5         -5.7880   -5.2900   11.7870 c3        1 6XS     -0.137400
     38 C4         -5.6660   -3.9270   11.1490 c         1 6XS      0.713500
     39 O35        -4.7360   -3.1500   11.4210 o         1 6XS     -0.614500
     40 H33        -0.2510    0.6050   -0.9100 ha        1 6XS      0.202000
     41 H32         1.6190   -1.1820   -1.4130 ha        1 6XS      0.215000
     42 H27        -1.6090   -0.5620    3.3600 hn        1 6XS      0.448800
     43 H261       -3.8130   -0.8220    2.5750 hx        1 6XS      0.140700
     44 H262       -3.9250    0.9840    2.3140 hx        1 6XS      0.140700
     45 H17        -3.7170    1.2900    4.9100 h1        1 6XS      0.112700
     46 H16        -3.1300   -1.2410    5.1390 hn        1 6XS      0.406300
     47 H201       -7.9950    2.2590    4.6800 h1        1 6XS      0.060450
     48 H202       -8.0290    1.1050    3.2580 h1        1 6XS      0.060450
     49 H241       -4.2460    2.8040    3.5930 h1        1 6XS      0.060450
     50 H242       -5.3200    3.4330    4.9360 h1        1 6XS      0.060450
     51 H211       -9.0390    3.4250    2.8660 h1        1 6XS      0.058700
     52 H212       -7.8050    2.8700    1.6420 h1        1 6XS      0.058700
     53 H251       -8.7190    5.7240    2.3960 h1        1 6XS      0.051700
     54 H252       -7.0630    6.4680    2.5640 h1        1 6XS      0.051700
     55 H253       -7.4530    5.4280    1.1140 h1        1 6XS      0.051700
     56 H231       -5.4250    3.9370    1.8800 h1        1 6XS      0.058700
     57 H232       -5.2340    5.1240    3.2540 h1        1 6XS      0.058700
     58 H10        -6.0330    1.3490    8.1000 ha        1 6XS      0.192000
     59 H12        -8.4370   -1.5300   10.2390 ha        1 6XS      0.202000
     60 H21C       -8.6360   -3.6580   10.7680 h1        1 6XS      0.052700
     61 H22C       -8.2880   -4.1050    9.0300 h1        1 6XS      0.052700
     62 H11C       -7.3340   -6.2660    9.7060 hc        1 6XS      0.073700
     63 H12C       -8.9290   -6.0390   10.5330 hc        1 6XS      0.073700
     64 H61C       -7.1650   -6.9190   12.1080 hc        1 6XS      0.073200
     65 H62C       -7.7890   -5.3030   12.6200 hc        1 6XS      0.073200
     66 H51C       -5.1210   -5.9790   11.2000 hc        1 6XS      0.098700
     67 H52C       -5.3680   -5.2130   12.8270 hc        1 6XS      0.098700
     68 H272       -1.7420    1.0840    3.5570 hn        1 6XS      0.448800
     69 H162       -4.7570   -1.3760    5.2570 hn        1 6XS      0.406300
@<TRIPOS>BOND
     1    1    2 1   
     2    1    6 2   
     3    1   40 1   
     4    2    3 2   
     5    2   41 1   
     6    3    4 1   
     7    3    5 1   
     8    5    6 1   
     9    6    7 1   
    10    7    8 2   
    11    7    9 1   
    12    9   10 1   
    13    9   42 1   
    14    9   68 1   
    15   10   11 1   
    16   10   43 1   
    17   10   44 1   
    18   11   12 1   
    19   11   21 1   
    20   11   45 1   
    21   12   13 2   
    22   12   14 1   
    23   14   15 1   
    24   14   20 1   
    25   15   16 1   
    26   15   47 1   
    27   15   48 1   
    28   16   17 1   
    29   16   51 1   
    30   16   52 1   
    31   17   18 1   
    32   17   19 1   
    33   18   53 1   
    34   18   54 1   
    35   18   55 1   
    36   19   20 1   
    37   19   56 1   
    38   19   57 1   
    39   20   49 1   
    40   20   50 1   
    41   21   46 1   
    42   21   69 1   
    43   22   23 1   
    44   22   24 1   
    45   22   25 1   
    46   25   26 ar  
    47   25   28 ar  
    48   26   27 1   
    49   26   32 ar  
    50   28   29 ar  
    51   28   58 1   
    52   29   30 1   
    53   29   31 ar  
    54   31   32 ar  
    55   31   59 1   
    56   32   33 1   
    57   33   34 1   
    58   33   38 1   
    59   34   35 1   
    60   34   60 1   
    61   34   61 1   
    62   35   36 1   
    63   35   62 1   
    64   35   63 1   
    65   36   37 1   
    66   36   64 1   
    67   36   65 1   
    68   37   38 1   
    69   37   66 1   
    70   37   67 1   
    71   38   39 2   
@<TRIPOS>SUBSTRUCTURE
     1 6XS         1 TEMP              0 ****  ****    0 ROOT
