@<TRIPOS>MOLECULE
6XS
   69    71     1     0     0
SMALL
bcc


@<TRIPOS>ATOM
      1 C33         0.0270   -0.2250   -0.2290 cc        1 6XS      0.022000
      2 C32         1.0290   -1.1820   -0.4900 cc        1 6XS     -0.167000
      3 C31         1.2310   -2.0370    0.5950 cd        1 6XS      0.081300
      4 CL3         2.3270   -3.2750    0.6430 cl        1 6XS      0.087600
      5 S30         0.2140   -1.6560    1.8750 ss        1 6XS      0.065200
      6 C29        -0.5190   -0.3740    1.0630 cd        1 6XS     -0.312700
      7 C28        -1.5430    0.5060    1.5130 c         1 6XS      0.629700
      8 O39        -2.0870    1.4490    0.9570 o         1 6XS     -0.428100
      9 N27        -2.0560    0.2630    2.9580 n4        1 6XS     -0.691800
     10 C26        -3.5390    0.1620    2.9920 c3        1 6XS      0.069800
     11 C17        -4.1650    0.3680    4.3890 c3        1 6XS      0.048500
     12 C18        -5.6890    0.6090    4.1230 c         1 6XS      0.634100
     13 O38        -6.4400   -0.3880    4.1960 o         1 6XS     -0.596100
     14 N19        -6.1350    1.8550    3.7890 n         1 6XS     -0.426800
     15 C20        -7.5750    2.0580    3.6580 c3        1 6XS      0.083000
     16 C21        -7.9520    3.2090    2.7070 c3        1 6XS      0.158300
     17 N22        -7.1960    4.4190    2.9850 n3        1 6XS     -0.732600
     18 C25        -7.6240    5.5550    2.1980 c3        1 6XS      0.151100
     19 C23        -5.7680    4.1760    2.9070 c3        1 6XS      0.158300
     20 C24        -5.3100    3.0450    3.8560 c3        1 6XS      0.083000
     21 N16        -3.9850   -0.7390    5.3270 n3        1 6XS     -0.997800
     22 S15        -3.7610   -0.0640    7.7070 s4        1 6XS      1.672300
     23 O36        -2.6040   -0.7670    7.7160 o         1 6XS     -0.428900
     24 O37        -3.7470    1.2390    7.3150 o         1 6XS     -0.428900
     25 C9         -5.0870   -0.6200    8.3210 ca        1 6XS     -0.560500
     26 C8         -5.3250   -1.9380    8.7910 ca        1 6XS      0.163400
     27 CL4        -4.2400   -3.1580    8.3730 cl        1 6XS      0.018600
     28 C10        -6.1370    0.3300    8.4800 ca        1 6XS     -0.081000
     29 C11        -7.3220   -0.0060    9.1260 ca        1 6XS      0.157900
     30 F13        -8.3140    0.9020    9.2360 f         1 6XS     -0.085900
     31 C12        -7.4800   -1.2850    9.7070 ca        1 6XS     -0.045000
     32 C7         -6.4720   -2.2560    9.5750 ca        1 6XS      0.090600
     33 N3         -6.5900   -3.5190   10.1860 n         1 6XS     -0.404000
     34 C2         -7.8930   -4.1650   10.1260 c3        1 6XS      0.087000
     35 C1         -7.8570   -5.6360   10.5290 c3        1 6XS     -0.090400
     36 C6         -7.1710   -5.7990   11.8650 c3        1 6XS     -0.089400
     37 C5         -5.7610   -5.2620   11.8100 c3        1 6XS     -0.137400
     38 C4         -5.6390   -3.9020   11.1670 c         1 6XS      0.713500
     39 O35        -4.7040   -3.1270   11.4280 o         1 6XS     -0.614500
     40 H33        -0.2900    0.5450   -0.9450 ha        1 6XS      0.202000
     41 H32         1.5820   -1.2410   -1.4370 ha        1 6XS      0.215000
     42 H27        -1.7560    1.0650    3.5250 hn        1 6XS      0.448800
     43 H261       -3.9470    0.9640    2.2990 hx        1 6XS      0.140700
     44 H262       -3.8390   -0.8410    2.5690 hx        1 6XS      0.140700
     45 H17        -3.7210    1.2820    4.8930 h1        1 6XS      0.112700
     46 H16        -4.7700   -1.3770    5.2600 hn        1 6XS      0.406300
     47 H201       -8.0430    1.1080    3.2690 h1        1 6XS      0.060450
     48 H202       -7.9950    2.2700    4.6840 h1        1 6XS      0.060450
     49 H241       -4.2510    2.7920    3.5710 h1        1 6XS      0.060450
     50 H242       -5.3140    3.4340    4.9160 h1        1 6XS      0.060450
     51 H211       -7.8210    2.8620    1.6410 h1        1 6XS      0.058700
     52 H212       -9.0450    3.4300    2.8690 h1        1 6XS      0.058700
     53 H251       -8.7180    5.7250    2.3830 h1        1 6XS      0.051700
     54 H252       -7.0570    6.4620    2.5360 h1        1 6XS      0.051700
     55 H253       -7.4600    5.4150    1.0950 h1        1 6XS      0.051700
     56 H231       -5.4350    3.9190    1.8580 h1        1 6XS      0.058700
     57 H232       -5.2300    5.1140    3.2240 h1        1 6XS      0.058700
     58 H10        -6.0120    1.3640    8.1020 ha        1 6XS      0.192000
     59 H12        -8.4090   -1.4980   10.2720 ha        1 6XS      0.202000
     60 H21C       -8.2800   -4.0780    9.0710 h1        1 6XS      0.052700
     61 H22C       -8.6110   -3.6230   10.8100 h1        1 6XS      0.052700
     62 H11C       -8.9160   -6.0040   10.5860 hc        1 6XS      0.073700
     63 H12C       -7.3290   -6.2400    9.7460 hc        1 6XS      0.073700
     64 H61C       -7.7550   -5.2650   12.6610 hc        1 6XS      0.073200
     65 H62C       -7.1410   -6.8850   12.1490 hc        1 6XS      0.073200
     66 H51C       -5.3320   -5.1830   12.8470 hc        1 6XS      0.098700
     67 H52C       -5.1020   -5.9560   11.2200 hc        1 6XS      0.098700
     68 H272       -1.6300   -0.5830    3.3410 hn        1 6XS      0.448800
     69 H162       -3.1430   -1.2510    5.1290 hn        1 6XS      0.406300
@<TRIPOS>BOND
     1    1    2 1   
     2    1    6 2   
     3    1   40 1   
     4    2    3 2   
     5    2   41 1   
     6    3    4 1   
     7    3    5 1   
     8    5    6 1   
     9    6    7 1   
    10    7    8 2   
    11    7    9 1   
    12    9   10 1   
    13    9   42 1   
    14    9   68 1   
    15   10   11 1   
    16   10   43 1   
    17   10   44 1   
    18   11   12 1   
    19   11   21 1   
    20   11   45 1   
    21   12   13 2   
    22   12   14 1   
    23   14   15 1   
    24   14   20 1   
    25   15   16 1   
    26   15   47 1   
    27   15   48 1   
    28   16   17 1   
    29   16   51 1   
    30   16   52 1   
    31   17   18 1   
    32   17   19 1   
    33   18   53 1   
    34   18   54 1   
    35   18   55 1   
    36   19   20 1   
    37   19   56 1   
    38   19   57 1   
    39   20   49 1   
    40   20   50 1   
    41   21   46 1   
    42   21   69 1   
    43   22   23 1   
    44   22   24 1   
    45   22   25 1   
    46   25   26 ar  
    47   25   28 ar  
    48   26   27 1   
    49   26   32 ar  
    50   28   29 ar  
    51   28   58 1   
    52   29   30 1   
    53   29   31 ar  
    54   31   32 ar  
    55   31   59 1   
    56   32   33 1   
    57   33   34 1   
    58   33   38 1   
    59   34   35 1   
    60   34   60 1   
    61   34   61 1   
    62   35   36 1   
    63   35   62 1   
    64   35   63 1   
    65   36   37 1   
    66   36   64 1   
    67   36   65 1   
    68   37   38 1   
    69   37   66 1   
    70   37   67 1   
    71   38   39 2   
@<TRIPOS>SUBSTRUCTURE
     1 6XS         1 TEMP              0 ****  ****    0 ROOT
