@<TRIPOS>MOLECULE
6YT
   38    39     1     0     0
SMALL
bcc


@<TRIPOS>ATOM
      1 CAK        -0.9020    1.0940    1.2330 ca        1 6YT     -0.238300
      2 CAF         0.1580    1.1090    0.3280 ca        1 6YT     -0.080000
      3 CAE         0.4450   -0.0500   -0.3960 ca        1 6YT     -0.237300
      4 CAH        -0.3520   -1.1860   -0.1730 ca        1 6YT      0.410200
      5 NAN        -1.3770   -1.2230    0.6990 nb        1 6YT     -0.710000
      6 CAU        -1.6540   -0.0930    1.3930 ca        1 6YT      0.410600
      7 CAL        -2.7880   -0.0500    2.3660 c3        1 6YT     -0.070600
      8 SAQ        -3.7310   -1.5150    2.6490 ss        1 6YT     -0.295200
      9 CB         -4.6510   -1.7530    1.1490 c3        1 6YT     -0.022300
     10 CA         -4.5560   -3.1790    0.6440 c3        1 6YT     -0.034500
     11 C          -5.0970   -3.1860   -0.8590 c         1 6YT      0.927600
     12 OXT        -4.2850   -2.7810   -1.7220 o         1 6YT     -0.774300
     13 O          -6.2580   -3.6290   -1.0070 o         1 6YT     -0.774300
     14 N          -3.1440   -3.6920    0.6630 n4        1 6YT     -0.655800
     15 CAS        -3.0820   -5.1730    0.8350 c         1 6YT      0.498600
     16 OAB        -2.8080   -5.6060    1.9450 o         1 6YT     -0.436100
     17 CAV        -3.3520   -5.9650   -0.3960 ca        1 6YT      0.284800
     18 NAO        -2.2850   -6.3130   -1.1610 nb        1 6YT     -0.620000
     19 CAI        -2.5340   -7.0180   -2.2710 ca        1 6YT      0.375200
     20 CAG        -3.8330   -7.4020   -2.6830 ca        1 6YT     -0.177300
     21 CAJ        -4.9210   -7.0440   -1.9010 ca        1 6YT     -0.135000
     22 CAT        -4.6840   -6.3130   -0.7170 ca        1 6YT      0.101800
     23 OAD        -5.6740   -5.9780    0.1630 oh        1 6YT     -0.526100
     24 HAK        -1.1590    1.9890    1.8160 ha        1 6YT      0.148000
     25 HAF         0.7560    2.0210    0.1850 ha        1 6YT      0.145000
     26 HAE         1.2660   -0.0810   -1.1240 ha        1 6YT      0.152000
     27 HAH        -0.1680   -2.1230   -0.7300 h4        1 6YT      0.025100
     28 HAL1       -2.3780    0.1980    3.3820 h1        1 6YT      0.094200
     29 HAL2       -3.4760    0.7780    2.0560 h1        1 6YT      0.094200
     30 HB1C       -4.3010   -1.0440    0.3570 h1        1 6YT      0.105700
     31 HB2C       -5.7320   -1.5420    1.3490 h1        1 6YT      0.105700
     32 HA         -5.1900   -3.8720    1.2650 hx        1 6YT      0.108700
     33 H          -2.6370   -3.2280    1.4420 hn        1 6YT      0.478800
     34 HAI        -1.6490   -7.2840   -2.8760 h4        1 6YT      0.035100
     35 HAG        -3.9670   -7.9700   -3.6150 ha        1 6YT      0.155000
     36 HAJ        -5.9520   -7.2990   -2.1870 ha        1 6YT      0.164000
     37 HAD        -6.3960   -5.5400   -0.3400 ho        1 6YT      0.489000
     38 H2         -2.7220   -3.4240   -0.2450 hn        1 6YT      0.478800
@<TRIPOS>BOND
     1    1    2 ar  
     2    1    6 ar  
     3    1   24 1   
     4    2    3 ar  
     5    2   25 1   
     6    3    4 ar  
     7    3   26 1   
     8    4    5 ar  
     9    4   27 1   
    10    5    6 ar  
    11    6    7 1   
    12    7    8 1   
    13    7   28 1   
    14    7   29 1   
    15    8    9 1   
    16    9   10 1   
    17    9   30 1   
    18    9   31 1   
    19   10   11 1   
    20   10   14 1   
    21   10   32 1   
    22   11   12 1   
    23   11   13 1   
    24   14   15 1   
    25   14   33 1   
    26   14   38 1   
    27   15   16 2   
    28   15   17 1   
    29   17   18 ar  
    30   17   22 ar  
    31   18   19 ar  
    32   19   20 ar  
    33   19   34 1   
    34   20   21 ar  
    35   20   35 1   
    36   21   22 ar  
    37   21   36 1   
    38   22   23 1   
    39   23   37 1   
@<TRIPOS>SUBSTRUCTURE
     1 6YT         1 TEMP              0 ****  ****    0 ROOT
