@<TRIPOS>MOLECULE
6YT
   38    39     1     0     0
SMALL
bcc


@<TRIPOS>ATOM
      1 CAK        -0.9830    1.1300    1.2430 ca        1 6YT     -0.238300
      2 CAF         0.0590    1.1800    0.3190 ca        1 6YT     -0.080000
      3 CAE         0.3620    0.0360   -0.4220 ca        1 6YT     -0.237300
      4 CAH        -0.4020   -1.1220   -0.1960 ca        1 6YT      0.410200
      5 NAN        -1.4090   -1.1930    0.6950 nb        1 6YT     -0.710000
      6 CAU        -1.7010   -0.0780    1.4050 ca        1 6YT      0.410600
      7 CAL        -2.8170   -0.0740    2.4000 c3        1 6YT     -0.070600
      8 SAQ        -3.7210   -1.5630    2.6790 ss        1 6YT     -0.295200
      9 CB         -4.6610   -1.8050    1.1920 c3        1 6YT     -0.022300
     10 CA         -4.5400   -3.2220    0.6680 c3        1 6YT     -0.034500
     11 C          -5.1050   -3.2230   -0.8260 c         1 6YT      0.927600
     12 OXT        -4.3160   -2.7900   -1.6970 o         1 6YT     -0.774300
     13 O          -6.2580   -3.6910   -0.9620 o         1 6YT     -0.774300
     14 N          -3.1180   -3.7030    0.6590 ny        1 6YT     -0.655800
     15 CAS        -3.0200   -5.1840    0.8120 c         1 6YT      0.498600
     16 OAB        -2.7180   -5.6240    1.9130 o         1 6YT     -0.436100
     17 CAV        -3.2900   -5.9670   -0.4240 ca        1 6YT      0.284800
     18 NAO        -2.2290   -6.2820   -1.2090 nb        1 6YT     -0.620000
     19 CAI        -2.4790   -6.9790   -2.3240 ca        1 6YT      0.375200
     20 CAG        -3.7750   -7.3880   -2.7200 ca        1 6YT     -0.177300
     21 CAJ        -4.8580   -7.0640   -1.9170 ca        1 6YT     -0.135000
     22 CAT        -4.6200   -6.3420   -0.7290 ca        1 6YT      0.101800
     23 OAD        -5.6030   -6.0400    0.1710 oh        1 6YT     -0.526100
     24 HAK        -1.2520    2.0120    1.8400 ha        1 6YT      0.148000
     25 HAF         0.6310    2.1090    0.1740 ha        1 6YT      0.145000
     26 HAE         1.1700    0.0340   -1.1650 ha        1 6YT      0.152000
     27 HAH        -0.2030   -2.0480   -0.7650 h4        1 6YT      0.025100
     28 HAL1       -3.5290    0.7430    2.1140 h1        1 6YT      0.094200
     29 HAL2       -2.3940    0.1700    3.4110 h1        1 6YT      0.094200
     30 HB1C       -5.7430   -1.6210    1.4120 h1        1 6YT      0.105700
     31 HB2C       -4.3400   -1.0780    0.4030 h1        1 6YT      0.105700
     32 HA         -5.1490   -3.9370    1.2900 hx        1 6YT      0.108700
     33 H          -2.7160   -3.4150   -0.2520 hn        1 6YT      0.478800
     34 HAI        -1.5970   -7.2170   -2.9460 h4        1 6YT      0.035100
     35 HAG        -3.9100   -7.9470   -3.6570 ha        1 6YT      0.155000
     36 HAJ        -5.8870   -7.3390   -2.1910 ha        1 6YT      0.164000
     37 HAD        -6.3420   -5.6120   -0.3160 ho        1 6YT      0.489000
     38 H2         -2.6090   -3.2360    1.4350 hn        1 6YT      0.478800
@<TRIPOS>BOND
     1    1    2 ar  
     2    1    6 ar  
     3    1   24 1   
     4    2    3 ar  
     5    2   25 1   
     6    3    4 ar  
     7    3   26 1   
     8    4    5 ar  
     9    4   27 1   
    10    5    6 ar  
    11    6    7 1   
    12    7    8 1   
    13    7   28 1   
    14    7   29 1   
    15    8    9 1   
    16    9   10 1   
    17    9   30 1   
    18    9   31 1   
    19   10   11 1   
    20   10   14 1   
    21   10   32 1   
    22   11   12 1   
    23   11   13 1   
    24   14   15 1   
    25   14   33 1   
    26   14   38 1   
    27   15   16 2   
    28   15   17 1   
    29   17   18 ar  
    30   17   22 ar  
    31   18   19 ar  
    32   19   20 ar  
    33   19   34 1   
    34   20   21 ar  
    35   20   35 1   
    36   21   22 ar  
    37   21   36 1   
    38   22   23 1   
    39   23   37 1   
@<TRIPOS>SUBSTRUCTURE
     1 6YT         1 TEMP              0 ****  ****    0 ROOT
