@<TRIPOS>MOLECULE
6YT
   38    39     1     0     0
SMALL
bcc


@<TRIPOS>ATOM
      1 CAK        -0.9960    1.1330    1.2020 ca        1 6YT     -0.238300
      2 CAF         0.0420    1.1790    0.2720 ca        1 6YT     -0.080000
      3 CAE         0.3500    0.0270   -0.4540 ca        1 6YT     -0.236300
      4 CAH        -0.4040   -1.1330   -0.2080 ca        1 6YT      0.410200
      5 NAN        -1.4060   -1.2010    0.6880 nb        1 6YT     -0.710000
      6 CAU        -1.7040   -0.0780    1.3850 ca        1 6YT      0.410600
      7 CAL        -2.8140   -0.0690    2.3860 c3        1 6YT     -0.070600
      8 SAQ        -3.7210   -1.5550    2.6730 ss        1 6YT     -0.295200
      9 CB         -4.6580   -1.8050    1.1850 c3        1 6YT     -0.022300
     10 CA         -4.5380   -3.2260    0.6700 c3        1 6YT     -0.034500
     11 C          -5.0980   -3.2360   -0.8260 c         1 6YT      0.927600
     12 OXT        -4.3050   -2.8100   -1.6970 o         1 6YT     -0.774300
     13 O          -6.2510   -3.7030   -0.9620 o         1 6YT     -0.774300
     14 N          -3.1160   -3.7090    0.6680 n4        1 6YT     -0.655800
     15 CAS        -3.0210   -5.1900    0.8330 c         1 6YT      0.498600
     16 OAB        -2.7250   -5.6220    1.9370 o         1 6YT     -0.436100
     17 CAV        -3.2890   -5.9810   -0.3990 ca        1 6YT      0.284800
     18 NAO        -2.2250   -6.3030   -1.1780 nb        1 6YT     -0.620000
     19 CAI        -2.4730   -7.0080   -2.2880 ca        1 6YT      0.375200
     20 CAG        -3.7680   -7.4180   -2.6860 ca        1 6YT     -0.177300
     21 CAJ        -4.8530   -7.0850   -1.8900 ca        1 6YT     -0.135000
     22 CAT        -4.6180   -6.3550   -0.7050 ca        1 6YT      0.101800
     23 OAD        -5.6040   -6.0450    0.1880 oh        1 6YT     -0.526100
     24 HAK        -1.2690    2.0210    1.7880 ha        1 6YT      0.148000
     25 HAF         0.6050    2.1100    0.1120 ha        1 6YT      0.145000
     26 HAE         1.1540    0.0210   -1.2020 ha        1 6YT      0.152000
     27 HAH        -0.2010   -2.0660   -0.7670 h4        1 6YT      0.025100
     28 HAL1       -3.5250    0.7500    2.1040 h1        1 6YT      0.094200
     29 HAL2       -2.3830    0.1740    3.3940 h1        1 6YT      0.094200
     30 HB1C       -4.3330   -1.0840    0.3920 h1        1 6YT      0.105700
     31 HB2C       -5.7400   -1.6190    1.4010 h1        1 6YT      0.105700
     32 HA         -5.1500   -3.9360    1.2950 hx        1 6YT      0.108700
     33 H          -2.7110   -3.4290   -0.2430 hn        1 6YT      0.478800
     34 HAI        -1.5890   -7.2530   -2.9050 h4        1 6YT      0.035100
     35 HAG        -3.9010   -7.9840   -3.6190 ha        1 6YT      0.155000
     36 HAJ        -5.8820   -7.3600   -2.1650 ha        1 6YT      0.164000
     37 HAD        -6.3400   -5.6200   -0.3040 ho        1 6YT      0.489000
     38 H2         -2.6080   -3.2380    1.4430 hn        1 6YT      0.478800
@<TRIPOS>BOND
     1    1    2 ar  
     2    1    6 ar  
     3    1   24 1   
     4    2    3 ar  
     5    2   25 1   
     6    3    4 ar  
     7    3   26 1   
     8    4    5 ar  
     9    4   27 1   
    10    5    6 ar  
    11    6    7 1   
    12    7    8 1   
    13    7   28 1   
    14    7   29 1   
    15    8    9 1   
    16    9   10 1   
    17    9   30 1   
    18    9   31 1   
    19   10   11 1   
    20   10   14 1   
    21   10   32 1   
    22   11   12 1   
    23   11   13 1   
    24   14   15 1   
    25   14   33 1   
    26   14   38 1   
    27   15   16 2   
    28   15   17 1   
    29   17   18 ar  
    30   17   22 ar  
    31   18   19 ar  
    32   19   20 ar  
    33   19   34 1   
    34   20   21 ar  
    35   20   35 1   
    36   21   22 ar  
    37   21   36 1   
    38   22   23 1   
    39   23   37 1   
@<TRIPOS>SUBSTRUCTURE
     1 6YT         1 TEMP              0 ****  ****    0 ROOT
