@<TRIPOS>MOLECULE
6Z0
   42    44     1     0     0
SMALL
bcc


@<TRIPOS>ATOM
      1 C2          6.2760   -0.7310   -0.5060 ca        1 6Z0     -0.063000
      2 C3          5.0290   -1.3610   -0.5010 ca        1 6Z0     -0.191300
      3 C4          3.9170   -0.6610    0.0080 ca        1 6Z0      0.367800
      4 N5          4.0020    0.6010    0.5010 nb        1 6Z0     -0.658000
      5 C6          5.2020    1.1940    0.4950 ca        1 6Z0      0.435200
      6 N9          1.4400   -0.6400    0.0600 n         1 6Z0     -0.447100
      7 C15        -2.5670   -1.9480    0.2210 ca        1 6Z0      0.123900
      8 C1          6.3750    0.5710   -0.0000 ca        1 6Z0     -0.108300
      9 C7          2.5950   -1.3990    0.0110 c         1 6Z0      0.578600
     10 O8          2.6030   -2.6420   -0.0640 o         1 6Z0     -0.586100
     11 C10         7.6140    1.2600    0.0220 cg        1 6Z0      0.225800
     12 N11         8.6300    1.8250    0.0410 n1        1 6Z0     -0.332800
     13 C12         0.1220   -1.1270    0.1150 ca        1 6Z0      0.056600
     14 C13        -0.2150   -2.4780   -0.1090 ca        1 6Z0     -0.119000
     15 C14        -1.5410   -2.8730   -0.0540 ca        1 6Z0     -0.143000
     16 C16        -2.2600   -0.5840    0.4400 ca        1 6Z0     -0.139300
     17 C17        -0.9160   -0.2040    0.3880 ca        1 6Z0     -0.158000
     18 C20        -4.1680   -0.0910    1.9660 c3        1 6Z0     -0.105100
     19 O22        -3.0570    2.6060   -1.1430 os        1 6Z0     -0.449400
     20 C23        -2.3690    2.6160    0.0880 c2        1 6Z0      0.768500
     21 N28        -2.8620    1.7710    1.1070 nh        1 6Z0     -0.808200
     22 C25        -4.3270    0.6050   -0.4780 c3        1 6Z0      0.385600
     23 C60        -3.5500    1.3570   -1.5920 c3        1 6Z0      0.094400
     24 F26        -5.4870    1.2580   -0.1230 f         1 6Z0     -0.218800
     25 F27        -4.8180   -0.5940   -0.9410 f         1 6Z0     -0.218800
     26 C5         -3.3460    0.4350    0.7720 c3        1 6Z0      0.240500
     27 N24        -1.4250    3.4930    0.2540 n2        1 6Z0     -0.847100
     28 H2          7.1630   -1.2520   -0.8970 ha        1 6Z0      0.161000
     29 H3          4.9050   -2.3900   -0.8750 ha        1 6Z0      0.180000
     30 H6          5.2360    2.2210    0.9070 h4        1 6Z0      0.044100
     31 H9          1.5350    0.3460    0.1850 hn        1 6Z0      0.343500
     32 H14        -1.8100   -3.9270   -0.2250 ha        1 6Z0      0.158000
     33 H13         0.5620   -3.2320   -0.3240 ha        1 6Z0      0.183000
     34 H17        -0.6320    0.8470    0.5620 ha        1 6Z0      0.148000
     35 H201       -3.4910   -0.4030    2.7950 hc        1 6Z0      0.066367
     36 H202       -4.8700    0.6960    2.3360 hc        1 6Z0      0.066367
     37 H203       -4.7750   -0.9670    1.6320 hc        1 6Z0      0.066367
     38 H601       -4.2340    1.6180   -2.4430 h1        1 6Z0      0.085200
     39 H602       -2.7040    0.7100   -1.9400 h1        1 6Z0      0.085200
     40 H24        -1.2860    4.1000   -0.5260 hn        1 6Z0      0.417400
     41 H28        -2.3350    1.7970    1.9580 hn        1 6Z0      0.437800
     42 F18        -3.8380   -2.4130    0.2580 f         1 6Z0     -0.126900
@<TRIPOS>BOND
     1    1    2 ar  
     2    1    8 ar  
     3    1   28 1   
     4    2    3 ar  
     5    2   29 1   
     6    3    4 ar  
     7    3    9 1   
     8    4    5 ar  
     9    5    8 ar  
    10    5   30 1   
    11    6    9 1   
    12    6   13 1   
    13    6   31 1   
    14    7   15 ar  
    15    7   16 ar  
    16    7   42 1   
    17    8   11 1   
    18    9   10 2   
    19   11   12 3   
    20   13   14 ar  
    21   13   17 ar  
    22   14   15 ar  
    23   14   33 1   
    24   15   32 1   
    25   16   17 ar  
    26   16   26 1   
    27   17   34 1   
    28   18   26 1   
    29   18   35 1   
    30   18   36 1   
    31   18   37 1   
    32   19   20 1   
    33   19   23 1   
    34   20   21 1   
    35   20   27 2   
    36   21   26 1   
    37   21   41 1   
    38   22   23 1   
    39   22   24 1   
    40   22   25 1   
    41   22   26 1   
    42   23   38 1   
    43   23   39 1   
    44   27   40 1   
@<TRIPOS>SUBSTRUCTURE
     1 6Z0         1 TEMP              0 ****  ****    0 ROOT
