@<TRIPOS>MOLECULE
6Z0
   42    43     1     0     0
SMALL
bcc


@<TRIPOS>ATOM
      1 C2         -0.2160    0.6890    0.2510 c2        1 6Z0     -0.062000
      2 C3          1.1620    0.5200    0.0950 c2        1 6Z0     -0.126000
      3 C4          1.9650    0.3880    1.2460 c2        1 6Z0     -0.048000
      4 N5          1.4610    0.4220    2.5050 n2        1 6Z0     -0.134000
      5 C6          0.1390    0.5880    2.6440 c2        1 6Z0     -0.031000
      6 N9          4.1950   -0.3560    2.0260 ns        1 6Z0     -0.301000
      7 C15         8.3550   -1.0680    2.1550 ca        1 6Z0      0.090000
      8 C1         -0.7470    0.7250    1.5470 c2        1 6Z0     -0.039000
      9 C7          3.4540    0.2310    1.0180 c2        1 6Z0      0.362000
     10 O8          3.9380    0.6050   -0.0670 o         1 6Z0     -0.346000
     11 C10        -2.1360    0.8950    1.7680 c1        1 6Z0     -0.104000
     12 N11        -3.2770    1.0350    1.9510 n1        1 6Z0     -0.007000
     13 C12         5.5860   -0.5580    2.0260 ca        1 6Z0      0.066000
     14 C13         6.3770   -0.4870    0.8580 ca        1 6Z0     -0.115000
     15 C14         7.7360   -0.7390    0.9310 ca        1 6Z0     -0.142000
     16 C16         7.5930   -1.1250    3.3390 ca        1 6Z0     -0.120000
     17 C17         6.2180   -0.8730    3.2480 ca        1 6Z0     -0.148000
     18 C20         7.8380   -0.2040    5.6220 c3        1 6Z0     -0.228000
     19 O22         8.5170   -4.1550    3.8410 os        1 6Z0     -0.188000
     20 C23         7.2680   -3.7550    4.4910 c2        1 6Z0      0.189000
     21 N28         7.5190   -2.6330    5.3160 n7        1 6Z0     -0.262000
     22 C25         9.7070   -1.6270    4.7590 c3        1 6Z0      0.228000
     23 C60         8.4950   -5.3330    3.2610 c1        1 6Z0     -0.053000
     24 F26        10.1780   -1.8260    6.0360 f         1 6Z0     -0.166500
     25 F27        10.3700   -0.4800    4.3870 f         1 6Z0     -0.166500
     26 C5          8.1270   -1.4310    4.7310 c3        1 6Z0      0.057000
     27 N24         6.1520   -4.3860    4.3700 n2        1 6Z0     -0.284000
     28 H2         -0.8690    0.7940   -0.6280 ha        1 6Z0      0.161000
     29 H3          1.6270    0.5000   -0.9030 ha        1 6Z0      0.181000
     30 H6         -0.2380    0.6150    3.6840 h4        1 6Z0      0.180000
     31 H9          3.7330   -0.5690    2.8850 hn        1 6Z0      0.255000
     32 H14         8.3570   -0.6870    0.0220 ha        1 6Z0      0.158000
     33 H13         5.9280   -0.2310   -0.1170 ha        1 6Z0      0.181000
     34 H17         5.6110   -0.9320    4.1680 ha        1 6Z0      0.139000
     35 H201        8.2770   -0.3570    6.6380 hc        1 6Z0      0.101667
     36 H202        6.7440   -0.0150    5.7210 hc        1 6Z0      0.101667
     37 H203        8.3190    0.6900    5.1550 hc        1 6Z0      0.101667
     38 H601       10.0020   -2.4930    4.0960 h2        1 6Z0      0.135000
     39 H602        9.5080   -5.5100    2.8210 ha        1 6Z0      0.060000
     40 H24         6.1890   -5.2400    3.8500 hn        1 6Z0      0.204000
     41 H28         6.7220   -2.4070    5.8830 hn        1 6Z0      0.221000
     42 F18         9.6850   -1.3230    2.1350 f         1 6Z0     -0.100000
@<TRIPOS>BOND
     1    1    2 1   
     2    1    8 1   
     3    1   28 1   
     4    2    3 1   
     5    2   29 1   
     6    3    4 1   
     7    3    9 1   
     8    4    5 1   
     9    5    8 1   
    10    5   30 1   
    11    6    9 1   
    12    6   13 1   
    13    6   31 1   
    14    7   15 1   
    15    7   16 1   
    16    7   42 1   
    17    8   11 1   
    18    9   10 1   
    19   11   12 1   
    20   13   14 1   
    21   13   17 1   
    22   14   15 1   
    23   14   33 1   
    24   15   32 1   
    25   16   17 1   
    26   16   26 1   
    27   17   34 1   
    28   18   26 1   
    29   18   35 1   
    30   18   36 1   
    31   18   37 1   
    32   19   20 1   
    33   19   23 1   
    34   20   21 1   
    35   20   27 1   
    36   21   26 1   
    37   21   41 1   
    38   22   24 1   
    39   22   25 1   
    40   22   26 1   
    41   22   38 1   
    42   23   39 1   
    43   27   40 1   
@<TRIPOS>SUBSTRUCTURE
     1 6Z0         1 TEMP              0 ****  ****    0 ROOT
