@<TRIPOS>MOLECULE
6Z0
   43    45     1     0     0
SMALL
bcc


@<TRIPOS>ATOM
      1 C2          0.0090   -0.9680    0.4780 ca        1 6Z0     -0.061000
      2 C3          1.4050   -1.0990    0.5570 ca        1 6Z0     -0.137300
      3 C4          2.1100   -0.2190    1.3970 ca        1 6Z0      0.299800
      4 N5          1.5080    0.7560    2.1400 nb        1 6Z0     -0.679000
      5 C6          0.1830    0.8700    2.0560 ca        1 6Z0      0.451200
      6 N9          4.2980    0.5540    2.4300 n4        1 6Z0     -0.522200
      7 C15         8.5090    0.0400    2.6570 ca        1 6Z0      0.217900
      8 C1         -0.6190    0.0250    1.2320 ca        1 6Z0     -0.036300
      9 C7          3.5850   -0.3770    1.4640 c         1 6Z0      0.457600
     10 O8          4.2580   -1.1720    0.8290 o         1 6Z0     -0.393100
     11 C10        -2.0240    0.2070    1.1960 cg        1 6Z0      0.186800
     12 N11        -3.1770    0.3560    1.1650 n1        1 6Z0     -0.251800
     13 C12         5.7490    0.3760    2.4900 ca        1 6Z0     -0.078400
     14 C13         6.5850    1.1670    1.6820 ca        1 6Z0     -0.061000
     15 C14         7.9550    0.9970    1.7750 ca        1 6Z0     -0.152000
     16 C16         7.6710   -0.7790    3.4600 ca        1 6Z0     -0.140300
     17 C17         6.2910   -0.5820    3.3630 ca        1 6Z0     -0.067000
     18 C20         9.2370   -1.0790    5.3720 c3        1 6Z0     -0.114100
     19 O22         7.0510   -4.3900    3.8090 os        1 6Z0     -0.434400
     20 C23         6.4250   -3.4750    4.6770 c2        1 6Z0      0.777500
     21 N28         7.2530   -2.4880    5.2460 nh        1 6Z0     -0.841200
     22 C25         9.0480   -2.9410    3.6400 c3        1 6Z0      0.389600
     23 C60         8.0250   -3.8670    2.9250 c3        1 6Z0      0.094400
     24 F26         9.8790   -3.6380    4.4840 f         1 6Z0     -0.209300
     25 F27         9.9390   -2.4080    2.7360 f         1 6Z0     -0.209300
     26 C5          8.2460   -1.8060    4.4410 c3        1 6Z0      0.246500
     27 N24         5.1750   -3.6490    4.9820 n2        1 6Z0     -0.855100
     28 H2         -0.5740   -1.6430   -0.1720 ha        1 6Z0      0.190000
     29 H3          1.9340   -1.8710   -0.0250 ha        1 6Z0      0.189000
     30 H6         -0.2820    1.6700    2.6690 h4        1 6Z0      0.068100
     31 H9          4.0900    1.5230    2.1520 hn        1 6Z0      0.475800
     32 H14         8.6370    1.6090    1.1580 ha        1 6Z0      0.190000
     33 H13         6.1780    1.9170    0.9830 ha        1 6Z0      0.163000
     34 H17         5.5980   -1.1820    3.9790 ha        1 6Z0      0.169000
     35 H201        8.7690   -0.1680    5.8110 hc        1 6Z0      0.075367
     36 H202        9.5640   -1.7600    6.1990 hc        1 6Z0      0.075367
     37 H203       10.1450   -0.7920    4.7890 hc        1 6Z0      0.075367
     38 H601        8.5450   -4.7770    2.5170 h1        1 6Z0      0.089700
     39 H602        7.5280   -3.2890    2.1040 h1        1 6Z0      0.089700
     40 H24         4.7650   -4.4740    4.6010 hn        1 6Z0      0.429400
     41 H28         6.8630   -1.9560    5.9950 hn        1 6Z0      0.452800
     42 H92         3.9020    0.3990    3.3690 hn        1 6Z0      0.475800
     43 F18         9.8500   -0.0590    2.7000 f         1 6Z0     -0.082900
@<TRIPOS>BOND
     1    1    2 ar  
     2    1    8 ar  
     3    1   28 1   
     4    2    3 ar  
     5    2   29 1   
     6    3    4 ar  
     7    3    9 1   
     8    4    5 ar  
     9    5    8 ar  
    10    5   30 1   
    11    6    9 1   
    12    6   13 1   
    13    6   31 1   
    14    6   42 1   
    15    7   15 ar  
    16    7   16 ar  
    17    7   43 1   
    18    8   11 1   
    19    9   10 2   
    20   11   12 3   
    21   13   14 ar  
    22   13   17 ar  
    23   14   15 ar  
    24   14   33 1   
    25   15   32 1   
    26   16   17 ar  
    27   16   26 1   
    28   17   34 1   
    29   18   26 1   
    30   18   35 1   
    31   18   36 1   
    32   18   37 1   
    33   19   20 1   
    34   19   23 1   
    35   20   21 1   
    36   20   27 2   
    37   21   26 1   
    38   21   41 1   
    39   22   23 1   
    40   22   24 1   
    41   22   25 1   
    42   22   26 1   
    43   23   38 1   
    44   23   39 1   
    45   27   40 1   
@<TRIPOS>SUBSTRUCTURE
     1 6Z0         1 TEMP              0 ****  ****    0 ROOT
