@<TRIPOS>MOLECULE
6Z0
   42    43     1     0     0
SMALL
bcc


@<TRIPOS>ATOM
      1 C2         -0.2000    0.6640    0.2470 c2        1 6Z0     -0.062000
      2 C3          1.1730    0.4700    0.0820 c2        1 6Z0     -0.126000
      3 C4          1.9850    0.3450    1.2280 c2        1 6Z0     -0.048000
      4 N5          1.4930    0.4100    2.4900 n2        1 6Z0     -0.134000
      5 C6          0.1750    0.6010    2.6380 c2        1 6Z0     -0.031000
      6 N9          4.2090   -0.4200    2.0030 n         1 6Z0     -0.301000
      7 C15         8.3590   -1.1960    2.1090 ca        1 6Z0      0.090000
      8 C1         -0.7190    0.7320    1.5460 c2        1 6Z0     -0.039000
      9 C7          3.4690    0.1600    0.9900 c2        1 6Z0      0.362000
     10 O8          3.9490    0.5050   -0.1060 o         1 6Z0     -0.346000
     11 C10        -2.1030    0.9290    1.7760 c1        1 6Z0     -0.104000
     12 N11        -3.2400    1.0910    1.9660 n1        1 6Z0     -0.007000
     13 C12         5.5970   -0.6440    1.9950 ca        1 6Z0      0.066000
     14 C13         6.3780   -0.6100    0.8180 ca        1 6Z0     -0.115000
     15 C14         7.7330   -0.8810    0.8840 ca        1 6Z0     -0.142000
     16 C16         7.6070   -1.2160    3.3000 ca        1 6Z0     -0.120000
     17 C17         6.2350   -0.9440    3.2170 ca        1 6Z0     -0.148000
     18 C20         7.8880   -0.2530    5.5620 c3        1 6Z0     -0.228000
     19 O22         8.4880   -4.2500    3.8570 os        1 6Z0     -0.188000
     20 C23         7.2510   -3.8170    4.5090 c2        1 6Z0      0.189000
     21 N28         7.5280   -2.6830    5.3080 n3        1 6Z0     -0.262000
     22 C25         9.7260   -1.7230    4.7120 c3        1 6Z0      0.228000
     23 C60         8.4410   -5.4390    3.3010 c1        1 6Z0     -0.053000
     24 F26        10.2060   -1.9030    5.9880 f         1 6Z0     -0.166500
     25 F27        10.4030   -0.5950    4.3100 f         1 6Z0     -0.166500
     26 C5          8.1490   -1.5020    4.6940 c3        1 6Z0      0.057000
     27 N24         6.1250   -4.4310    4.4110 n2        1 6Z0     -0.284000
     28 H2         -0.8590    0.7640   -0.6290 ha        1 6Z0      0.161000
     29 H3          1.6300    0.4240   -0.9200 ha        1 6Z0      0.181000
     30 H6         -0.1930    0.6520    3.6800 h4        1 6Z0      0.180000
     31 H9          3.7520   -0.6090    2.8700 hn        1 6Z0      0.255000
     32 H14         8.3460   -0.8580   -0.0310 ha        1 6Z0      0.158000
     33 H13         5.9240   -0.3660   -0.1570 ha        1 6Z0      0.181000
     34 H17         5.6360   -0.9740    4.1440 ha        1 6Z0      0.139000
     35 H201        8.3790    0.6230    5.0730 hc        1 6Z0      0.101667
     36 H202        6.7980   -0.0440    5.6670 hc        1 6Z0      0.101667
     37 H203        8.3340   -0.3930    6.5770 hc        1 6Z0      0.101667
     38 H601        9.4470   -5.6410    2.8560 ha        1 6Z0      0.060000
     39 H602       10.0010   -2.6070    4.0640 h2        1 6Z0      0.135000
     40 H24         6.1430   -5.2960    3.9080 hn        1 6Z0      0.204000
     41 H28         6.7390   -2.4320    5.8780 hn        1 6Z0      0.221000
     42 F18         9.6840   -1.4720    2.0820 f         1 6Z0     -0.100000
@<TRIPOS>BOND
     1    1    2 1   
     2    1    8 1   
     3    1   28 1   
     4    2    3 1   
     5    2   29 1   
     6    3    4 1   
     7    3    9 1   
     8    4    5 1   
     9    5    8 1   
    10    5   30 1   
    11    6    9 1   
    12    6   13 1   
    13    6   31 1   
    14    7   15 1   
    15    7   16 1   
    16    7   42 1   
    17    8   11 1   
    18    9   10 1   
    19   11   12 1   
    20   13   14 1   
    21   13   17 1   
    22   14   15 1   
    23   14   33 1   
    24   15   32 1   
    25   16   17 1   
    26   16   26 1   
    27   17   34 1   
    28   18   26 1   
    29   18   35 1   
    30   18   36 1   
    31   18   37 1   
    32   19   20 1   
    33   19   23 1   
    34   20   21 1   
    35   20   27 1   
    36   21   26 1   
    37   21   41 1   
    38   22   24 1   
    39   22   25 1   
    40   22   26 1   
    41   22   39 1   
    42   23   38 1   
    43   27   40 1   
@<TRIPOS>SUBSTRUCTURE
     1 6Z0         1 TEMP              0 ****  ****    0 ROOT
