@<TRIPOS>MOLECULE
6Z0
   42    38     1     0     0
SMALL
bcc


@<TRIPOS>ATOM
      1 C2         -5.7950    1.5060   -2.4910 c1        1 6Z0     -0.062000
      2 C3         -4.4350    1.3170   -2.5180 c1        1 6Z0     -0.127000
      3 C4         -3.7380    1.1150   -1.3340 c1        1 6Z0     -0.047000
      4 N5         -4.4060    1.1040   -0.1420 n1        1 6Z0     -0.133000
      5 C6         -5.7650    1.2940   -0.1150 c1        1 6Z0     -0.031000
      6 N9         -1.4820    0.8160   -0.1320 n         1 6Z0     -0.300000
      7 C15         2.7520    1.0700   -0.1290 c1        1 6Z0      0.082000
      8 C1         -6.4620    1.4960   -1.2980 c1        1 6Z0     -0.041000
      9 C7         -2.2000    1.0240   -1.3540 c2        1 6Z0      0.361000
     10 O8         -1.5960    1.2830   -2.3700 o         1 6Z0     -0.348000
     11 C10        -7.9740    1.7260   -1.2660 c1        1 6Z0     -0.103000
     12 N11        -9.1060    1.8980   -1.2410 n1        1 6Z0     -0.009000
     13 C12        -0.0300    0.9160   -0.1170 c2        1 6Z0      0.056000
     14 C13         0.6090    1.8360   -0.9370 c2        1 6Z0     -0.115000
     15 C14         2.0020    1.9140   -0.9450 c1        1 6Z0     -0.144000
     16 C16         2.1140    0.1520    0.6900 c1        1 6Z0     -0.083000
     17 C17         0.7190    0.0730    0.6970 c1        1 6Z0     -0.128000
     18 F18         3.9570    1.6150   -0.3540 f         1 6Z0     -0.102000
     19 C20         3.0080   -0.7700    3.2200 c3        1 6Z0     -0.229000
     20 O22         2.9170   -3.0190   -0.2040 os        1 6Z0     -0.257000
     21 C23         2.9370   -3.1540   -0.0800 c2        1 6Z0      0.196000
     22 N28         2.6120   -2.6890    1.4220 n3        1 6Z0     -0.308000
     23 C25         3.6390   -1.0540    1.6020 c3        1 6Z0      0.212000
     24 C60         3.8360   -1.4850    0.1870 c3        1 6Z0     -0.057000
     25 F26         4.3790   -1.8370    2.4080 f         1 6Z0     -0.156000
     26 F27         4.0460    0.2230    1.7330 f         1 6Z0     -0.156000
     27 C5          3.1550   -1.0870    1.7380 c3        1 6Z0      0.087000
     28 N24         3.3090   -4.3900   -0.3980 n1        1 6Z0     -0.289000
     29 H2         -6.2880    1.6490   -3.3290 ha        1 6Z0      0.161000
     30 H3         -3.9570    1.3240   -3.3710 ha        1 6Z0      0.180000
     31 H6         -6.2450    1.2860    0.7430 ha        1 6Z0      0.179000
     32 H9         -1.9320    0.5710    0.6270 hn        1 6Z0      0.255000
     33 H14         2.4520    2.5630   -1.5230 ha        1 6Z0      0.156000
     34 H13         0.0840    2.4280   -1.5090 ha        1 6Z0      0.178000
     35 H17         0.2680   -0.5760    1.2760 ha        1 6Z0      0.149000
     36 H201        2.0580   -0.7670    3.4620 hc        1 6Z0      0.103000
     37 H202        3.4780   -1.4490    3.7480 hc        1 6Z0      0.103000
     38 H203        3.3950    0.1130    3.4050 hc        1 6Z0      0.103000
     39 H601        4.7950   -1.6400    0.0330 h1        1 6Z0      0.128500
     40 H602        3.5300   -0.7710   -0.4090 h1        1 6Z0      0.128500
     41 H24         3.4850   -4.6080   -1.2780 DU        1 6Z0      0.172000
     42 H28         1.8720   -3.0160    1.8540 hn        1 6Z0      0.235000
@<TRIPOS>BOND
     1    1    8 1   
     2    1   29 1   
     3    2    3 1   
     4    2   30 1   
     5    3    9 1   
     6    4    5 1   
     7    5   31 1   
     8    6    9 1   
     9    6   13 1   
    10    6   32 1   
    11    7   16 1   
    12    7   18 1   
    13    8   11 1   
    14    9   10 1   
    15   11   12 1   
    16   13   14 1   
    17   13   17 1   
    18   14   15 1   
    19   14   34 1   
    20   15   33 1   
    21   16   27 1   
    22   17   35 1   
    23   19   27 1   
    24   19   36 1   
    25   19   37 1   
    26   19   38 1   
    27   20   21 1   
    28   20   24 1   
    29   21   22 1   
    30   21   28 1   
    31   22   27 1   
    32   22   42 1   
    33   23   24 1   
    34   23   25 1   
    35   23   26 1   
    36   23   27 1   
    37   24   39 1   
    38   24   40 1   
@<TRIPOS>SUBSTRUCTURE
     1 6Z0         1 TEMP              0 ****  ****    0 ROOT
