@<TRIPOS>MOLECULE
6Z7
   53    56     1     0     0
SMALL
bcc


@<TRIPOS>ATOM
      1 C1          0.2040   -0.4150   -0.4160 c3        1 6Z7      0.111700
      2 O2          1.5900   -0.4900   -0.0940 os        1 6Z7     -0.319900
      3 C3          1.9290   -0.2530    1.2210 ca        1 6Z7      0.194100
      4 C4          1.0080    0.0680    2.2230 ca        1 6Z7     -0.304000
      5 C5          1.4960    0.2800    3.5190 ca        1 6Z7      0.182100
      6 O6          0.6650    0.6000    4.5680 oh        1 6Z7     -0.497100
      7 C7          2.8570    0.1770    3.8290 ca        1 6Z7     -0.229000
      8 C8          3.7720   -0.1320    2.8010 ca        1 6Z7      0.206600
      9 N9          5.1410   -0.3050    3.0720 nu        1 6Z7     -0.642000
     10 C10         5.9110    0.5320    3.8660 ca        1 6Z7      0.225600
     11 C11         7.2630    0.1740    4.1260 ca        1 6Z7     -0.205000
     12 C12         8.0540    0.9610    4.9450 ca        1 6Z7     -0.042000
     13 C13         7.5370    2.1210    5.5410 ca        1 6Z7     -0.221600
     14 C14         6.2200    2.5020    5.2660 ca        1 6Z7     -0.042000
     15 C15         5.4160    1.7300    4.4400 ca        1 6Z7     -0.205000
     16 C16         8.4400    2.9170    6.4040 c         1 6Z7      0.700700
     17 O17         9.6600    3.0130    6.1910 o         1 6Z7     -0.571100
     18 N18         7.8410    3.5420    7.5120 ns        1 6Z7     -0.477100
     19 C19         8.4620    4.3490    8.4600 ca        1 6Z7      0.124600
     20 C20         9.7870    4.8360    8.3210 ca        1 6Z7     -0.132000
     21 C21        10.3460    5.6450    9.2980 ca        1 6Z7     -0.074000
     22 C22         9.6260    6.0100   10.4430 ca        1 6Z7     -0.142300
     23 C23        10.2830    6.8530   11.4750 c3        1 6Z7     -0.050100
     24 C24         9.3060    7.4010   12.5080 c3        1 6Z7      0.111800
     25 N25         8.3070    6.3710   12.9280 ny        1 6Z7     -0.760000
     26 C26         7.4770    5.9330   11.7610 c3        1 6Z7      0.169100
     27 C27         8.3160    5.5410   10.5850 ca        1 6Z7     -0.112300
     28 C28         7.7350    4.7210    9.6200 ca        1 6Z7     -0.180000
     29 C29         3.3040   -0.3490    1.4900 ca        1 6Z7     -0.236000
     30 HN25        7.6980    6.7530   13.6580 hn        1 6Z7      0.454300
     31 HN2A        8.8080    5.5570   13.3030 hn        1 6Z7      0.454300
     32 H1          0.1830   -0.6500   -1.5110 h1        1 6Z7      0.050367
     33 H1A        -0.1890    0.6130   -0.2250 h1        1 6Z7      0.050367
     34 H1B        -0.3760   -1.1740    0.1620 h1        1 6Z7      0.050367
     35 H4         -0.0660    0.1510    2.0130 ha        1 6Z7      0.147000
     36 HO6        -0.2470    0.5930    4.2420 ho        1 6Z7      0.426000
     37 H7          3.1820    0.3160    4.8700 ha        1 6Z7      0.159000
     38 HN9         5.6350   -0.9010    2.4440 hn        1 6Z7      0.446800
     39 H11         7.6930   -0.7340    3.6750 ha        1 6Z7      0.153500
     40 H12         9.1050    0.6820    5.1320 ha        1 6Z7      0.143000
     41 H14         5.8070    3.4380    5.6730 ha        1 6Z7      0.143000
     42 H15         4.3920    2.0690    4.2160 ha        1 6Z7      0.153500
     43 HN18        6.8800    3.3300    7.6770 hn        1 6Z7      0.326500
     44 H20        10.3900    4.5730    7.4330 ha        1 6Z7      0.199000
     45 H21        11.3790    6.0090    9.1700 ha        1 6Z7      0.155000
     46 H23        10.7910    7.7330   10.9910 hc        1 6Z7      0.091700
     47 H23A       11.0840    6.2510   11.9880 hc        1 6Z7      0.091700
     48 H24         8.7340    8.2730   12.0770 hx        1 6Z7      0.105700
     49 H24A        9.8610    7.7450   13.4260 hx        1 6Z7      0.105700
     50 H26         6.8350    5.0690   12.1000 hx        1 6Z7      0.106700
     51 H26A        6.8060    6.7970   11.4740 hx        1 6Z7      0.106700
     52 H28         6.7020    4.3670    9.7650 ha        1 6Z7      0.141000
     53 H29         3.9870   -0.5990    0.6640 ha        1 6Z7      0.157000
@<TRIPOS>BOND
     1    1    2 1   
     2    1   32 1   
     3    1   33 1   
     4    1   34 1   
     5    2    3 1   
     6    3    4 ar  
     7    3   29 ar  
     8    4    5 ar  
     9    4   35 1   
    10    5    6 1   
    11    5    7 ar  
    12    6   36 1   
    13    7    8 ar  
    14    7   37 1   
    15    8    9 1   
    16    8   29 ar  
    17    9   10 1   
    18    9   38 1   
    19   10   11 ar  
    20   10   15 ar  
    21   11   12 ar  
    22   11   39 1   
    23   12   13 ar  
    24   12   40 1   
    25   13   14 ar  
    26   13   16 1   
    27   14   15 ar  
    28   14   41 1   
    29   15   42 1   
    30   16   17 2   
    31   16   18 1   
    32   18   19 1   
    33   18   43 1   
    34   19   20 ar  
    35   19   28 ar  
    36   20   21 ar  
    37   20   44 1   
    38   21   22 ar  
    39   21   45 1   
    40   22   23 1   
    41   22   27 ar  
    42   23   24 1   
    43   23   46 1   
    44   23   47 1   
    45   24   25 1   
    46   24   48 1   
    47   24   49 1   
    48   25   26 1   
    49   25   30 1   
    50   25   31 1   
    51   26   27 1   
    52   26   50 1   
    53   26   51 1   
    54   27   28 ar  
    55   28   52 1   
    56   29   53 1   
@<TRIPOS>SUBSTRUCTURE
     1 6Z7         1 TEMP              0 ****  ****    0 ROOT
