@<TRIPOS>MOLECULE
6Z7
   53    56     1     0     0
SMALL
bcc


@<TRIPOS>ATOM
      1 C1          0.2060   -0.4230   -0.4140 c3        1 6Z7      0.111700
      2 O2          1.5920   -0.4960   -0.0930 os        1 6Z7     -0.319900
      3 C3          1.9310   -0.2580    1.2220 ca        1 6Z7      0.194100
      4 C4          1.0090    0.0620    2.2240 ca        1 6Z7     -0.304000
      5 C5          1.4980    0.2750    3.5200 ca        1 6Z7      0.182100
      6 O6          0.6670    0.5950    4.5690 oh        1 6Z7     -0.497100
      7 C7          2.8590    0.1740    3.8290 ca        1 6Z7     -0.229000
      8 C8          3.7740   -0.1340    2.8020 ca        1 6Z7      0.206600
      9 N9          5.1430   -0.3060    3.0720 nh        1 6Z7     -0.642000
     10 C10         5.9130    0.5310    3.8660 ca        1 6Z7      0.225600
     11 C11         7.2650    0.1750    4.1260 ca        1 6Z7     -0.205000
     12 C12         8.0560    0.9620    4.9460 ca        1 6Z7     -0.042000
     13 C13         7.5380    2.1220    5.5410 ca        1 6Z7     -0.221600
     14 C14         6.2200    2.5020    5.2660 ca        1 6Z7     -0.042000
     15 C15         5.4170    1.7300    4.4400 ca        1 6Z7     -0.205000
     16 C16         8.4400    2.9180    6.4050 c         1 6Z7      0.700700
     17 O17         9.6600    3.0150    6.1910 o         1 6Z7     -0.571100
     18 N18         7.8400    3.5440    7.5120 n         1 6Z7     -0.477100
     19 C19         8.4610    4.3510    8.4590 ca        1 6Z7      0.124600
     20 C20         9.7850    4.8400    8.3200 ca        1 6Z7     -0.132000
     21 C21        10.3440    5.6500    9.2970 ca        1 6Z7     -0.074000
     22 C22         9.6240    6.0140   10.4410 ca        1 6Z7     -0.142300
     23 C23        10.2800    6.8580   11.4730 c3        1 6Z7     -0.050100
     24 C24         9.3030    7.4060   12.5070 c3        1 6Z7      0.111800
     25 N25         8.3050    6.3740   12.9280 n4        1 6Z7     -0.760000
     26 C26         7.4750    5.9360   11.7610 c3        1 6Z7      0.169100
     27 C27         8.3140    5.5440   10.5850 ca        1 6Z7     -0.112300
     28 C28         7.7340    4.7230    9.6200 ca        1 6Z7     -0.180000
     29 C29         3.3060   -0.3520    1.4900 ca        1 6Z7     -0.236000
     30 HN25        8.8070    5.5610   13.3020 hn        1 6Z7      0.454300
     31 HN2A        7.6960    6.7550   13.6570 hn        1 6Z7      0.454300
     32 H1          0.1840   -0.6590   -1.5090 h1        1 6Z7      0.050367
     33 H1A        -0.3730   -1.1830    0.1650 h1        1 6Z7      0.050367
     34 H1B        -0.1890    0.6040   -0.2240 h1        1 6Z7      0.050367
     35 H4         -0.0650    0.1430    2.0150 ha        1 6Z7      0.147000
     36 HO6        -0.2460    0.5860    4.2440 ho        1 6Z7      0.426000
     37 H7          3.1850    0.3140    4.8700 ha        1 6Z7      0.159000
     38 HN9         5.6380   -0.9010    2.4430 hn        1 6Z7      0.446800
     39 H11         7.6960   -0.7330    3.6760 ha        1 6Z7      0.153500
     40 H12         9.1070    0.6840    5.1320 ha        1 6Z7      0.143000
     41 H14         5.8060    3.4380    5.6730 ha        1 6Z7      0.143000
     42 H15         4.3930    2.0680    4.2160 ha        1 6Z7      0.153500
     43 HN18        6.8790    3.3320    7.6770 hn        1 6Z7      0.326500
     44 H20        10.3890    4.5770    7.4320 ha        1 6Z7      0.199000
     45 H21        11.3770    6.0140    9.1680 ha        1 6Z7      0.155000
     46 H23        10.7870    7.7390   10.9890 hc        1 6Z7      0.091700
     47 H23A       11.0820    6.2580   11.9860 hc        1 6Z7      0.091700
     48 H24         9.8580    7.7510   13.4250 hx        1 6Z7      0.105700
     49 H24A        8.7300    8.2770   12.0760 hx        1 6Z7      0.105700
     50 H26         6.8040    6.7980   11.4740 hx        1 6Z7      0.106700
     51 H26A        6.8340    5.0710   12.1000 hx        1 6Z7      0.106700
     52 H28         6.7020    4.3670    9.7660 ha        1 6Z7      0.141000
     53 H29         3.9890   -0.6010    0.6650 ha        1 6Z7      0.157000
@<TRIPOS>BOND
     1    1    2 1   
     2    1   32 1   
     3    1   33 1   
     4    1   34 1   
     5    2    3 1   
     6    3    4 ar  
     7    3   29 ar  
     8    4    5 ar  
     9    4   35 1   
    10    5    6 1   
    11    5    7 ar  
    12    6   36 1   
    13    7    8 ar  
    14    7   37 1   
    15    8    9 1   
    16    8   29 ar  
    17    9   10 1   
    18    9   38 1   
    19   10   11 ar  
    20   10   15 ar  
    21   11   12 ar  
    22   11   39 1   
    23   12   13 ar  
    24   12   40 1   
    25   13   14 ar  
    26   13   16 1   
    27   14   15 ar  
    28   14   41 1   
    29   15   42 1   
    30   16   17 2   
    31   16   18 1   
    32   18   19 1   
    33   18   43 1   
    34   19   20 ar  
    35   19   28 ar  
    36   20   21 ar  
    37   20   44 1   
    38   21   22 ar  
    39   21   45 1   
    40   22   23 1   
    41   22   27 ar  
    42   23   24 1   
    43   23   46 1   
    44   23   47 1   
    45   24   25 1   
    46   24   48 1   
    47   24   49 1   
    48   25   26 1   
    49   25   30 1   
    50   25   31 1   
    51   26   27 1   
    52   26   50 1   
    53   26   51 1   
    54   27   28 ar  
    55   28   52 1   
    56   29   53 1   
@<TRIPOS>SUBSTRUCTURE
     1 6Z7         1 TEMP              0 ****  ****    0 ROOT
