@<TRIPOS>MOLECULE
6Z7
   53    56     1     0     0
SMALL
bcc


@<TRIPOS>ATOM
      1 C1          0.2060   -0.4230   -0.4130 c3        1 6Z7      0.111700
      2 O2          1.5910   -0.4960   -0.0910 os        1 6Z7     -0.319900
      3 C3          1.9310   -0.2580    1.2230 ca        1 6Z7      0.194100
      4 C4          1.0100    0.0610    2.2260 ca        1 6Z7     -0.304000
      5 C5          1.4980    0.2720    3.5220 ca        1 6Z7      0.182100
      6 O6          0.6670    0.5910    4.5720 oh        1 6Z7     -0.497100
      7 C7          2.8600    0.1720    3.8310 ca        1 6Z7     -0.228000
      8 C8          3.7740   -0.1350    2.8030 ca        1 6Z7      0.205600
      9 N9          5.1440   -0.3060    3.0730 nh        1 6Z7     -0.642000
     10 C10         5.9130    0.5320    3.8670 ca        1 6Z7      0.225600
     11 C11         7.2660    0.1770    4.1250 ca        1 6Z7     -0.205000
     12 C12         8.0570    0.9650    4.9440 ca        1 6Z7     -0.042000
     13 C13         7.5380    2.1240    5.5400 ca        1 6Z7     -0.221600
     14 C14         6.2200    2.5020    5.2660 ca        1 6Z7     -0.042000
     15 C15         5.4170    1.7290    4.4410 ca        1 6Z7     -0.205000
     16 C16         8.4400    2.9210    6.4030 c         1 6Z7      0.700700
     17 O17         9.6600    3.0200    6.1880 o         1 6Z7     -0.571100
     18 N18         7.8400    3.5450    7.5120 n         1 6Z7     -0.477100
     19 C19         8.4610    4.3530    8.4590 ca        1 6Z7      0.124600
     20 C20         9.7850    4.8430    8.3180 ca        1 6Z7     -0.132000
     21 C21        10.3430    5.6530    9.2950 ca        1 6Z7     -0.074000
     22 C22         9.6240    6.0160   10.4410 ca        1 6Z7     -0.142300
     23 C23        10.2810    6.8590   11.4720 c3        1 6Z7     -0.050100
     24 C24         9.3040    7.4050   12.5070 c3        1 6Z7      0.111800
     25 N25         8.3080    6.3720   12.9290 n4        1 6Z7     -0.760000
     26 C26         7.4770    5.9330   11.7620 c3        1 6Z7      0.169100
     27 C27         8.3150    5.5430   10.5850 ca        1 6Z7     -0.112300
     28 C28         7.7350    4.7220    9.6210 ca        1 6Z7     -0.180000
     29 C29         3.3060   -0.3530    1.4910 ca        1 6Z7     -0.236000
     30 HN25        8.8120    5.5590   13.3020 hn        1 6Z7      0.454300
     31 HN2A        7.6990    6.7520   13.6590 hn        1 6Z7      0.454300
     32 H1          0.1840   -0.6570   -1.5080 h1        1 6Z7      0.050367
     33 H1A        -0.1890    0.6040   -0.2210 h1        1 6Z7      0.050367
     34 H1B        -0.3730   -1.1830    0.1660 h1        1 6Z7      0.050367
     35 H4         -0.0650    0.1410    2.0170 ha        1 6Z7      0.147000
     36 HO6        -0.2450    0.5820    4.2470 ho        1 6Z7      0.426000
     37 H7          3.1850    0.3110    4.8720 ha        1 6Z7      0.159000
     38 HN9         5.6380   -0.9010    2.4440 hn        1 6Z7      0.446800
     39 H11         7.6970   -0.7310    3.6740 ha        1 6Z7      0.153500
     40 H12         9.1080    0.6880    5.1290 ha        1 6Z7      0.143000
     41 H14         5.8050    3.4370    5.6750 ha        1 6Z7      0.143000
     42 H15         4.3920    2.0670    4.2190 ha        1 6Z7      0.153500
     43 HN18        6.8800    3.3310    7.6770 hn        1 6Z7      0.326500
     44 H20        10.3870    4.5820    7.4290 ha        1 6Z7      0.199000
     45 H21        11.3750    6.0200    9.1650 ha        1 6Z7      0.155000
     46 H23        11.0840    6.2600   11.9840 hc        1 6Z7      0.091700
     47 H23A       10.7850    7.7420   10.9880 hc        1 6Z7      0.091700
     48 H24         8.7290    8.2750   12.0780 hx        1 6Z7      0.105700
     49 H24A        9.8600    7.7500   13.4250 hx        1 6Z7      0.105700
     50 H26         6.8040    6.7950   11.4770 hx        1 6Z7      0.106700
     51 H26A        6.8380    5.0670   12.1020 hx        1 6Z7      0.106700
     52 H28         6.7040    4.3650    9.7670 ha        1 6Z7      0.141000
     53 H29         3.9890   -0.6010    0.6660 ha        1 6Z7      0.157000
@<TRIPOS>BOND
     1    1    2 1   
     2    1   32 1   
     3    1   33 1   
     4    1   34 1   
     5    2    3 1   
     6    3    4 ar  
     7    3   29 ar  
     8    4    5 ar  
     9    4   35 1   
    10    5    6 1   
    11    5    7 ar  
    12    6   36 1   
    13    7    8 ar  
    14    7   37 1   
    15    8    9 1   
    16    8   29 ar  
    17    9   10 1   
    18    9   38 1   
    19   10   11 ar  
    20   10   15 ar  
    21   11   12 ar  
    22   11   39 1   
    23   12   13 ar  
    24   12   40 1   
    25   13   14 ar  
    26   13   16 1   
    27   14   15 ar  
    28   14   41 1   
    29   15   42 1   
    30   16   17 2   
    31   16   18 1   
    32   18   19 1   
    33   18   43 1   
    34   19   20 ar  
    35   19   28 ar  
    36   20   21 ar  
    37   20   44 1   
    38   21   22 ar  
    39   21   45 1   
    40   22   23 1   
    41   22   27 ar  
    42   23   24 1   
    43   23   46 1   
    44   23   47 1   
    45   24   25 1   
    46   24   48 1   
    47   24   49 1   
    48   25   26 1   
    49   25   30 1   
    50   25   31 1   
    51   26   27 1   
    52   26   50 1   
    53   26   51 1   
    54   27   28 ar  
    55   28   52 1   
    56   29   53 1   
@<TRIPOS>SUBSTRUCTURE
     1 6Z7         1 TEMP              0 ****  ****    0 ROOT
