@<TRIPOS>MOLECULE
100
   28    26     1     0     0
SMALL
bcc


@<TRIPOS>ATOM
      1 N1          2.1730    3.2090    5.2250 n2        1 100     -0.004000
      2 N3          1.8830    2.5120    4.1250 na        1 100     -0.177000
      3 C3          2.7720    1.4190    4.0520 c2        1 100     -0.034000
      4 N4          3.5720    1.5390    5.1620 n2        1 100     -0.092000
      5 N2          3.1590    2.6220    5.8100 n2        1 100     -0.076000
      6 C8          2.7970    0.4030    2.9970 c2        1 100      0.183000
      7 C9          3.6870   -0.6160    3.0040 c2        1 100     -0.296000
      8 O1          1.8280    0.6400    2.0590 oh        1 100     -0.277000
      9 C1          7.0400    1.6810    7.8470 c1        1 100     -0.564000
     10 C2          6.0350    2.4290    8.2620 c2        1 100      0.194000
     11 C10         4.0540   -5.1750    1.8670 c1        1 100     -0.173000
     12 C4          4.3960   -4.0370    2.0110 c1        1 100     -0.134000
     13 C5          8.9290   -1.1080    5.2130 c1        1 100     -0.183000
     14 C6          7.9860    0.9500    7.4170 c1        1 100      0.172000
     15 C7          4.8000   -2.6980    2.1830 c2        1 100     -0.066000
     16 C12         6.0610   -2.3570    2.4920 c2        1 100     -0.122000
     17 N9          8.8760   -1.7860    4.2720 n1        1 100     -0.105000
     18 C11         3.7480   -1.6670    1.9810 c2        1 100      0.314000
     19 O2          2.9710   -1.6900    1.0120 o         1 100     -0.317000
     20 HN1         1.1550    2.7520    3.4880 hn        1 100      0.305000
     21 H9          4.4180   -0.6980    3.8260 ha        1 100      0.180000
     22 HO1         1.8550   -0.0540    1.3730 ho        1 100      0.280000
     23 H1          5.0420    2.4440    7.7700 h4        1 100      0.186000
     24 H10         3.7500   -6.1830    1.7370 ha        1 100      0.227000
     25 H6          8.9590   -0.4700    6.0850 ha        1 100      0.278000
     26 H12         6.8590   -3.1040    2.6200 ha        1 100      0.139500
     27 HN9         6.3710   -1.3110    2.6250 ha        1 100      0.139500
     28 Cl1         6.1300    3.4540    9.5890 cl        1 100      0.022000
@<TRIPOS>BOND
     1    1    2 1   
     2    1    5 1   
     3    2    3 1   
     4    2   20 1   
     5    3    4 1   
     6    3    6 1   
     7    4    5 1   
     8    6    7 1   
     9    6    8 1   
    10    7   18 1   
    11    7   21 1   
    12    8   22 1   
    13    9   10 1   
    14    9   14 1   
    15   10   23 1   
    16   10   28 1   
    17   11   12 1   
    18   11   24 1   
    19   12   15 1   
    20   13   17 1   
    21   13   25 1   
    22   15   16 1   
    23   15   18 1   
    24   16   26 1   
    25   16   27 1   
    26   18   19 1   
@<TRIPOS>SUBSTRUCTURE
     1 100         1 TEMP              0 ****  ****    0 ROOT
