@<TRIPOS>MOLECULE
100
   28    30     1     0     0
SMALL
bcc


@<TRIPOS>ATOM
      1 N1         -6.3180   -0.1380    0.2170 na        1 100      0.102900
      2 N3         -5.3510   -1.0540    0.2800 nc        1 100     -0.429800
      3 C3         -4.2270   -0.3270   -0.0170 cd        1 100      0.507800
      4 N4         -4.6170    1.0380   -0.2500 nd        1 100     -0.353000
      5 N2         -5.8730    1.0990   -0.1000 nc        1 100     -0.145800
      6 C8         -2.8410   -0.8030   -0.0980 cf        1 100      0.155300
      7 C9         -1.7900    0.0490   -0.0050 ce        1 100     -0.353200
      8 O1         -2.7820   -2.1530   -0.2760 oh        1 100     -0.490100
      9 C1          4.8180    0.8510    0.0810 ca        1 100     -0.109000
     10 C2          4.2380   -0.4350    0.0700 ca        1 100     -0.002600
     11 C10         2.8610   -0.6230    0.0260 ca        1 100     -0.069000
     12 C4          2.0450    0.5080   -0.0070 ca        1 100     -0.048800
     13 C5          2.6390    1.8240    0.0020 ca        1 100     -0.063200
     14 C6          4.0310    1.9910    0.0470 ca        1 100     -0.132000
     15 C7          0.6070    0.7050   -0.0540 cc        1 100     -0.223400
     16 C12         0.3910    2.0910   -0.0740 cd        1 100     -0.033100
     17 N9          1.6020    2.7660   -0.0390 na        1 100     -0.179400
     18 C11        -0.3850   -0.3550   -0.0820 c         1 100      0.628500
     19 O2         -0.0550   -1.5570   -0.1640 o         1 100     -0.598100
     20 HN1        -7.2810   -0.3620    0.3830 hn        1 100      0.357700
     21 H9         -1.9840    1.1220    0.1430 ha        1 100      0.158000
     22 HO1        -1.8490   -2.4410   -0.2990 ho        1 100      0.473000
     23 H1          5.9150    0.9490    0.1160 ha        1 100      0.147000
     24 H10         2.4030   -1.6260    0.0140 ha        1 100      0.177000
     25 H6          4.4850    2.9900    0.0550 ha        1 100      0.138000
     26 H12        -0.5510    2.6460   -0.1170 h4        1 100      0.176000
     27 HN9         1.7230    3.7440   -0.0540 hn        1 100      0.305700
     28 CL1         5.2660   -1.7910    0.1120 cl        1 100     -0.097400
@<TRIPOS>BOND
     1    1    2 1   
     2    1    5 1   
     3    1   20 1   
     4    2    3 2   
     5    3    4 1   
     6    3    6 1   
     7    4    5 2   
     8    6    7 2   
     9    6    8 1   
    10    7   18 1   
    11    7   21 1   
    12    8   22 1   
    13    9   10 ar  
    14    9   14 ar  
    15    9   23 1   
    16   10   11 ar  
    17   10   28 1   
    18   11   12 ar  
    19   11   24 1   
    20   12   13 ar  
    21   12   15 1   
    22   13   14 ar  
    23   13   17 1   
    24   14   25 1   
    25   15   16 2   
    26   15   18 1   
    27   16   17 1   
    28   16   26 1   
    29   17   27 1   
    30   18   19 2   
@<TRIPOS>SUBSTRUCTURE
     1 100         1 TEMP              0 ****  ****    0 ROOT
