@<TRIPOS>MOLECULE
100
   28    27     1     0     0
SMALL
bcc


@<TRIPOS>ATOM
      1 N1          0.5210    1.0560   -0.3470 nc        1 100     -0.176800
      2 N3          1.5520    1.4290    0.4120 na        1 100     -0.144400
      3 C3          1.8600    0.3620    1.2820 cc        1 100      0.407300
      4 N4          0.9520   -0.6230    0.9720 nd        1 100     -0.343000
      5 N2          0.1910   -0.1410   -0.0020 nd        1 100     -0.046000
      6 C8          2.9250    0.3480    2.2860 ce        1 100      0.137300
      7 C9          3.1630   -0.7390    3.0590 cf        1 100     -0.332200
      8 O1          3.5990    1.5380    2.3170 oh        1 100     -0.516100
      9 C1          8.5170    0.8530    6.5950 c1        1 100     -0.008800
     10 C2          9.7860    0.5780    6.5570 c2        1 100     -0.066700
     11 C10         6.6580   -3.1120    5.1660 c1        1 100     -0.103500
     12 C4          5.5660   -2.6450    5.0120 cg        1 100     -0.179300
     13 C5          6.6220    1.9760    7.5480 cg        1 100      0.191500
     14 C6          7.2400    1.1250    6.5930 ce        1 100     -0.039800
     15 C7          4.2800   -2.1010    4.8290 ce        1 100     -0.037900
     16 C12         3.1720   -2.6850    5.3120 c2        1 100     -0.135000
     17 N9          6.0920    2.6680    8.3190 n1        1 100     -0.358800
     18 C11         4.2100   -0.8170    4.0780 c         1 100      0.600500
     19 O2          4.9890    0.1240    4.3080 o         1 100     -0.579100
     20 HN1         1.9990    2.3170    0.3500 hn        1 100      0.351700
     21 H9          2.5480   -1.6450    2.9240 ha        1 100      0.181000
     22 HO1         4.3030    1.5020    2.9910 ho        1 100      0.478000
     23 H1         10.5240    1.1760    6.0010 h4        1 100      0.173000
     24 H10         7.6260   -3.5230    5.3040 ha        1 100      0.173500
     25 H6          6.5580    0.7000    5.8230 ha        1 100      0.200000
     26 H12         3.2100   -3.6180    5.8910 ha        1 100      0.133500
     27 HN9         2.1710   -2.2550    5.1650 ha        1 100      0.133500
     28 CL1        10.4690   -0.7480    7.3610 cl        1 100     -0.092400
@<TRIPOS>BOND
     1    1    2 1   
     2    1    5 2   
     3    2    3 1   
     4    2   20 1   
     5    3    4 2   
     6    3    6 1   
     7    4    5 1   
     8    6    7 2   
     9    6    8 1   
    10    7   18 1   
    11    7   21 1   
    12    8   22 1   
    13    9   10 2   
    14    9   14 2   
    15   10   23 1   
    16   10   28 1   
    17   11   12 3   
    18   11   24 1   
    19   12   15 1   
    20   13   14 1   
    21   13   17 3   
    22   14   25 1   
    23   15   16 2   
    24   15   18 1   
    25   16   26 1   
    26   16   27 1   
    27   18   19 2   
@<TRIPOS>SUBSTRUCTURE
     1 100         1 TEMP              0 ****  ****    0 ROOT
