@<TRIPOS>MOLECULE
100
   28    19     1     0     0
SMALL
bcc


@<TRIPOS>ATOM
      1 N1         -0.0580    1.9200   -4.5810 n2        1 100     -0.074500
      2 N3          0.1690    2.4610   -3.3710 n2        1 100     -0.051000
      3 C3         -0.9340    2.2870   -2.6240 c1        1 100     -0.153000
      4 N4         -1.8430    1.6390   -3.3710 n2        1 100     -0.051000
      5 N2         -1.3010    1.4120   -4.5810 n2        1 100     -0.074500
      6 C8         -1.1350    2.7800   -1.2080 c1        1 100      0.169000
      7 C9         -0.9400    1.9440   -0.1690 c1        1 100     -0.257000
      8 O1         -1.5270    4.1110   -0.9750 oh        1 100     -0.255000
      9 C1          2.3240   -2.7670    2.7360 c1        1 100     -0.110000
     10 C2          2.8340   -1.7780    1.9050 c1        1 100     -0.082000
     11 C10         1.9720   -0.9600    1.1910 c1        1 100     -0.100500
     12 C4          0.5810   -1.1320    1.3070 c1        1 100     -0.027500
     13 C5          0.0780   -2.1080    2.1280 c1        1 100     -0.027500
     14 C6          0.9530   -2.9370    2.8520 c1        1 100     -0.100500
     15 C7         -0.4820   -0.4760    0.7260 c1        1 100     -0.219000
     16 C12        -1.6450   -1.0540    1.1930 c1        1 100     -0.012000
     17 N9         -1.3030   -2.0580    2.0550 n1        1 100     -0.203000
     18 C11        -0.5200    0.5120   -0.4190 c1        1 100      0.346000
     19 O2         -0.2300    0.1520   -1.5420 o         1 100     -0.301000
     20 CL1         4.5410   -1.6570    1.5700 cl        1 100     -0.020000
     21 HN1         0.5290    1.9010   -5.2790 DU        1 100      0.246667
     22 H9         -1.0700    2.2620    0.7450 ha        1 100      0.160000
     23 HO1        -2.4120    4.1740   -1.0280 ho        1 100      0.242000
     24 H1          2.9310   -3.3430    3.2390 ha        1 100      0.147000
     25 H10         2.3300   -0.2650    0.6070 ha        1 100      0.157000
     26 H6          0.5940   -3.6320    3.4360 ha        1 100      0.157000
     27 H12        -2.5540   -0.7870    0.9560 DU        1 100      0.246667
     28 HN9        -1.8830   -2.6000    2.5040 DU        1 100      0.246667
@<TRIPOS>BOND
     1    1    2 1   
     2    1    5 1   
     3    2    3 1   
     4    3    4 1   
     5    4    5 1   
     6    6    7 1   
     7    6    8 1   
     8    7   22 1   
     9    8   23 1   
    10    9   10 1   
    11    9   24 1   
    12   10   20 1   
    13   11   12 1   
    14   11   25 1   
    15   13   14 1   
    16   14   26 1   
    17   15   16 1   
    18   16   17 1   
    19   18   19 1   
@<TRIPOS>SUBSTRUCTURE
     1 100         1 TEMP              0 ****  ****    0 ROOT
