@<TRIPOS>MOLECULE
101
   34    36     1     0     0
SMALL
bcc


@<TRIPOS>ATOM
      1 P          -0.5540    0.0480    0.8280 p5        1 101      1.322900
      2 O1P         0.9390   -0.0710    0.7130 o         1 101     -0.921500
      3 O2P        -1.0220    0.8330    2.0310 o         1 101     -0.921500
      4 O3P        -1.3960   -1.1000    0.3700 o         1 101     -0.921500
      5 O5'        -1.8890    3.5530    2.2740 oh        1 101     -0.671800
      6 C5'        -0.9100    4.1790    1.4880 c3        1 101      0.164400
      7 C4'        -0.9290    3.6730    0.0460 c3        1 101      0.040100
      8 O4'        -0.4100    4.7160   -0.8110 os        1 101     -0.440600
      9 C3'        -0.0780    2.3870   -0.1700 c3        1 101      0.233100
     10 O3'        -0.8500    1.2890   -0.3870 os        1 101     -0.534200
     11 C2'         0.7810    2.7370   -1.4110 c3        1 101     -0.155400
     12 C1'         0.7550    4.2700   -1.4990 c3        1 101      0.244800
     13 N9          1.9520    4.8970   -0.9300 na        1 101     -0.250000
     14 C8          2.5960    4.5390    0.2740 cc        1 101      0.454700
     15 N7          3.6390    5.3300    0.5930 nd        1 101     -0.597100
     16 C5          3.6990    6.2780   -0.4370 ca        1 101     -0.206200
     17 C6          4.5770    7.3730   -0.6980 ca        1 101      0.694200
     18 N6          5.5540    7.7180    0.2380 nh        1 101     -0.930500
     19 N1          4.4100    8.1090   -1.8410 nb        1 101     -0.805000
     20 C2          3.3710    7.7640   -2.6550 ca        1 101      0.640900
     21 N3          2.4580    6.7790   -2.5380 nb        1 101     -0.707000
     22 C4          2.6280    6.0230   -1.4080 ca        1 101      0.439800
     23 HO5'       -1.7140    2.5790    2.2530 ho        1 101      0.506000
     24 H5'1       -1.1570    5.2760    1.5100 h1        1 101      0.005700
     25 H5'2        0.1110    4.0310    1.9350 h1        1 101      0.005700
     26 H3'         0.6030    2.2360    0.7220 h1        1 101      0.055700
     27 H2'1        1.8020    2.3030   -1.3100 hc        1 101      0.069700
     28 H2'2        0.3020    2.3130   -2.3270 hc        1 101      0.069700
     29 H1'         0.6610    4.6650   -2.5520 h2        1 101      0.075700
     30 H8          2.2410    3.6670    0.8570 h5        1 101      0.119800
     31 HN61        5.7850    6.9880    0.8740 hn        1 101      0.406300
     32 HN62        6.3290    8.2380   -0.1050 hn        1 101      0.406300
     33 H2          3.2690    8.3980   -3.5600 h5        1 101      0.027100
     34 H4'        -1.9850    3.4980   -0.2900 h1        1 101      0.080700
@<TRIPOS>BOND
     1    1    2 1   
     2    1    3 1   
     3    1    4 1   
     4    1   10 1   
     5    5    6 1   
     6    5   23 1   
     7    6    7 1   
     8    6   24 1   
     9    6   25 1   
    10    7    8 1   
    11    7    9 1   
    12    7   34 1   
    13    8   12 1   
    14    9   10 1   
    15    9   11 1   
    16    9   26 1   
    17   11   12 1   
    18   11   27 1   
    19   11   28 1   
    20   12   13 1   
    21   12   29 1   
    22   13   14 1   
    23   13   22 1   
    24   14   15 2   
    25   14   30 1   
    26   15   16 1   
    27   16   17 ar  
    28   16   22 ar  
    29   17   18 1   
    30   17   19 ar  
    31   18   31 1   
    32   18   32 1   
    33   19   20 ar  
    34   20   21 ar  
    35   20   33 1   
    36   21   22 ar  
@<TRIPOS>SUBSTRUCTURE
     1 101         1 TEMP              0 ****  ****    0 ROOT
