@<TRIPOS>MOLECULE
101
   34    36     1     0     0
SMALL
bcc


@<TRIPOS>ATOM
      1 P          -0.5350    0.0190    0.7850 p5        1 101      1.322900
      2 O1P         0.9550   -0.0960    0.6360 o         1 101     -0.921500
      3 O2P        -0.9790    0.7810    2.0120 o         1 101     -0.921500
      4 O3P        -1.3850   -1.1210    0.3240 o         1 101     -0.921500
      5 O5'        -1.8420    3.4960    2.3220 oh        1 101     -0.671800
      6 C5'        -0.8800    4.1380    1.5280 c3        1 101      0.164400
      7 C4'        -0.9290    3.6580    0.0780 c3        1 101      0.040100
      8 O4'        -0.4280    4.7170   -0.7710 os        1 101     -0.440600
      9 C3'        -0.0810    2.3770   -0.1790 c3        1 101      0.233100
     10 O3'        -0.8570    1.2830   -0.4000 os        1 101     -0.534200
     11 C2'         0.7520    2.7500   -1.4310 c3        1 101     -0.155400
     12 C1'         0.7230    4.2850   -1.4910 c3        1 101      0.244800
     13 N9          1.9310    4.9020   -0.9350 na        1 101     -0.250000
     14 C8          2.6000    4.5230    0.2500 cc        1 101      0.454700
     15 N7          3.6490    5.3090    0.5610 nd        1 101     -0.597100
     16 C5          3.6860    6.2760   -0.4520 ca        1 101     -0.206200
     17 C6          4.5590    7.3770   -0.7110 ca        1 101      0.694200
     18 N6          5.5540    7.7060    0.2110 nh        1 101     -0.930500
     19 N1          4.3680    8.1330   -1.8360 nb        1 101     -0.805000
     20 C2          3.3120    7.8030   -2.6350 ca        1 101      0.640900
     21 N3          2.4020    6.8150   -2.5170 nb        1 101     -0.707000
     22 C4          2.5960    6.0380   -1.4060 ca        1 101      0.439800
     23 HO5'       -1.6660    2.5230    2.2800 ho        1 101      0.506000
     24 H5'1       -1.1280    5.2340    1.5760 h1        1 101      0.005700
     25 H5'2        0.1500    3.9830    1.9510 h1        1 101      0.005700
     26 H3'         0.6180    2.2110    0.6960 h1        1 101      0.055700
     27 H2'1        0.2550    2.3440   -2.3450 hc        1 101      0.069700
     28 H2'2        1.7750    2.3170   -1.3600 hc        1 101      0.069700
     29 H1'         0.6070    4.6990   -2.5340 h2        1 101      0.075700
     30 H8          2.2580    3.6410    0.8230 h5        1 101      0.119800
     31 HN61        6.3210    8.2320   -0.1380 hn        1 101      0.406300
     32 HN62        5.7990    6.9640    0.8280 hn        1 101      0.406300
     33 H2          3.1910    8.4540   -3.5260 h5        1 101      0.027100
     34 H4'        -1.9920    3.4890   -0.2390 h1        1 101      0.080700
@<TRIPOS>BOND
     1    1    2 1   
     2    1    3 1   
     3    1    4 1   
     4    1   10 1   
     5    5    6 1   
     6    5   23 1   
     7    6    7 1   
     8    6   24 1   
     9    6   25 1   
    10    7    8 1   
    11    7    9 1   
    12    7   34 1   
    13    8   12 1   
    14    9   10 1   
    15    9   11 1   
    16    9   26 1   
    17   11   12 1   
    18   11   27 1   
    19   11   28 1   
    20   12   13 1   
    21   12   29 1   
    22   13   14 1   
    23   13   22 1   
    24   14   15 2   
    25   14   30 1   
    26   15   16 1   
    27   16   17 ar  
    28   16   22 ar  
    29   17   18 1   
    30   17   19 ar  
    31   18   31 1   
    32   18   32 1   
    33   19   20 ar  
    34   20   21 ar  
    35   20   33 1   
    36   21   22 ar  
@<TRIPOS>SUBSTRUCTURE
     1 101         1 TEMP              0 ****  ****    0 ROOT
