@<TRIPOS>MOLECULE
101
   34    36     1     0     0
SMALL
bcc


@<TRIPOS>ATOM
      1 P          -4.2190    0.5390   -0.5500 p5        1 101      1.322900
      2 O1P        -3.4200    1.5800   -1.2820 o         1 101     -0.921500
      3 O2P        -4.1370   -0.8430   -1.1570 o         1 101     -0.921500
      4 O3P        -5.5080    0.9490    0.0860 o         1 101     -0.921500
      5 O5'        -2.5590   -3.1200   -0.4270 oh        1 101     -0.671800
      6 C5'        -1.3280   -2.4870   -0.2010 c3        1 101      0.164400
      7 C4'        -1.4220   -1.4440    0.9120 c3        1 101      0.040100
      8 O4'        -0.1150   -1.3020    1.5160 os        1 101     -0.440600
      9 C3'        -1.8890   -0.0450    0.4120 c3        1 101      0.233100
     10 O3'        -3.1510    0.2520    0.8210 os        1 101     -0.534200
     11 C2'        -0.8450    0.9180    1.0310 c3        1 101     -0.155400
     12 C1'         0.3620    0.0340    1.3780 c3        1 101      0.244800
     13 N9          1.4240    0.0930    0.3690 na        1 101     -0.250000
     14 C8          1.2540    0.0700   -1.0330 cc        1 101      0.454700
     15 N7          2.4100    0.0680   -1.7240 nd        1 101     -0.597100
     16 C5          3.4130    0.0760   -0.7470 ca        1 101     -0.206200
     17 C6          4.8390    0.0950   -0.8200 ca        1 101      0.694200
     18 N6          5.4720   -0.0050   -2.0600 nh        1 101     -0.930500
     19 N1          5.5690    0.1510    0.3380 nb        1 101     -0.805000
     20 C2          4.8740    0.1480    1.5120 ca        1 101      0.640900
     21 N3          3.5450    0.1170    1.7410 nb        1 101     -0.707000
     22 C4          2.8040    0.0820    0.5890 ca        1 101      0.439800
     23 HO5'       -3.2170   -2.4220   -0.6700 ho        1 101      0.506000
     24 H5'1       -0.9490   -2.0100   -1.1460 h1        1 101      0.005700
     25 H5'2       -0.6160   -3.3040    0.1010 h1        1 101      0.005700
     26 H3'        -1.8070   -0.0060   -0.7170 h1        1 101      0.055700
     27 H2'1       -1.2550    1.3570    1.9720 hc        1 101      0.069700
     28 H2'2       -0.6140    1.7460    0.3230 hc        1 101      0.069700
     29 H1'         0.8470    0.2900    2.3640 h2        1 101      0.075700
     30 H8          0.2360    0.0690   -1.4690 h5        1 101      0.119800
     31 HN61        6.4040    0.3370   -2.1070 hn        1 101      0.406300
     32 HN62        4.8940    0.2390   -2.8330 hn        1 101      0.406300
     33 H2          5.5100    0.1800    2.4200 h5        1 101      0.027100
     34 H4'        -2.0980   -1.8080    1.7300 h1        1 101      0.080700
@<TRIPOS>BOND
     1    1    2 1   
     2    1    3 1   
     3    1    4 1   
     4    1   10 1   
     5    5    6 1   
     6    5   23 1   
     7    6    7 1   
     8    6   24 1   
     9    6   25 1   
    10    7    8 1   
    11    7    9 1   
    12    7   34 1   
    13    8   12 1   
    14    9   10 1   
    15    9   11 1   
    16    9   26 1   
    17   11   12 1   
    18   11   27 1   
    19   11   28 1   
    20   12   13 1   
    21   12   29 1   
    22   13   14 1   
    23   13   22 1   
    24   14   15 2   
    25   14   30 1   
    26   15   16 1   
    27   16   17 ar  
    28   16   22 ar  
    29   17   18 1   
    30   17   19 ar  
    31   18   31 1   
    32   18   32 1   
    33   19   20 ar  
    34   20   21 ar  
    35   20   33 1   
    36   21   22 ar  
@<TRIPOS>SUBSTRUCTURE
     1 101         1 TEMP              0 ****  ****    0 ROOT
