@<TRIPOS>MOLECULE
101
   34    31     1     0     0
SMALL
bcc


@<TRIPOS>ATOM
      1 P          -0.8890   -4.4760    0.4580 p4        1 101      1.691200
      2 O1P         0.5320   -4.5930   -0.0340 o         1 101     -0.914500
      3 O2P        -0.8930   -4.3760    1.9890 os        1 101     -1.255000
      4 O3P        -1.6900   -5.7230    0.0230 o         1 101     -0.963300
      5 O5'        -4.0520   -0.0310    1.9280 oh        1 101     -0.671800
      6 C5'        -2.8830   -0.8680    1.8150 c3        1 101      0.164400
      7 C4'        -2.2740   -0.7200    0.4100 c3        1 101      0.040100
      8 O4'        -1.7640    0.4340    0.2760 os        1 101     -0.440600
      9 C3'        -1.0490   -1.7830    0.2240 c3        1 101      0.233100
     10 O3'        -1.5850   -3.1270   -0.1840 os        1 101     -0.534200
     11 C2'        -0.3340   -1.3290   -0.6580 c3        1 101     -0.155400
     12 C1'        -0.5590    0.2210   -0.6060 c3        1 101      0.244800
     13 N9          0.5100    0.8230   -0.0870 n3        1 101     -0.093400
     14 C8          1.0290    0.9730    1.1490 c1        1 101      0.219400
     15 N7          2.0200    1.8810    1.0770 ne        1 101     -0.442400
     16 C5          2.1170    2.2960   -0.2050 cg        1 101     -0.163000
     17 C6          2.9710    3.1800   -0.8260 c1        1 101      0.554600
     18 N6          4.1260    3.8700   -0.4490 n3        1 101     -0.793400
     19 N1          2.8760    3.3940   -2.1530 n1        1 101     -0.604800
     20 C2          1.9380    2.7380   -2.8810 c1        1 101      0.361300
     21 N3          1.0890    1.8600   -2.2700 n1        1 101     -0.506800
     22 C4          1.1840    1.6420   -0.9270 c1        1 101     -0.006300
     23 HO5'       -4.3760   -0.0980    2.7230 ho        1 101      0.506000
     24 H5'1       -3.1390   -1.8200    1.9700 h1        1 101      0.005700
     25 H5'2       -2.2170   -0.5930    2.4910 h1        1 101      0.005700
     26 H4'        -2.9900   -0.8760   -0.3050 h1        1 101      0.080700
     27 H3'        -0.5310   -1.8620    1.0810 h1        1 101      0.055700
     28 H2'1        0.6240   -1.5440   -0.4710 hc        1 101      0.069700
     29 H2'2       -0.6010   -1.6870   -1.5370 hc        1 101      0.069700
     30 H1'        -0.7300    0.5550   -1.4780 h2        1 101      0.075700
     31 H8          0.6930    0.5540    1.9670 DU        1 101      0.249000
     32 HN61        4.5660    4.3750   -1.0520 hn        1 101      0.406300
     33 HN62        4.4600    3.7610    0.3680 hn        1 101      0.406300
     34 H2          1.8200    2.9520   -3.8250 ha        1 101      0.106500
@<TRIPOS>BOND
     1    1    2 1   
     2    1    4 2   
     3    1   10 1   
     4    5    6 1   
     5    5   23 1   
     6    6    7 1   
     7    6   24 1   
     8    6   25 1   
     9    7    8 1   
    10    7    9 1   
    11    7   26 1   
    12    8   12 1   
    13    9   10 1   
    14    9   11 1   
    15    9   27 1   
    16   11   12 1   
    17   11   28 1   
    18   11   29 1   
    19   12   13 1   
    20   12   30 1   
    21   13   14 2   
    22   13   22 1   
    23   14   15 2   
    24   15   16 1   
    25   16   22 3   
    26   17   18 1   
    27   17   19 3   
    28   18   32 1   
    29   18   33 1   
    30   20   21 3   
    31   20   34 1   
@<TRIPOS>SUBSTRUCTURE
     1 101         1 TEMP              0 ****  ****    0 ROOT
