@<TRIPOS>MOLECULE
102
   46    48     1     0     0
SMALL
bcc


@<TRIPOS>ATOM
      1 PG         -4.6480   -0.3500    0.5470 p5        1 102      1.555200
      2 S1G        -5.7110   -1.1880    1.8580 s         1 102     -0.740000
      3 O2G        -3.5820   -1.3060   -0.1450 oh        1 102     -0.811900
      4 O3G        -5.4350    0.0840   -0.7660 oh        1 102     -0.811900
      5 O3B        -3.8120    0.9060    0.8710 os        1 102     -0.798800
      6 PB         -2.8290    2.3380    0.9920 p5        1 102      1.723800
      7 O1B        -3.7630    3.4240    1.2760 o         1 102     -0.872500
      8 O2B        -1.6570    1.9560    1.7960 o         1 102     -0.872500
      9 O3A        -2.3530    2.2860   -0.5540 os        1 102     -0.827800
     10 PA         -2.0020    1.8810   -2.0980 p5        1 102      1.605800
     11 O1A        -2.8230    0.6530   -2.2780 o         1 102     -0.877500
     12 O2A        -1.9450    3.0240   -3.0150 o         1 102     -0.877500
     13 O5'        -0.4360    1.3800   -1.8760 os        1 102     -0.589200
     14 C5'        -0.2420    0.1050   -1.3620 c3        1 102      0.204400
     15 C4'         0.8630    0.0560   -0.2990 c3        1 102      0.090100
     16 O4'         2.1040   -0.2620   -0.9780 os        1 102     -0.417600
     17 C3'         1.0820    1.3490    0.5060 c3        1 102      0.115100
     18 O3'         1.0800    1.0630    1.8910 oh        1 102     -0.675800
     19 C2'         2.4990    1.8260    0.1150 c3        1 102      0.113100
     20 O2'         3.2330    2.4220    1.1490 oh        1 102     -0.594800
     21 C1'         3.1680    0.5540   -0.5060 c3        1 102      0.210800
     22 N9          4.0150   -0.1980    0.4100 na        1 102     -0.180900
     23 C8          3.6960   -0.6470    1.7110 cc        1 102      0.426400
     24 N7          4.6790   -1.3710    2.2850 nd        1 102     -0.624000
     25 C5          5.6910   -1.4220    1.3260 cd        1 102      0.187800
     26 C6          6.9920   -2.0510    1.3630 c         1 102      0.648000
     27 O6          7.5200   -2.7000    2.2830 o         1 102     -0.637500
     28 N1          7.7450   -1.8970    0.1690 n         1 102     -0.501400
     29 C2          7.2730   -1.1560   -0.9340 cd        1 102      0.616800
     30 N2          8.1890   -1.0030   -2.0300 nh        1 102     -0.869800
     31 N3          6.0660   -0.5700   -1.0020 nc        1 102     -0.629100
     32 C4          5.2900   -0.7000    0.1400 cc        1 102      0.083800
     33 HOG2       -3.1580   -0.9810   -0.9500 ho        1 102      0.514000
     34 HOG3       -4.9100    0.4290   -1.4980 ho        1 102      0.514000
     35 H5'1       -1.1940   -0.2760   -0.8950 h1        1 102      0.036200
     36 H5'2        0.0680   -0.5910   -2.1960 h1        1 102      0.036200
     37 H4'         0.6610   -0.8010    0.4020 h1        1 102      0.062700
     38 H3'         0.3210    2.1320    0.2570 h1        1 102      0.127700
     39 HO3'        0.1870    1.2810    2.2240 ho        1 102      0.499000
     40 H2'         2.4360    2.6000   -0.6990 h1        1 102      0.099700
     41 HO2'        2.9590    2.0160    1.9860 ho        1 102      0.426000
     42 H1'         3.7900    0.8090   -1.4130 h2        1 102      0.100700
     43 H8          2.7200   -0.3960    2.1640 h5        1 102      0.107100
     44 HN1         8.6720   -2.2590    0.1600 hn        1 102      0.324500
     45 HN21        8.4330   -1.8900   -2.4240 hn        1 102      0.390300
     46 HN22        7.8250   -0.3900   -2.7340 hn        1 102      0.390300
@<TRIPOS>BOND
     1    1    2 2   
     2    1    3 1   
     3    1    4 1   
     4    1    5 1   
     5    3   33 1   
     6    4   34 1   
     7    5    6 1   
     8    6    7 1   
     9    6    8 1   
    10    6    9 1   
    11    9   10 1   
    12   10   11 1   
    13   10   12 1   
    14   10   13 1   
    15   13   14 1   
    16   14   15 1   
    17   14   35 1   
    18   14   36 1   
    19   15   16 1   
    20   15   17 1   
    21   15   37 1   
    22   16   21 1   
    23   17   18 1   
    24   17   19 1   
    25   17   38 1   
    26   18   39 1   
    27   19   20 1   
    28   19   21 1   
    29   19   40 1   
    30   20   41 1   
    31   21   22 1   
    32   21   42 1   
    33   22   23 1   
    34   22   32 1   
    35   23   24 2   
    36   23   43 1   
    37   24   25 1   
    38   25   26 1   
    39   25   32 2   
    40   26   27 2   
    41   26   28 1   
    42   28   29 1   
    43   28   44 1   
    44   29   30 1   
    45   29   31 2   
    46   30   45 1   
    47   30   46 1   
    48   31   32 1   
@<TRIPOS>SUBSTRUCTURE
     1 102         1 TEMP              0 ****  ****    0 ROOT
