@<TRIPOS>MOLECULE
102
   47    49     1     0     0
SMALL
bcc


@<TRIPOS>ATOM
      1 PG         -0.4410   -0.6400   -2.2070 p5        1 102      1.539200
      2 S1G         0.9420    0.4950   -1.6430 s         1 102     -0.776000
      3 O2G        -1.5650   -0.7110   -1.0810 oh        1 102     -0.774900
      4 O3G        -1.2690   -0.0050   -3.4210 oh        1 102     -0.774900
      5 O3B        -0.2810   -2.0810   -2.6930 os        1 102     -0.762800
      6 PB         -0.2570   -3.6830   -3.3750 p5        1 102      1.688800
      7 O1B        -0.6770   -4.5640   -2.2980 o         1 102     -0.805500
      8 O2B         0.8830   -3.6770   -4.2730 o         1 102     -0.805500
      9 O3A        -1.6370   -3.4270   -4.2990 os        1 102     -0.819800
     10 PA         -2.9490   -3.2180   -5.1220 p5        1 102      1.794500
     11 O1A        -3.3720   -4.2210   -6.0850 o         1 102     -0.848300
     12 O2A        -2.8380   -1.7130   -5.6070 oh        1 102     -0.777400
     13 O5'        -4.0810   -3.0600   -3.9750 os        1 102     -0.605200
     14 C5'        -4.2810   -4.1350   -3.0980 c3        1 102      0.190400
     15 C4'        -5.7290   -4.6330   -3.1190 c3        1 102      0.079100
     16 O4'        -6.5700   -3.6060   -2.5540 os        1 102     -0.405600
     17 C3'        -6.2790   -4.9860   -4.5100 c3        1 102      0.071100
     18 O3'        -7.0270   -6.1860   -4.4960 oh        1 102     -0.586800
     19 C2'        -7.1750   -3.7810   -4.8710 c3        1 102      0.090100
     20 O2'        -8.2500   -4.0830   -5.7150 oh        1 102     -0.567800
     21 C1'        -7.5800   -3.1920   -3.4760 c3        1 102      0.213800
     22 N9         -8.8750   -3.6190   -2.9790 na        1 102     -0.209900
     23 C8         -9.1660   -4.7110   -2.1250 cc        1 102      0.391400
     24 N7        -10.4770   -4.8340   -1.8460 nd        1 102     -0.594000
     25 C5        -11.0900   -3.7850   -2.5320 cd        1 102      0.173800
     26 C6        -12.4820   -3.4000   -2.6180 c         1 102      0.651000
     27 O6        -13.4680   -3.9400   -2.0920 o         1 102     -0.614500
     28 N1        -12.7170   -2.2570   -3.4290 n         1 102     -0.507400
     29 C2        -11.6760   -1.5370   -4.0510 cd        1 102      0.659800
     30 N2        -12.0380   -0.3350   -4.7200 nh        1 102     -0.880800
     31 N3        -10.3710   -1.8840   -4.0050 nc        1 102     -0.645100
     32 C4        -10.1010   -3.0020   -3.2360 cc        1 102      0.118800
     33 HOG2       -1.3650   -0.3290   -0.2280 ho        1 102      0.491500
     34 HOG3       -1.0360    0.8760   -3.7060 ho        1 102      0.491500
     35 H5'1       -4.0540   -3.7750   -2.0530 h1        1 102      0.066700
     36 H5'2       -3.6000   -4.9880   -3.3690 h1        1 102      0.066700
     37 H4'        -5.8070   -5.5140   -2.4220 h1        1 102      0.070700
     38 H3'        -5.4760   -5.1630   -5.2810 h1        1 102      0.159700
     39 HO3'       -7.6490   -6.1400   -3.7560 ho        1 102      0.394000
     40 H2'        -6.5770   -2.9950   -5.4110 h1        1 102      0.116700
     41 HO2'       -8.5440   -4.9860   -5.5240 ho        1 102      0.414000
     42 H1'        -7.5660   -2.0630   -3.4850 h2        1 102      0.116700
     43 H8         -8.3620   -5.3380   -1.7210 h5        1 102      0.070100
     44 HN1       -13.6520   -1.9150   -3.4710 hn        1 102      0.330500
     45 HN21       -2.4720   -1.0790   -4.9900 ho        1 102      0.494000
     46 HN22      -11.2710    0.1030   -5.1900 hn        1 102      0.409300
     47 H23       -12.8430   -0.4250   -5.3010 hn        1 102      0.409300
@<TRIPOS>BOND
     1    1    2 2   
     2    1    3 1   
     3    1    4 1   
     4    1    5 1   
     5    3   33 1   
     6    4   34 1   
     7    5    6 1   
     8    6    7 1   
     9    6    8 1   
    10    6    9 1   
    11    9   10 1   
    12   10   11 2   
    13   10   12 1   
    14   10   13 1   
    15   12   45 1   
    16   13   14 1   
    17   14   15 1   
    18   14   35 1   
    19   14   36 1   
    20   15   16 1   
    21   15   17 1   
    22   15   37 1   
    23   16   21 1   
    24   17   18 1   
    25   17   19 1   
    26   17   38 1   
    27   18   39 1   
    28   19   20 1   
    29   19   21 1   
    30   19   40 1   
    31   20   41 1   
    32   21   22 1   
    33   21   42 1   
    34   22   23 1   
    35   22   32 1   
    36   23   24 2   
    37   23   43 1   
    38   24   25 1   
    39   25   26 1   
    40   25   32 2   
    41   26   27 2   
    42   26   28 1   
    43   28   29 1   
    44   28   44 1   
    45   29   30 1   
    46   29   31 2   
    47   30   46 1   
    48   30   47 1   
    49   31   32 1   
@<TRIPOS>SUBSTRUCTURE
     1 102         1 TEMP              0 ****  ****    0 ROOT
