@<TRIPOS>MOLECULE
102
   46    43     1     0     0
SMALL
bcc


@<TRIPOS>ATOM
      1 PG         -1.0910    6.3510   -4.9170 p4        1 102      1.804800
      2 S1G        -1.8270    7.8230   -3.8920 s         1 102     -0.818000
      3 O2G        -2.1940    5.7960   -5.9160 o         1 102     -0.853000
      4 O3G         0.1600    6.8580   -5.7440 oh        1 102     -0.773400
      5 O3B        -0.6380    5.1920   -3.9300 os        1 102     -0.782800
      6 PB         -1.5090    4.6900   -2.7050 p5        1 102      1.623800
      7 O1B        -2.8320    4.1600   -3.2120 o         1 102     -0.843000
      8 O2B        -1.7560    5.8370   -1.7580 o         1 102     -0.843000
      9 O3A        -0.7340    3.5350   -1.9450 os        1 102     -0.732800
     10 PA         -1.2320    2.0420   -1.8860 p5        1 102      1.569800
     11 O1A        -1.0790    1.4080   -3.2450 o         1 102     -0.866500
     12 O2A        -2.6820    2.0100   -1.4760 o         1 102     -0.866500
     13 O5'        -0.3580    1.2300   -0.8170 os        1 102     -0.570200
     14 C5'         0.1350   -0.0560   -1.1810 c3        1 102      0.218400
     15 C4'         1.2520   -0.4700   -0.2130 c3        1 102      0.078100
     16 O4'         0.6350   -1.2720    1.0330 os        1 102     -0.442600
     17 C3'         2.0650   -1.2770   -0.7960 c3        1 102      0.077100
     18 O3'         3.4410   -1.1090   -0.2450 oh        1 102     -0.601800
     19 C2'         1.5250   -2.6950   -0.4710 c3        1 102      0.069100
     20 O2'         2.5260   -3.4870   -0.0240 oh        1 102     -0.622800
     21 C1'         0.4730   -2.4930    0.6310 c3        1 102      0.239800
     22 N9          0.7070   -3.4190    1.7280 n3        1 102     -0.052400
     23 C8          1.8510   -4.1030    1.9890 c1        1 102      0.162400
     24 N7          1.9440   -4.2670    3.3210 ne        1 102     -0.378400
     25 C5          0.8500   -3.6820    3.8980 cg        1 102     -0.185000
     26 C6          0.4420   -3.5730    5.2200 c1        1 102      0.848900
     27 O6          1.1170   -4.0580    6.1070 o         1 102     -0.601500
     28 N1         -0.7060   -2.9520    5.5170 n2        1 102     -0.805800
     29 C2         -1.4770   -2.4230    4.5180 c1        1 102      0.555600
     30 N2         -2.6270   -1.7510    5.0240 n3        1 102     -0.774400
     31 N3         -1.0780   -2.5280    3.2210 n1        1 102     -0.514800
     32 C4          0.0920   -3.1610    2.9150 c1        1 102     -0.008300
     33 HOG2       -2.2770    6.3530   -6.6050 ho        1 102      0.362000
     34 HOG3        0.2700    7.7290   -5.6100 ho        1 102      0.472000
     35 H5'1       -0.5950   -0.7100   -1.1380 h1        1 102      0.022200
     36 H5'2        0.4890   -0.0220   -2.0920 h1        1 102      0.022200
     37 H4'         1.7370    0.3280    0.1060 h1        1 102      0.062700
     38 H3'         2.0620   -1.1240   -1.7650 h1        1 102      0.179700
     39 HO3'        3.8030   -0.3730   -0.5750 ho        1 102      0.380000
     40 H2'         1.1120   -3.0890   -1.2630 h1        1 102      0.159700
     41 HO2'        2.7200   -4.1040   -0.6460 ho        1 102      0.427000
     42 H1'        -0.4200   -2.6130    0.2720 h2        1 102      0.105700
     43 H8          2.6970   -4.5440    1.8150 DU        1 102      0.222000
     44 HN1        -1.0020   -2.9270    6.3830 hn        1 102      0.483400
     45 HN21       -3.4000   -1.7380    4.5360 hn        1 102      0.395300
     46 HN22       -2.5890   -1.3220    5.8330 hn        1 102      0.395300
@<TRIPOS>BOND
     1    1    2 2   
     2    1    4 1   
     3    1    5 1   
     4    3   33 1   
     5    4   34 1   
     6    5    6 1   
     7    6    7 1   
     8    6    8 1   
     9    6    9 1   
    10    9   10 1   
    11   10   11 1   
    12   10   12 1   
    13   10   13 1   
    14   13   14 1   
    15   14   15 1   
    16   14   35 1   
    17   14   36 1   
    18   15   16 1   
    19   15   17 1   
    20   15   37 1   
    21   16   21 1   
    22   17   18 1   
    23   17   19 1   
    24   17   38 1   
    25   18   39 1   
    26   19   20 1   
    27   19   21 1   
    28   19   40 1   
    29   20   41 1   
    30   21   22 1   
    31   21   42 1   
    32   22   23 2   
    33   22   32 1   
    34   23   24 2   
    35   24   25 1   
    36   25   32 3   
    37   26   27 2   
    38   26   28 2   
    39   28   44 1   
    40   29   30 1   
    41   29   31 3   
    42   30   45 1   
    43   30   46 1   
@<TRIPOS>SUBSTRUCTURE
     1 102         1 TEMP              0 ****  ****    0 ROOT
