@<TRIPOS>MOLECULE
102
   46    48     1     0     0
SMALL
bcc


@<TRIPOS>ATOM
      1 PG         -0.2010   -2.0200   -1.5560 p5        1 102      1.556200
      2 S1G         0.6370   -1.8710    0.1250 s         1 102     -0.739000
      3 O2G        -1.2960   -0.9030   -1.8490 oh        1 102     -0.811400
      4 O3G         0.7480   -1.7260   -2.7990 oh        1 102     -0.811400
      5 O3B        -0.9270   -3.3140   -1.9840 os        1 102     -0.798800
      6 PB         -1.7740   -4.6680   -2.6710 p5        1 102      1.720800
      7 O1B        -0.7640   -5.7030   -2.8690 o         1 102     -0.870000
      8 O2B        -3.0080   -4.7970   -1.8790 o         1 102     -0.870000
      9 O3A        -2.1570   -3.8920   -4.0380 os        1 102     -0.829800
     10 PA         -2.3310   -2.8260   -5.2720 p5        1 102      1.602800
     11 O1A        -1.6230   -1.6330   -4.7340 o         1 102     -0.875500
     12 O2A        -2.1440   -3.4160   -6.6000 o         1 102     -0.875500
     13 O5'        -3.9520   -2.5400   -5.1070 os        1 102     -0.588200
     14 C5'        -4.3620   -1.7240   -4.0600 c3        1 102      0.200400
     15 C4'        -5.5350   -2.3310   -3.2790 c3        1 102      0.092100
     16 O4'        -6.7510   -2.0400   -4.0100 os        1 102     -0.417600
     17 C3'        -5.4460   -3.8520   -3.0800 c3        1 102      0.102100
     18 O3'        -5.7680   -4.1850   -1.7430 oh        1 102     -0.670800
     19 C2'        -6.5390   -4.4280   -4.0050 c3        1 102      0.112100
     20 O2'        -7.1650   -5.5880   -3.5290 oh        1 102     -0.594800
     21 C1'        -7.5110   -3.2210   -4.2360 c3        1 102      0.211800
     22 N9         -8.6930   -3.2190   -3.3820 na        1 102     -0.176900
     23 C8         -8.7380   -3.2940   -1.9730 cc        1 102      0.427400
     24 N7         -9.9900   -3.2350   -1.4710 nd        1 102     -0.628000
     25 C5        -10.8160   -3.1090   -2.5880 cd        1 102      0.186800
     26 C6        -12.2540   -2.9990   -2.6900 c         1 102      0.647000
     27 O6        -13.1010   -2.9920   -1.7800 o         1 102     -0.640500
     28 N1        -12.7360   -2.8980   -4.0210 ns        1 102     -0.500400
     29 C2        -11.8760   -2.8690   -5.1380 cd        1 102      0.613800
     30 N2        -12.5070   -2.6580   -6.4120 nv        1 102     -0.869800
     31 N3        -10.5390   -2.9860   -5.0770 nc        1 102     -0.626100
     32 C4        -10.0200   -3.0880   -3.7960 cc        1 102      0.082800
     33 HOG2       -1.6110   -0.8260   -2.7580 ho        1 102      0.514000
     34 HOG3        0.3350   -1.6990   -3.6690 ho        1 102      0.514000
     35 H5'1       -4.7130   -0.7360   -4.4780 h1        1 102      0.035200
     36 H5'2       -3.5110   -1.5480   -3.3430 h1        1 102      0.035200
     37 H4'        -5.6360   -1.8070   -2.2890 h1        1 102      0.062700
     38 H3'        -4.4230   -4.2480   -3.3460 h1        1 102      0.145700
     39 HO3'       -4.9420   -4.4930   -1.3260 ho        1 102      0.488000
     40 H2'        -6.0980   -4.6990   -5.0040 h1        1 102      0.107700
     41 HO2'       -7.1550   -5.5560   -2.5600 ho        1 102      0.424000
     42 H1'        -7.8640   -3.1680   -5.3060 h2        1 102      0.101700
     43 H8         -7.8060   -3.4010   -1.3910 h5        1 102      0.105100
     44 HN1       -13.7120   -2.7510   -4.1460 hn        1 102      0.324500
     45 HN21      -13.1190   -3.4150   -6.6400 hn        1 102      0.389300
     46 HN22      -11.8310   -2.5180   -7.1390 hn        1 102      0.389300
@<TRIPOS>BOND
     1    1    2 2   
     2    1    3 1   
     3    1    4 1   
     4    1    5 1   
     5    3   33 1   
     6    4   34 1   
     7    5    6 1   
     8    6    7 1   
     9    6    8 1   
    10    6    9 1   
    11    9   10 1   
    12   10   11 1   
    13   10   12 1   
    14   10   13 1   
    15   13   14 1   
    16   14   15 1   
    17   14   35 1   
    18   14   36 1   
    19   15   16 1   
    20   15   17 1   
    21   15   37 1   
    22   16   21 1   
    23   17   18 1   
    24   17   19 1   
    25   17   38 1   
    26   18   39 1   
    27   19   20 1   
    28   19   21 1   
    29   19   40 1   
    30   20   41 1   
    31   21   22 1   
    32   21   42 1   
    33   22   23 1   
    34   22   32 1   
    35   23   24 2   
    36   23   43 1   
    37   24   25 1   
    38   25   26 1   
    39   25   32 2   
    40   26   27 2   
    41   26   28 1   
    42   28   29 1   
    43   28   44 1   
    44   29   30 1   
    45   29   31 2   
    46   30   45 1   
    47   30   46 1   
    48   31   32 1   
@<TRIPOS>SUBSTRUCTURE
     1 102         1 TEMP              0 ****  ****    0 ROOT
