@<TRIPOS>MOLECULE
103
   33    35     1     0     0
SMALL
bcc


@<TRIPOS>ATOM
      1 P           0.6050    0.8720    0.7560 p5        1 103      1.308900
      2 O1P         1.8850    1.5610    0.3570 o         1 103     -0.923500
      3 O2P        -0.0760    1.3270    2.0090 o         1 103     -0.923500
      4 O3P         0.5540   -0.5920    0.4150 o         1 103     -0.923500
      5 C5'         1.9540    2.5450   -2.6760 c3        1 103     -0.119100
      6 C4'         0.4550    2.4240   -2.5770 c3        1 103      0.083100
      7 O4'        -0.1230    2.3210   -3.9040 os        1 103     -0.450600
      8 C3'         0.0210    1.1730   -1.7500 c3        1 103      0.239100
      9 O3'        -0.4430    1.5080   -0.5200 os        1 103     -0.531200
     10 C2'        -1.0810    0.5380   -2.6350 c3        1 103     -0.156400
     11 C1'        -0.8360    1.0980   -4.0460 c3        1 103      0.245800
     12 N9         -0.0860    0.1740   -4.9060 na        1 103     -0.248000
     13 C8          1.0810   -0.5370   -4.5540 cc        1 103      0.457700
     14 N7          1.6090   -1.2560   -5.5640 nd        1 103     -0.600100
     15 C5          0.7680   -1.0100   -6.6570 ca        1 103     -0.205200
     16 C6          0.7670   -1.4800   -8.0050 ca        1 103      0.691200
     17 N6          1.8180   -2.2790   -8.4640 nh        1 103     -0.928500
     18 N1         -0.2370   -1.0910   -8.8510 nb        1 103     -0.805000
     19 C2         -1.1720   -0.2320   -8.3500 ca        1 103      0.638900
     20 N3         -1.2960    0.3050   -7.1200 nb        1 103     -0.707000
     21 C4         -0.3080   -0.0940   -6.2590 ca        1 103      0.436800
     22 H5'1        2.2470    3.5180   -3.1380 hc        1 103      0.046700
     23 H5'2        2.3680    2.4670   -1.6290 hc        1 103      0.046700
     24 H5'3        2.3780    1.7210   -3.2990 hc        1 103      0.046700
     25 H3'         0.8950    0.4580   -1.6770 h1        1 103      0.053700
     26 H2'1       -1.0370   -0.5730   -2.5760 hc        1 103      0.065200
     27 H2'2       -2.0850    0.8750   -2.2820 hc        1 103      0.065200
     28 H1'        -1.7830    1.3510   -4.6050 h2        1 103      0.071700
     29 H8          1.4730   -0.4820   -3.5200 h5        1 103      0.120800
     30 HN61        2.3260   -2.7340   -7.7390 hn        1 103      0.404800
     31 HN62        1.6230   -2.8460   -9.2560 hn        1 103      0.404800
     32 H2         -1.9560    0.0640   -9.0770 h5        1 103      0.026100
     33 H4'         0.0040    3.3510   -2.1330 h1        1 103      0.066700
@<TRIPOS>BOND
     1    1    2 1   
     2    1    3 1   
     3    1    4 1   
     4    1    9 1   
     5    5    6 1   
     6    5   22 1   
     7    5   23 1   
     8    5   24 1   
     9    6    7 1   
    10    6    8 1   
    11    6   33 1   
    12    7   11 1   
    13    8    9 1   
    14    8   10 1   
    15    8   25 1   
    16   10   11 1   
    17   10   26 1   
    18   10   27 1   
    19   11   12 1   
    20   11   28 1   
    21   12   13 1   
    22   12   21 1   
    23   13   14 2   
    24   13   29 1   
    25   14   15 1   
    26   15   16 ar  
    27   15   21 ar  
    28   16   17 1   
    29   16   18 ar  
    30   17   30 1   
    31   17   31 1   
    32   18   19 ar  
    33   19   20 ar  
    34   19   32 1   
    35   20   21 ar  
@<TRIPOS>SUBSTRUCTURE
     1 103         1 TEMP              0 ****  ****    0 ROOT
