@<TRIPOS>MOLECULE
103
   33    30     1     0     0
SMALL
bcc


@<TRIPOS>ATOM
      1 P          -1.8960    2.5460    3.6100 p4        1 103      1.677200
      2 O1P        -1.3010    1.4470    4.4570 o         1 103     -0.932000
      3 O2P        -3.3530    2.7230    3.9670 os        1 103     -1.226000
      4 O3P        -1.1540    3.8370    3.8650 o         1 103     -0.980800
      5 C5'         0.8200    3.4650    0.3060 c3        1 103     -0.119100
      6 C4'        -0.2870    2.4150    0.2000 c3        1 103      0.083100
      7 O4'         0.0910    1.4430   -0.5470 os        1 103     -0.450600
      8 C3'        -0.5640    1.7660    1.6130 c3        1 103      0.239100
      9 O3'        -1.7710    2.1590    2.0820 os        1 103     -0.531200
     10 C2'        -0.5520    0.2830    1.3840 c3        1 103     -0.156400
     11 C1'        -0.5770    0.1370    0.0590 c3        1 103      0.245800
     12 N9          0.1600   -1.0010   -0.3150 n3        1 103     -0.091400
     13 C8          0.8540   -1.7990    0.5260 c1        1 103      0.222400
     14 N7          1.3060   -2.8590   -0.1810 ne        1 103     -0.445400
     15 C5          0.8900   -2.7160   -1.4670 cg        1 103     -0.162000
     16 C6          1.0690   -3.5010   -2.5950 c1        1 103      0.551600
     17 N6          1.8400   -4.6870   -2.7010 n3        1 103     -0.791400
     18 N1          0.5390   -3.1210   -3.7680 n1        1 103     -0.604800
     19 C2         -0.1760   -1.9610   -3.8510 c1        1 103      0.359300
     20 N3         -0.3530   -1.1870   -2.7430 n1        1 103     -0.506800
     21 C4          0.1830   -1.5700   -1.5500 c1        1 103     -0.009300
     22 H5'1        1.5400    3.1240    0.8770 hc        1 103      0.046700
     23 H5'2        1.1760    3.6560   -0.5880 hc        1 103      0.046700
     24 H5'3        0.4550    4.2870    0.6950 hc        1 103      0.046700
     25 H4'        -1.1060    2.8180   -0.1540 h1        1 103      0.066700
     26 H3'         0.1410    2.0160    2.2430 h1        1 103      0.053700
     27 H2'1        0.2630   -0.1120    1.7550 hc        1 103      0.065200
     28 H2'2       -1.3450   -0.1300    1.7870 hc        1 103      0.065200
     29 H1'        -1.5020    0.0560   -0.2530 h2        1 103      0.071700
     30 H8          1.0080   -1.6350    1.4760 DU        1 103      0.250000
     31 HN61        2.0400   -5.0300   -3.5240 hn        1 103      0.404800
     32 HN62        2.1330   -5.1110   -1.9440 hn        1 103      0.404800
     33 H2         -0.5730   -1.7590   -4.7220 ha        1 103      0.105500
@<TRIPOS>BOND
     1    1    2 1   
     2    1    4 2   
     3    1    9 1   
     4    5    6 1   
     5    5   22 1   
     6    5   23 1   
     7    5   24 1   
     8    6    7 1   
     9    6    8 1   
    10    6   25 1   
    11    7   11 1   
    12    8    9 1   
    13    8   10 1   
    14    8   26 1   
    15   10   11 1   
    16   10   27 1   
    17   10   28 1   
    18   11   12 1   
    19   11   29 1   
    20   12   13 2   
    21   12   21 1   
    22   13   14 2   
    23   14   15 1   
    24   15   21 3   
    25   16   17 1   
    26   16   18 3   
    27   17   31 1   
    28   17   32 1   
    29   19   20 3   
    30   19   33 1   
@<TRIPOS>SUBSTRUCTURE
     1 103         1 TEMP              0 ****  ****    0 ROOT
