@<TRIPOS>MOLECULE
103
   33    35     1     0     0
SMALL
bcc


@<TRIPOS>ATOM
      1 P          -0.3890    0.5350   -4.3720 p5        1 103      1.308900
      2 O1P         0.6640    1.5910   -4.1530 o         1 103     -0.923500
      3 O2P        -0.4340   -0.1450   -5.7050 o         1 103     -0.923500
      4 O3P        -1.6910    0.7990   -3.6680 o         1 103     -0.923500
      5 C5'         2.3520    1.2240   -1.4710 c3        1 103     -0.119100
      6 C4'         1.8530   -0.1970   -1.5480 c3        1 103      0.083100
      7 O4'         1.9440   -0.8250   -0.2420 os        1 103     -0.450600
      8 C3'         0.3710   -0.2730   -2.0300 c3        1 103      0.239100
      9 O3'         0.2710   -0.7160   -3.3090 os        1 103     -0.531200
     10 C2'        -0.2730   -1.2570   -1.0210 c3        1 103     -0.156400
     11 C1'         0.6600   -1.2460    0.2020 c3        1 103      0.245800
     12 N9          0.1850   -0.3640    1.2750 na        1 103     -0.248000
     13 C8         -0.2890    0.9570    1.1260 cc        1 103      0.457700
     14 N7         -0.5890    1.5660    2.2900 nd        1 103     -0.600100
     15 C5         -0.2900    0.6190    3.2780 ca        1 103     -0.205200
     16 C6         -0.4000    0.6340    4.7010 ca        1 103      0.691200
     17 N6         -0.7840    1.8060    5.3560 nh        1 103     -0.928500
     18 N1         -0.0670   -0.4890    5.4110 nb        1 103     -0.805000
     19 C2          0.3910   -1.5600    4.7010 ca        1 103      0.638900
     20 N3          0.5620   -1.7200    3.3730 nb        1 103     -0.707000
     21 C4          0.2130   -0.6100    2.6500 ca        1 103      0.436800
     22 H5'1        3.4490    1.2520   -1.2710 hc        1 103      0.046700
     23 H5'2        2.1200    1.7150   -2.4600 hc        1 103      0.046700
     24 H5'3        1.8330    1.7820   -0.6550 hc        1 103      0.046700
     25 H3'        -0.1080    0.7450   -1.9110 h1        1 103      0.053700
     26 H2'1       -0.2840   -2.2850   -1.4560 hc        1 103      0.065200
     27 H2'2       -1.3190   -0.9540   -0.7930 hc        1 103      0.065200
     28 H1'         0.8080   -2.2610    0.6700 h2        1 103      0.071700
     29 H8         -0.3980    1.3970    0.1150 h5        1 103      0.120800
     30 HN61       -1.1680    1.6940    6.2660 hn        1 103      0.404800
     31 HN62       -1.2680    2.4540    4.7750 hn        1 103      0.404800
     32 H2          0.6600   -2.4390    5.3220 h5        1 103      0.026100
     33 H4'         2.5060   -0.8180   -2.2170 h1        1 103      0.066700
@<TRIPOS>BOND
     1    1    2 1   
     2    1    3 1   
     3    1    4 1   
     4    1    9 1   
     5    5    6 1   
     6    5   22 1   
     7    5   23 1   
     8    5   24 1   
     9    6    7 1   
    10    6    8 1   
    11    6   33 1   
    12    7   11 1   
    13    8    9 1   
    14    8   10 1   
    15    8   25 1   
    16   10   11 1   
    17   10   26 1   
    18   10   27 1   
    19   11   12 1   
    20   11   28 1   
    21   12   13 1   
    22   12   21 1   
    23   13   14 2   
    24   13   29 1   
    25   14   15 1   
    26   15   16 ar  
    27   15   21 ar  
    28   16   17 1   
    29   16   18 ar  
    30   17   30 1   
    31   17   31 1   
    32   18   19 ar  
    33   19   20 ar  
    34   19   32 1   
    35   20   21 ar  
@<TRIPOS>SUBSTRUCTURE
     1 103         1 TEMP              0 ****  ****    0 ROOT
