@<TRIPOS>MOLECULE
103
   33    35     1     0     0
SMALL
bcc


@<TRIPOS>ATOM
      1 P           0.6670    0.9300    0.7470 p5        1 103      1.308900
      2 O1P         1.9390    1.6190    0.3230 o         1 103     -0.923500
      3 O2P         0.0000    1.3980    2.0030 o         1 103     -0.923500
      4 O3P         0.6150   -0.5370    0.4240 o         1 103     -0.923500
      5 C5'         1.9660    2.5660   -2.7230 c3        1 103     -0.119100
      6 C4'         0.4680    2.4420   -2.6020 c3        1 103      0.083100
      7 O4'        -0.1270    2.3210   -3.9210 os        1 103     -0.450600
      8 C3'         0.0490    1.2000   -1.7550 c3        1 103      0.239100
      9 O3'        -0.4000    1.5480   -0.5230 os        1 103     -0.531200
     10 C2'        -1.0630    0.5500   -2.6180 c3        1 103     -0.156400
     11 C1'        -0.8380    1.0950   -4.0380 c3        1 103      0.245800
     12 N9         -0.0960    0.1630   -4.8970 na        1 103     -0.248000
     13 C8          1.0770   -0.5410   -4.5520 cc        1 103      0.457700
     14 N7          1.5940   -1.2710   -5.5600 nd        1 103     -0.600100
     15 C5          0.7390   -1.0400   -6.6450 ca        1 103     -0.205200
     16 C6          0.7220   -1.5260   -7.9870 ca        1 103      0.691200
     17 N6          1.7700   -2.3270   -8.4500 nv        1 103     -0.928500
     18 N1         -0.2940   -1.1500   -8.8250 nb        1 103     -0.805000
     19 C2         -1.2250   -0.2880   -8.3220 ca        1 103      0.638900
     20 N3         -1.3350    0.2630   -7.0960 nb        1 103     -0.707000
     21 C4         -0.3350   -0.1230   -6.2440 ca        1 103      0.437800
     22 H5'1        2.3930    2.5020   -1.6800 hc        1 103      0.046700
     23 H5'2        2.2490    3.5340   -3.2000 hc        1 103      0.046700
     24 H5'3        2.3840    1.7360   -3.3410 hc        1 103      0.046700
     25 H3'         0.9260    0.4880   -1.6850 h1        1 103      0.053700
     26 H2'1       -1.0140   -0.5590   -2.5460 hc        1 103      0.065200
     27 H2'2       -2.0630    0.8890   -2.2560 hc        1 103      0.065200
     28 H1'        -1.7930    1.3380   -4.5880 h2        1 103      0.071700
     29 H8          1.4830   -0.4730   -3.5240 h5        1 103      0.120800
     30 HN61        1.5660   -2.9050   -9.2330 hn        1 103      0.404800
     31 HN62        2.2880   -2.7720   -7.7260 hn        1 103      0.404800
     32 H2         -2.0190   -0.0030   -9.0420 h5        1 103      0.026100
     33 H4'         0.0200    3.3730   -2.1640 h1        1 103      0.066700
@<TRIPOS>BOND
     1    1    2 1   
     2    1    3 1   
     3    1    4 1   
     4    1    9 1   
     5    5    6 1   
     6    5   22 1   
     7    5   23 1   
     8    5   24 1   
     9    6    7 1   
    10    6    8 1   
    11    6   33 1   
    12    7   11 1   
    13    8    9 1   
    14    8   10 1   
    15    8   25 1   
    16   10   11 1   
    17   10   26 1   
    18   10   27 1   
    19   11   12 1   
    20   11   28 1   
    21   12   13 1   
    22   12   21 1   
    23   13   14 2   
    24   13   29 1   
    25   14   15 1   
    26   15   16 ar  
    27   15   21 ar  
    28   16   17 1   
    29   16   18 ar  
    30   17   30 1   
    31   17   31 1   
    32   18   19 ar  
    33   19   20 ar  
    34   19   32 1   
    35   20   21 ar  
@<TRIPOS>SUBSTRUCTURE
     1 103         1 TEMP              0 ****  ****    0 ROOT
