@<TRIPOS>MOLECULE
103
   33    35     1     0     0
SMALL
bcc


@<TRIPOS>ATOM
      1 P           0.6730    0.9030    0.7490 p5        1 103      1.308900
      2 O1P         1.9420    1.5980    0.3270 o         1 103     -0.923500
      3 O2P         0.0070    1.3620    2.0090 o         1 103     -0.923500
      4 O3P         0.6250   -0.5630    0.4180 o         1 103     -0.923500
      5 C5'         1.9620    2.5630   -2.7130 c3        1 103     -0.119100
      6 C4'         0.4650    2.4340   -2.5910 c3        1 103      0.083100
      7 O4'        -0.1320    2.3180   -3.9090 os        1 103     -0.450600
      8 C3'         0.0500    1.1850   -1.7500 c3        1 103      0.239100
      9 O3'        -0.3980    1.5250   -0.5150 os        1 103     -0.531200
     10 C2'        -1.0610    0.5380   -2.6150 c3        1 103     -0.156400
     11 C1'        -0.8400    1.0910   -4.0330 c3        1 103      0.245800
     12 N9         -0.0970    0.1660   -4.8980 na        1 103     -0.248000
     13 C8          1.0800   -0.5360   -4.5590 cc        1 103      0.457700
     14 N7          1.5970   -1.2580   -5.5720 nd        1 103     -0.600100
     15 C5          0.7400   -1.0240   -6.6540 ca        1 103     -0.205200
     16 C6          0.7220   -1.5020   -7.9990 ca        1 103      0.691200
     17 N6          1.7710   -2.2980   -8.4680 nh        1 103     -0.928500
     18 N1         -0.2970   -1.1250   -8.8320 nb        1 103     -0.805000
     19 C2         -1.2300   -0.2690   -8.3230 ca        1 103      0.638900
     20 N3         -1.3400    0.2750   -7.0950 nb        1 103     -0.707000
     21 C4         -0.3370   -0.1120   -6.2460 ca        1 103      0.436800
     22 H5'1        2.2420    3.5340   -3.1840 hc        1 103      0.046700
     23 H5'2        2.3810    1.7380   -3.3370 hc        1 103      0.046700
     24 H5'3        2.3910    2.4940   -1.6710 hc        1 103      0.046700
     25 H3'         0.9300    0.4760   -1.6850 h1        1 103      0.053700
     26 H2'1       -2.0620    0.8710   -2.2490 hc        1 103      0.065200
     27 H2'2       -1.0080   -0.5720   -2.5500 hc        1 103      0.065200
     28 H1'        -1.7960    1.3340   -4.5790 h2        1 103      0.071700
     29 H8          1.4870   -0.4720   -3.5310 h5        1 103      0.120800
     30 HN61        1.5680   -2.8710   -9.2540 hn        1 103      0.404800
     31 HN62        2.2920   -2.7450   -7.7470 hn        1 103      0.404800
     32 H2         -2.0260    0.0180   -9.0410 h5        1 103      0.026100
     33 H4'         0.0140    3.3610   -2.1460 h1        1 103      0.066700
@<TRIPOS>BOND
     1    1    2 1   
     2    1    3 1   
     3    1    4 1   
     4    1    9 1   
     5    5    6 1   
     6    5   22 1   
     7    5   23 1   
     8    5   24 1   
     9    6    7 1   
    10    6    8 1   
    11    6   33 1   
    12    7   11 1   
    13    8    9 1   
    14    8   10 1   
    15    8   25 1   
    16   10   11 1   
    17   10   26 1   
    18   10   27 1   
    19   11   12 1   
    20   11   28 1   
    21   12   13 1   
    22   12   21 1   
    23   13   14 2   
    24   13   29 1   
    25   14   15 1   
    26   15   16 ar  
    27   15   21 ar  
    28   16   17 1   
    29   16   18 ar  
    30   17   30 1   
    31   17   31 1   
    32   18   19 ar  
    33   19   20 ar  
    34   19   32 1   
    35   20   21 ar  
@<TRIPOS>SUBSTRUCTURE
     1 103         1 TEMP              0 ****  ****    0 ROOT
