@<TRIPOS>MOLECULE
104
   28    27     1     0     0
SMALL
bcc


@<TRIPOS>ATOM
      1 N1         -4.5920   -0.5240   -2.7440 n3        1 104     -0.915800
      2 C2         -3.1610   -0.5240   -2.7440 c3        1 104      0.152800
      3 C3         -2.6530   -0.5240   -1.3080 c3        1 104      0.159800
      4 N4         -1.2110   -0.5330   -1.3080 n3        1 104     -0.824200
      5 C5         -0.7280   -0.3270    0.0370 c3        1 104      0.160800
      6 C6          0.7910   -0.1180    0.0080 c3        1 104      0.160800
      7 N7          1.2740    0.0860    1.3540 n3        1 104     -0.824200
      8 C8          2.6570    0.4900    1.3120 c3        1 104      0.159800
      9 C9          3.1060    0.9110    2.7050 c3        1 104      0.152800
     10 N10         4.4830    1.3010    2.6650 n3        1 104     -0.915800
     11 H11        -4.8960   -1.2500   -3.2040 hn        1 104      0.350800
     12 H12        -4.8960    0.2380   -3.1430 hn        1 104      0.350800
     13 H21        -2.8350   -1.3210   -3.2040 h1        1 104      0.032200
     14 H22        -2.8350    0.2730   -3.2040 h1        1 104      0.032200
     15 H31        -2.9730    0.2760   -0.8500 h1        1 104      0.037200
     16 H32        -2.9830   -1.3180   -0.8460 h1        1 104      0.037200
     17 HN4        -0.9120   -1.3370   -1.6190 hn        1 104      0.354800
     18 H51        -1.1570    0.4620    0.4190 h1        1 104      0.036200
     19 H52        -0.9390   -1.1090    0.5820 h1        1 104      0.036200
     20 H61         1.0010    0.6650   -0.5350 h1        1 104      0.036200
     21 H62         1.2200   -0.9060   -0.3760 h1        1 104      0.036200
     22 HN7         1.1980   -0.6910    1.8250 hn        1 104      0.354800
     23 H81         3.2050   -0.2570    1.0060 h1        1 104      0.037200
     24 H82         2.7580    1.2410    0.6970 h1        1 104      0.037200
     25 H91         2.5630    1.6640    3.0080 h1        1 104      0.032200
     26 H92         2.9970    0.1630    3.3220 h1        1 104      0.032200
     27 H101        4.9600    0.7900    3.2500 hn        1 104      0.350800
     28 H102        4.5570    2.1800    2.8970 hn        1 104      0.350800
@<TRIPOS>BOND
     1    1    2 1   
     2    1   11 1   
     3    1   12 1   
     4    2    3 1   
     5    2   13 1   
     6    2   14 1   
     7    3    4 1   
     8    3   15 1   
     9    3   16 1   
    10    4    5 1   
    11    4   17 1   
    12    5    6 1   
    13    5   18 1   
    14    5   19 1   
    15    6    7 1   
    16    6   20 1   
    17    6   21 1   
    18    7    8 1   
    19    7   22 1   
    20    8    9 1   
    21    8   23 1   
    22    8   24 1   
    23    9   10 1   
    24    9   25 1   
    25    9   26 1   
    26   10   27 1   
    27   10   28 1   
@<TRIPOS>SUBSTRUCTURE
     1 104         1 TEMP              0 ****  ****    0 ROOT
