@<TRIPOS>MOLECULE
104
   32    31     1     0     0
SMALL
bcc


@<TRIPOS>ATOM
      1 N1         -0.1790    0.0000   -0.1510 n4        1 104     -0.836600
      2 C2          1.3050    0.0000   -0.0680 c3        1 104      0.077800
      3 C3          1.8440    0.0000    1.3870 c3        1 104      0.081800
      4 N4          3.3490   -0.0000    1.4320 n4        1 104     -0.759000
      5 C5          3.8600   -0.0000    2.8430 c3        1 104      0.082800
      6 C6          5.4130   -0.0010    2.9230 c3        1 104      0.082800
      7 N7          5.9230   -0.0000    4.3350 n4        1 104     -0.759000
      8 C8          7.4290   -0.0010    4.3790 c3        1 104      0.081800
      9 C9          7.9680   -0.0000    5.8340 c3        1 104      0.077800
     10 N10         9.4520   -0.0010    5.9180 n4        1 104     -0.836600
     11 H11        -0.4570    0.0000   -1.1540 hn        1 104      0.502467
     12 H12        -0.5870    0.8390    0.2890 hn        1 104      0.502467
     13 H21         1.6730   -0.9200   -0.6210 hx        1 104      0.148700
     14 H22         1.6730    0.9190   -0.6210 hx        1 104      0.148700
     15 H31         1.4820    0.9210    1.9380 hx        1 104      0.145700
     16 H32         1.4810   -0.9200    1.9380 hx        1 104      0.145700
     17 HN4         3.7010    0.8350    0.9360 hn        1 104      0.482800
     18 H51         3.4430   -0.9200    3.3570 hx        1 104      0.145700
     19 H52         3.4440    0.9200    3.3570 hx        1 104      0.145700
     20 H61         5.8290    0.9190    2.4090 hx        1 104      0.145700
     21 H62         5.8290   -0.9210    2.4100 hx        1 104      0.145700
     22 HN7         5.5710   -0.8360    4.8310 hn        1 104      0.482800
     23 H81         7.7920    0.9190    3.8280 hx        1 104      0.145700
     24 H82         7.7910   -0.9220    3.8290 hx        1 104      0.145700
     25 H91         7.6000    0.9200    6.3870 hx        1 104      0.148700
     26 H92         7.5990   -0.9190    6.3880 hx        1 104      0.148700
     27 H101        9.7300   -0.0010    6.9200 hn        1 104      0.502467
     28 H102        9.8600    0.8370    5.4770 hn        1 104      0.502467
     29 H13        -0.5880   -0.8380    0.2890 hn        1 104      0.502467
     30 H42         3.7010   -0.8360    0.9370 hn        1 104      0.482800
     31 H72         5.5720    0.8360    4.8300 hn        1 104      0.482800
     32 H103        9.8590   -0.8400    5.4780 hn        1 104      0.502467
@<TRIPOS>BOND
     1    1    2 1   
     2    1   11 1   
     3    1   12 1   
     4    1   29 1   
     5    2    3 1   
     6    2   13 1   
     7    2   14 1   
     8    3    4 1   
     9    3   15 1   
    10    3   16 1   
    11    4    5 1   
    12    4   17 1   
    13    4   30 1   
    14    5    6 1   
    15    5   18 1   
    16    5   19 1   
    17    6    7 1   
    18    6   20 1   
    19    6   21 1   
    20    7    8 1   
    21    7   22 1   
    22    7   31 1   
    23    8    9 1   
    24    8   23 1   
    25    8   24 1   
    26    9   10 1   
    27    9   25 1   
    28    9   26 1   
    29   10   27 1   
    30   10   28 1   
    31   10   32 1   
@<TRIPOS>SUBSTRUCTURE
     1 104         1 TEMP              0 ****  ****    0 ROOT
