@<TRIPOS>MOLECULE
104
   28    27     1     0     0
SMALL
bcc


@<TRIPOS>ATOM
      1 N1         -0.2560    0.0200    5.5270 n3        1 104     -0.916300
      2 C2          0.5150   -0.0370    4.3090 c3        1 104      0.155300
      3 C3         -0.3840   -0.0130    3.0540 c3        1 104      0.159800
      4 N4          0.3870   -0.1340    1.8330 n3        1 104     -0.824700
      5 C5         -0.4280   -0.0070    0.6420 c3        1 104      0.159300
      6 C6          0.4300    0.0320   -0.6400 c3        1 104      0.159300
      7 N7         -0.3860    0.1670   -1.8320 n3        1 104     -0.824700
      8 C8          0.3860    0.0390   -3.0530 c3        1 104      0.159800
      9 C9         -0.5170    0.0100   -4.3050 c3        1 104      0.155300
     10 N10         0.2490   -0.1060   -5.5230 n3        1 104     -0.916300
     11 H11        -0.8460    0.8280    5.5460 hn        1 104      0.350300
     12 H12         0.3520    0.0360    6.3210 hn        1 104      0.350300
     13 H21         1.2630    0.8080    4.2310 h1        1 104      0.031450
     14 H22         1.0990   -1.0010    4.3220 h1        1 104      0.031450
     15 H31        -1.0960   -0.8850    3.0930 h1        1 104      0.036950
     16 H32        -1.0080    0.9310    3.0700 h1        1 104      0.036950
     17 HN4         1.1370    0.5330    1.8210 hn        1 104      0.355800
     18 H51        -1.1110   -0.9030    0.6080 h1        1 104      0.036950
     19 H52        -1.0840    0.9140    0.6690 h1        1 104      0.036950
     20 H61         1.1170    0.9250   -0.6050 h1        1 104      0.036950
     21 H62         1.0820   -0.8910   -0.6700 h1        1 104      0.036950
     22 HN7        -1.1380   -0.4970   -1.8200 hn        1 104      0.355800
     23 H81         1.0720    0.9320   -3.1080 h1        1 104      0.036950
     24 H82         1.0370   -0.8850   -3.0530 h1        1 104      0.036950
     25 H91        -1.1960   -0.8880   -4.2510 h1        1 104      0.031450
     26 H92        -1.1760    0.9280   -4.2920 h1        1 104      0.031450
     27 H101       -0.3550   -0.0330   -6.3170 hn        1 104      0.350300
     28 H102        0.9510    0.6050   -5.5770 hn        1 104      0.350300
@<TRIPOS>BOND
     1    1    2 1   
     2    1   11 1   
     3    1   12 1   
     4    2    3 1   
     5    2   13 1   
     6    2   14 1   
     7    3    4 1   
     8    3   15 1   
     9    3   16 1   
    10    4    5 1   
    11    4   17 1   
    12    5    6 1   
    13    5   18 1   
    14    5   19 1   
    15    6    7 1   
    16    6   20 1   
    17    6   21 1   
    18    7    8 1   
    19    7   22 1   
    20    8    9 1   
    21    8   23 1   
    22    8   24 1   
    23    9   10 1   
    24    9   25 1   
    25    9   26 1   
    26   10   27 1   
    27   10   28 1   
@<TRIPOS>SUBSTRUCTURE
     1 104         1 TEMP              0 ****  ****    0 ROOT
