@<TRIPOS>MOLECULE
104
   32    31     1     0     0
SMALL
bcc


@<TRIPOS>ATOM
      1 N1         -0.1800    0.0020   -0.1490 nz        1 104     -0.836600
      2 C2          1.3040   -0.0010   -0.0660 c3        1 104      0.077800
      3 C3          1.8430    0.0020    1.3880 c3        1 104      0.081800
      4 N4          3.3490   -0.0020    1.4330 ny        1 104     -0.759000
      5 C5          3.8600    0.0020    2.8440 c3        1 104      0.082800
      6 C6          5.4130   -0.0030    2.9230 c3        1 104      0.082800
      7 N7          5.9240    0.0020    4.3340 ny        1 104     -0.759000
      8 C8          7.4290   -0.0040    4.3780 c3        1 104      0.081800
      9 C9          7.9690    0.0030    5.8330 c3        1 104      0.077800
     10 N10         9.4530   -0.0040    5.9160 nz        1 104     -0.836600
     11 H11        -0.4590    0.0010   -1.1520 hn        1 104      0.502467
     12 H12        -0.5870    0.8430    0.2900 hn        1 104      0.502467
     13 H21         1.6700   -0.9220   -0.6180 hx        1 104      0.148700
     14 H22         1.6730    0.9170   -0.6220 hx        1 104      0.148700
     15 H31         1.4830    0.9250    1.9370 hx        1 104      0.145700
     16 H32         1.4790   -0.9160    1.9410 hx        1 104      0.145700
     17 HN4         3.7020    0.8310    0.9340 hn        1 104      0.482800
     18 H51         3.4410   -0.9140    3.3610 hx        1 104      0.145700
     19 H52         3.4470    0.9250    3.3540 hx        1 104      0.145700
     20 H61         5.8320    0.9130    2.4050 hx        1 104      0.145700
     21 H62         5.8250   -0.9270    2.4140 hx        1 104      0.145700
     22 HN7         5.5690   -0.8290    4.8340 hn        1 104      0.482800
     23 H81         7.7960    0.9110    3.8220 hx        1 104      0.145700
     24 H82         7.7870   -0.9300    3.8330 hx        1 104      0.145700
     25 H91         7.6060    0.9280    6.3800 hx        1 104      0.148700
     26 H92         7.5960   -0.9110    6.3930 hx        1 104      0.148700
     27 H101        9.7320    0.0010    6.9180 hn        1 104      0.502467
     28 H102        9.8650    0.8300    5.4700 hn        1 104      0.502467
     29 H13        -0.5900   -0.8350    0.2930 hn        1 104      0.502467
     30 H42         3.6980   -0.8400    0.9400 hn        1 104      0.482800
     31 H72         5.5760    0.8420    4.8250 hn        1 104      0.482800
     32 H103        9.8570   -0.8480    5.4810 hn        1 104      0.502467
@<TRIPOS>BOND
     1    1    2 1   
     2    1   11 1   
     3    1   12 1   
     4    1   29 1   
     5    2    3 1   
     6    2   13 1   
     7    2   14 1   
     8    3    4 1   
     9    3   15 1   
    10    3   16 1   
    11    4    5 1   
    12    4   17 1   
    13    4   30 1   
    14    5    6 1   
    15    5   18 1   
    16    5   19 1   
    17    6    7 1   
    18    6   20 1   
    19    6   21 1   
    20    7    8 1   
    21    7   22 1   
    22    7   31 1   
    23    8    9 1   
    24    8   23 1   
    25    8   24 1   
    26    9   10 1   
    27    9   25 1   
    28    9   26 1   
    29   10   27 1   
    30   10   28 1   
    31   10   32 1   
@<TRIPOS>SUBSTRUCTURE
     1 104         1 TEMP              0 ****  ****    0 ROOT
