@<TRIPOS>MOLECULE
106
   32    34     1     0     0
SMALL
bcc


@<TRIPOS>ATOM
      1 N1          3.1990   -0.7410   -3.5570 nc        1 106     -0.297400
      2 C2          3.2340   -0.8470   -2.0970 c         1 106      0.678700
      3 C3          1.8530   -0.3710   -1.5670 cc        1 106      0.032400
      4 C4         -0.2010    0.4800   -2.8670 ca        1 106     -0.060000
      5 C5         -0.6460    0.7220   -4.1280 ca        1 106     -0.023900
      6 C6          0.1930    0.4820   -5.2870 ca        1 106     -0.071000
      7 C7          1.4540    0.0090   -5.1830 ca        1 106     -0.124000
      8 C8          2.0100   -0.2780   -3.8740 ca        1 106      0.070000
      9 C9          1.1210   -0.0310   -2.6730 ca        1 106     -0.085000
     10 O11         4.1720   -1.2390   -1.4200 o         1 106     -0.418100
     11 N12         1.6410   -0.2750   -0.1830 ne        1 106     -0.162600
     12 BR4        -2.3690    1.3810   -4.4330 br        1 106     -0.057100
     13 N17         0.4970   -0.3800    0.2660 nf        1 106     -0.195400
     14 C19         0.2760   -0.2460    1.6790 ca        1 106      0.142400
     15 C20        -0.9240   -0.7970    2.1780 ca        1 106     -0.118500
     16 C21        -1.2330   -0.6710    3.5270 ca        1 106     -0.029000
     17 C22        -0.3780   -0.0040    4.4100 ca        1 106     -0.357500
     18 C23         0.8020    0.5500    3.9080 ca        1 106     -0.029000
     19 C24         1.1380    0.4340    2.5620 ca        1 106     -0.118500
     20 S27        -0.7840    0.1600    6.0520 sy        1 106      1.525200
     21 O28        -2.1850    0.0500    6.1680 o         1 106     -0.653800
     22 O29        -0.1700    1.3320    6.5390 o         1 106     -0.653800
     23 N30        -0.0950   -1.1170    6.7230 n3        1 106     -1.027700
     24 H4         -0.8250    0.6580   -1.9750 ha        1 106      0.170000
     25 H6         -0.2350    0.7020   -6.2810 ha        1 106      0.159000
     26 H7          2.0900   -0.1680   -6.0650 ha        1 106      0.168000
     27 H20        -1.6190   -1.3270    1.5060 ha        1 106      0.159500
     28 H21        -2.1840   -1.0880    3.9080 ha        1 106      0.159500
     29 H23         1.4730    1.1050    4.5890 ha        1 106      0.159500
     30 H24         2.0780    0.8820    2.2010 ha        1 106      0.159500
     31 H301        0.8240   -1.1150    7.0900 hn        1 106      0.450300
     32 H302       -0.5490   -1.9880    6.8390 hn        1 106      0.450300
@<TRIPOS>BOND
     1    1    2 1   
     2    1    8 2   
     3    2    3 1   
     4    2   10 2   
     5    3    9 2   
     6    3   11 1   
     7    4    5 ar  
     8    4    9 ar  
     9    4   24 1   
    10    5    6 ar  
    11    5   12 1   
    12    6    7 ar  
    13    6   25 1   
    14    7    8 ar  
    15    7   26 1   
    16    8    9 ar  
    17   11   13 2   
    18   13   14 1   
    19   14   15 ar  
    20   14   19 ar  
    21   15   16 ar  
    22   15   27 1   
    23   16   17 ar  
    24   16   28 1   
    25   17   18 ar  
    26   17   20 1   
    27   18   19 ar  
    28   18   29 1   
    29   19   30 1   
    30   20   21 2   
    31   20   22 2   
    32   20   23 1   
    33   23   31 1   
    34   23   32 1   
@<TRIPOS>SUBSTRUCTURE
     1 106         1 TEMP              0 ****  ****    0 ROOT
