@<TRIPOS>MOLECULE
106
   33    35     1     0     0
SMALL
bcc


@<TRIPOS>ATOM
      1 N1         -0.0920   -0.9060    0.1630 nc        1 106     -0.246400
      2 C2          1.3540   -1.0560    0.3640 c         1 106      0.682700
      3 C3          1.6810   -0.5050    1.7730 cc        1 106     -0.057600
      4 C4          0.1040    0.5140    3.5440 ca        1 106     -0.124000
      5 C5         -1.2030    0.8230    3.7660 ca        1 106      0.037100
      6 C6         -2.2270    0.5630    2.7680 ca        1 106     -0.094000
      7 C7         -1.9440    0.0040    1.5730 ca        1 106     -0.093000
      8 C8         -0.5740   -0.3580    1.2530 ca        1 106      0.042000
      9 C9          0.4860   -0.0810    2.3070 ca        1 106      0.017000
     10 O11         2.1490   -1.5290   -0.4330 o         1 106     -0.404100
     11 N12         3.0070   -0.5210    2.2030 ne        1 106     -0.102600
     12 Br4        -1.7450    1.6030    5.3730 br        1 106     -0.020100
     13 N17         3.3050   -0.1750    3.3510 nf        1 106     -0.243400
     14 C19         4.6790   -0.1650    3.7410 ca        1 106      0.273400
     15 C20         5.0370   -0.8010    4.9560 ca        1 106     -0.149500
     16 C21         6.3290   -0.7030    5.4330 ca        1 106      0.020000
     17 C22         7.3300    0.0190    4.7380 ca        1 106     -0.584500
     18 C23         6.9510    0.6560    3.5320 ca        1 106      0.020000
     19 C24         5.6650    0.5670    3.0370 ca        1 106     -0.149500
     20 S27         8.7950    0.1770    5.3310 sy        1 106      1.500200
     21 O28         8.9540   -0.2110    6.6440 o         1 106     -0.569300
     22 O29         9.5630    1.1740    4.7710 o         1 106     -0.569300
     23 N30         9.5940   -1.3550    4.4570 nz        1 106     -0.785500
     24 H4          0.8860    0.7100    4.2960 ha        1 106      0.173000
     25 H6         -3.2670    0.8410    3.0190 ha        1 106      0.174000
     26 H7         -2.7210   -0.1930    0.8150 ha        1 106      0.182000
     27 H20         4.2830   -1.3710    5.5280 ha        1 106      0.185000
     28 H21         6.5880   -1.1890    6.3930 ha        1 106      0.169500
     29 H23         7.7050    1.2480    2.9780 ha        1 106      0.169500
     30 H24         5.4080    1.0710    2.0880 ha        1 106      0.185000
     31 H301        8.9330   -1.8530    3.8700 hn        1 106      0.453800
     32 H302        9.9540   -2.0080    5.1500 hn        1 106      0.453800
     33 H303       10.3740   -1.0600    3.8730 hn        1 106      0.453800
@<TRIPOS>BOND
     1    1    2 1   
     2    1    8 2   
     3    2    3 1   
     4    2   10 2   
     5    3    9 2   
     6    3   11 1   
     7    4    5 ar  
     8    4    9 ar  
     9    4   24 1   
    10    5    6 ar  
    11    5   12 1   
    12    6    7 ar  
    13    6   25 1   
    14    7    8 ar  
    15    7   26 1   
    16    8    9 ar  
    17   11   13 2   
    18   13   14 1   
    19   14   15 ar  
    20   14   19 ar  
    21   15   16 ar  
    22   15   27 1   
    23   16   17 ar  
    24   16   28 1   
    25   17   18 ar  
    26   17   20 1   
    27   18   19 ar  
    28   18   29 1   
    29   19   30 1   
    30   20   21 2   
    31   20   22 2   
    32   20   23 1   
    33   23   31 1   
    34   23   32 1   
    35   23   33 1   
@<TRIPOS>SUBSTRUCTURE
     1 106         1 TEMP              0 ****  ****    0 ROOT
