@<TRIPOS>MOLECULE
106
   32    26     1     0     0
SMALL
bcc


@<TRIPOS>ATOM
      1 N1         -1.5640   -1.6670   -2.6250 n1        1 106     -0.165000
      2 C2         -0.2100   -1.5730   -2.4230 c1        1 106      0.283000
      3 C3         -0.0550   -1.9200   -1.0760 c2        1 106     -0.142000
      4 C4         -1.7060   -2.6730    0.8900 c1        1 106     -0.051000
      5 C5         -3.0550   -2.9400    1.1790 c1        1 106     -0.173000
      6 C6         -4.0460   -2.7770    0.1700 c1        1 106     -0.060000
      7 C7         -3.6780   -2.3480   -1.1160 c1        1 106     -0.131000
      8 C8         -2.3510   -2.0840   -1.4040 c1        1 106      0.088000
      9 C9         -1.3400   -2.2510   -0.3750 c1        1 106     -0.098000
     10 O11         0.6470   -1.6410   -3.2820 o         1 106     -0.205000
     11 N12         1.1650   -2.4870   -0.6260 n2        1 106      0.039000
     12 BR4        -3.4700   -3.4910    2.9620 br        1 106      0.083000
     13 N17         2.0140   -1.7730   -0.0750 n1        1 106      0.035000
     14 C19         1.7660   -0.3870    0.1060 c1        1 106     -0.054000
     15 C20         1.4530    0.4070   -0.9860 c2        1 106     -0.149000
     16 C21         1.2980    1.7750   -0.8250 c1        1 106     -0.012000
     17 C22         1.4550    2.3490    0.4260 c1        1 106     -0.813000
     18 C23         1.7680    1.5540    1.5180 c1        1 106     -0.020000
     19 C24         1.9240    0.1860    1.3580 c1        1 106     -0.126000
     20 S27         1.3700    4.1090    0.6100 s4        1 106      2.081800
     21 O28         0.9020    4.7370   -0.5950 o         1 106     -0.541900
     22 O29         0.3410    4.4870    1.5390 o         1 106     -0.541900
     23 N30         2.8300    4.7050    1.0640 n2        1 106     -0.953000
     24 H4         -1.0270   -2.7860    1.5830 ha        1 106      0.163000
     25 H6         -4.9830   -2.9630    0.3730 ha        1 106      0.160000
     26 H7         -4.3590   -2.2360   -1.8070 ha        1 106      0.169000
     27 H20         1.3430    0.0040   -1.8670 ha        1 106      0.167000
     28 H21         1.0780    2.3350   -1.5940 ha        1 106      0.161000
     29 H23         1.8790    1.9570    2.4000 ha        1 106      0.161000
     30 H24         2.1440   -0.3740    2.1270 ha        1 106      0.154000
     31 H301        2.9350    5.0760    1.8920 hn        1 106      0.245500
     32 H302        3.5320    4.6870    0.4790 hn        1 106      0.245500
@<TRIPOS>BOND
     1    1    8 1   
     2    2    3 1   
     3    2   10 1   
     4    3    9 1   
     5    3   11 1   
     6    4    9 1   
     7    4   24 1   
     8    5    6 1   
     9    5   12 1   
    10    6   25 1   
    11    7    8 1   
    12    7   26 1   
    13   11   13 1   
    14   14   15 1   
    15   14   19 1   
    16   15   16 1   
    17   15   27 1   
    18   16   28 1   
    19   17   18 1   
    20   17   20 1   
    21   18   29 1   
    22   19   30 1   
    23   20   21 1   
    24   20   22 1   
    25   23   31 1   
    26   23   32 1   
@<TRIPOS>SUBSTRUCTURE
     1 106         1 TEMP              0 ****  ****    0 ROOT
