@<TRIPOS>MOLECULE
107
   46    39     1     0     0
SMALL
bcc


@<TRIPOS>ATOM
      1 O1          1.1470    4.0800    2.1020 o         1 107     -0.208000
      2 C2          1.9730    3.5720    2.8340 c1        1 107      0.271000
      3 N3          2.0660    3.7520    4.2010 n1        1 107     -0.162000
      4 C4          2.7940    2.6430    4.9300 c1        1 107      0.074000
      5 C5          3.2700    2.4480    6.2390 c1        1 107     -0.104250
      6 C6          4.1140    1.3450    6.5330 c1        1 107     -0.104250
      7 C7          4.4810    0.4340    5.5030 c1        1 107     -0.055000
      8 N8          5.3270   -0.9050    5.5390 n1        1 107     -0.075000
      9 C9          5.3280   -1.4750    4.2260 c1        1 107     -0.362000
     10 S10         4.5000   -0.5470    3.3030 ss        1 107      0.626000
     11 C11         3.9970    0.6290    4.1610 c1        1 107     -0.378000
     12 C12         3.1690    1.7100    3.8720 c1        1 107     -0.003000
     13 C13         2.6290    2.3530    2.6170 c2        1 107     -0.190000
     14 C14         2.2560    1.4860    1.4090 c3        1 107      0.007000
     15 N15         0.8640    1.1110    1.4950 n3        1 107     -0.302000
     16 C16         0.1440    0.7200    0.2980 c2        1 107      0.148000
     17 C17        -0.5400   -0.4890    0.2640 c2        1 107     -0.228000
     18 C18        -1.1980   -0.8850   -0.8980 c1        1 107      0.032000
     19 C19        -1.1710   -0.0700   -2.0240 c1        1 107     -0.903000
     20 C20        -0.4860    1.1400   -1.9890 c1        1 107      0.033000
     21 C21         0.1720    1.5350   -0.8270 c1        1 107     -0.226000
     22 S22        -1.8800   -0.6550   -3.5710 s4        1 107      2.093800
     23 O23        -1.5510    0.2240   -4.6600 o         1 107     -0.543400
     24 O24        -1.2560   -1.8790   -4.0010 o         1 107     -0.543400
     25 N25        -3.5240   -0.8380   -3.4190 n2        1 107     -0.815000
     26 C27        -4.4360   -3.7110   -5.5670 c1        1 107     -0.055000
     27 C28        -5.5760   -3.2440   -6.1580 c1        1 107     -0.104250
     28 C29        -6.0540   -1.9790   -5.8420 c1        1 107     -0.104250
     29 N30        -5.3840   -1.2010   -4.9380 n1        1 107     -0.186000
     30 C31        -4.2430   -1.6670   -4.3460 c2        1 107      0.148000
     31 C32        -3.7640   -2.9310   -4.6620 c2        1 107     -0.228000
     32 H5          3.0360    3.0840    6.9430 ha        1 107      0.159500
     33 H6          4.4150    1.1900    7.4540 ha        1 107      0.159500
     34 H9          5.7220   -2.3320    3.9730 DU        1 107      0.202000
     35 H141        2.4080    1.9920    0.5850 h1        1 107      0.112500
     36 H142        2.8140    0.6750    1.4040 h1        1 107      0.112500
     37 H15         0.4310    1.1490    2.2950 hn        1 107      0.216000
     38 H17        -0.5580   -1.0580    1.0500 ha        1 107      0.143000
     39 H18        -1.6780   -1.7350   -0.9210 ha        1 107      0.157000
     40 H20        -0.4670    1.7150   -2.7820 ha        1 107      0.159000
     41 H21         0.6520    2.3830   -0.8020 ha        1 107      0.145000
     42 H25        -3.9630   -0.4490   -2.7210 hn        1 107      0.258000
     43 H27        -4.0970   -4.6070   -5.7910 ha        1 107      0.143000
     44 H28        -6.0580   -3.8020   -6.8070 ha        1 107      0.159500
     45 H29        -6.8690   -1.6460   -6.2640 ha        1 107      0.159500
     46 H32        -2.9550   -3.2630   -4.2420 ha        1 107      0.163000
@<TRIPOS>BOND
     1    1    2 1   
     2    2   13 1   
     3    3    4 1   
     4    4   12 1   
     5    5    6 1   
     6    5   32 1   
     7    6   33 1   
     8    7   11 1   
     9    8    9 1   
    10    9   10 1   
    11   10   11 1   
    12   12   13 1   
    13   13   14 1   
    14   14   15 1   
    15   14   35 1   
    16   14   36 1   
    17   15   16 1   
    18   15   37 1   
    19   16   17 1   
    20   16   21 1   
    21   17   18 1   
    22   17   38 1   
    23   18   39 1   
    24   19   20 1   
    25   19   22 1   
    26   20   40 1   
    27   21   41 1   
    28   22   23 1   
    29   22   24 1   
    30   25   30 1   
    31   25   42 1   
    32   26   31 1   
    33   26   43 1   
    34   27   28 1   
    35   27   44 1   
    36   28   45 1   
    37   29   30 1   
    38   30   31 1   
    39   31   46 1   
@<TRIPOS>SUBSTRUCTURE
     1 107         1 TEMP              0 ****  ****    0 ROOT
