@<TRIPOS>MOLECULE
107
   48    52     1     0     0
SMALL
bcc


@<TRIPOS>ATOM
      1 O1          0.8440    0.9930   -1.7610 o         1 107     -0.527100
      2 C2          1.9210    0.7590   -1.2090 c         1 107      0.705700
      3 N3          2.4550    1.3710    0.0020 nc        1 107     -0.243400
      4 C4          3.5970    0.7710    0.2500 ca        1 107      0.081000
      5 C5          4.5230    1.0010    1.3440 ca        1 107     -0.118000
      6 C6          5.6660    0.2900    1.4400 ca        1 107     -0.026000
      7 C7          6.0040   -0.7220    0.4530 ca        1 107      0.172400
      8 N8          7.1610   -1.4790    0.4890 nc        1 107     -0.484100
      9 C9          7.1780   -2.3090   -0.5540 cd        1 107      0.377100
     10 S10         5.8370   -2.2180   -1.5990 ss        1 107      0.097900
     11 C11         5.1460   -1.0120   -0.6510 ca        1 107     -0.235100
     12 C12         3.9400   -0.3080   -0.8000 ca        1 107      0.146000
     13 C13         2.9070   -0.3000   -1.6940 cc        1 107     -0.415400
     14 C14         2.7110   -0.9950   -2.9670 c3        1 107      0.233000
     15 N15         1.3060   -1.5740   -3.0670 n4        1 107     -0.664400
     16 C16         0.7040   -1.3700   -4.3880 ca        1 107      0.063600
     17 C17         0.6930   -2.4130   -5.3320 ca        1 107     -0.127500
     18 C18         0.1110   -2.1940   -6.5760 ca        1 107      0.029000
     19 C19        -0.4630   -0.9540   -6.9110 ca        1 107     -0.444500
     20 C20        -0.4420    0.0710   -5.9520 ca        1 107      0.029000
     21 C21         0.1310   -0.1240   -4.6950 ca        1 107     -0.127500
     22 S22        -1.0190   -0.6770   -8.4390 sy        1 107      1.458200
     23 O23        -1.0190    0.6460   -8.7970 o         1 107     -0.539300
     24 O24        -0.6360   -1.6810   -9.3070 o         1 107     -0.539300
     25 N25        -2.8330   -1.1640   -8.2110 n4        1 107     -0.684600
     26 C27        -5.6030    1.3030   -8.8460 ca        1 107     -0.060000
     27 C28        -5.3270    2.2060   -7.8270 ca        1 107     -0.173300
     28 C29        -4.2300    1.9460   -6.9700 ca        1 107      0.444200
     29 N30        -3.4380    0.8730   -7.0840 nb        1 107     -0.702000
     30 C31        -3.7260   -0.0020   -8.0980 ca        1 107      0.438200
     31 C32        -4.7960    0.1640   -8.9980 ca        1 107     -0.179300
     32 H5          4.2550    1.7760    2.0850 ha        1 107      0.197000
     33 H6          6.3820    0.4560    2.2680 ha        1 107      0.198000
     34 H9          8.0200   -3.0000   -0.7100 h5        1 107      0.100800
     35 H141        2.8310   -0.2660   -3.8240 hx        1 107      0.110700
     36 H142        3.4430   -1.8440   -3.0980 hx        1 107      0.110700
     37 H15         0.7030   -1.0990   -2.3670 hn        1 107      0.475300
     38 H17         1.1380   -3.4000   -5.1120 ha        1 107      0.199000
     39 H18         0.1280   -3.0140   -7.3250 ha        1 107      0.200500
     40 H20        -0.8750    1.0660   -6.1900 ha        1 107      0.200500
     41 H21         0.1270    0.7060   -3.9570 ha        1 107      0.199000
     42 H25        -2.9640   -1.7480   -7.3830 hn        1 107      0.464800
     43 H29        -3.9750    2.6420   -6.1450 h4        1 107      0.061100
     44 H32        -5.0100   -0.5590   -9.8020 ha        1 107      0.175000
     45 H27        -6.4480    1.4680   -9.5380 ha        1 107      0.191000
     46 H152        1.3320   -2.5760   -2.8470 hn        1 107      0.475300
     47 H252       -3.1410   -1.7180   -9.0170 hn        1 107      0.464800
     48 H28        -5.9390    3.1110   -7.6780 ha        1 107      0.193000
@<TRIPOS>BOND
     1    1    2 2   
     2    2    3 1   
     3    2   13 1   
     4    3    4 2   
     5    4    5 ar  
     6    4   12 ar  
     7    5    6 ar  
     8    5   32 1   
     9    6    7 ar  
    10    6   33 1   
    11    7    8 1   
    12    7   11 ar  
    13    8    9 2   
    14    9   10 1   
    15    9   34 1   
    16   10   11 1   
    17   11   12 ar  
    18   12   13 2   
    19   13   14 1   
    20   14   15 1   
    21   14   35 1   
    22   14   36 1   
    23   15   16 1   
    24   15   37 1   
    25   15   46 1   
    26   16   17 ar  
    27   16   21 ar  
    28   17   18 ar  
    29   17   38 1   
    30   18   19 ar  
    31   18   39 1   
    32   19   20 ar  
    33   19   22 1   
    34   20   21 ar  
    35   20   40 1   
    36   21   41 1   
    37   22   23 2   
    38   22   24 2   
    39   22   25 1   
    40   25   30 1   
    41   25   42 1   
    42   25   47 1   
    43   26   27 ar  
    44   26   31 ar  
    45   26   45 1   
    46   27   28 ar  
    47   27   48 1   
    48   28   29 ar  
    49   28   43 1   
    50   29   30 ar  
    51   30   31 ar  
    52   31   44 1   
@<TRIPOS>SUBSTRUCTURE
     1 107         1 TEMP              0 ****  ****    0 ROOT
