@<TRIPOS>MOLECULE
107
   46    50     1     0     0
SMALL
bcc


@<TRIPOS>ATOM
      1 O1         -2.8020   -2.0360    2.6150 o         1 107     -0.461100
      2 C2         -2.1430   -1.4210    3.4460 c         1 107      0.674700
      3 N3         -2.4200   -1.3520    4.8830 nc        1 107     -0.305400
      4 C4         -1.4680   -0.6140    5.4090 ca        1 107      0.083000
      5 C5         -1.2690   -0.2400    6.7980 ca        1 107     -0.137000
      6 C6         -0.2170    0.5220    7.1650 ca        1 107     -0.025000
      7 C7          0.7470    0.9940    6.1900 ca        1 107      0.083400
      8 N8          1.8560    1.7720    6.4980 nc        1 107     -0.499100
      9 C9          2.5290    2.0250    5.3790 cd        1 107      0.300100
     10 S10         1.8790    1.3600    3.9500 ss        1 107      0.117900
     11 C11         0.6180    0.6780    4.8140 ca        1 107     -0.131100
     12 C12        -0.4670   -0.1180    4.3690 ca        1 107     -0.026000
     13 C13        -0.8780   -0.5990    3.1660 cc        1 107     -0.189400
     14 C14        -0.2990   -0.3670    1.8260 c3        1 107      0.265000
     15 N15        -0.4090   -1.4900    0.9290 nh        1 107     -0.748600
     16 C16        -0.0710   -1.3410   -0.4080 ca        1 107      0.238600
     17 C17        -0.4290   -2.3590   -1.3370 ca        1 107     -0.235000
     18 C18        -0.0320   -2.2660   -2.6570 ca        1 107      0.044000
     19 C19         0.7180   -1.1770   -3.1310 ca        1 107     -0.455500
     20 C20         1.0640   -0.1750   -2.2150 ca        1 107      0.044000
     21 C21         0.6850   -0.2400   -0.8830 ca        1 107     -0.235000
     22 S22         1.2190   -1.1080   -4.7130 sy        1 107      1.533200
     23 O23         2.3290   -0.2590   -4.8380 o         1 107     -0.650800
     24 O24         1.3870   -2.4240   -5.2090 o         1 107     -0.650800
     25 N25        -0.0900   -0.5250   -5.5380 nh        1 107     -0.859800
     26 C27        -2.2480    2.4120   -6.2110 ca        1 107     -0.058000
     27 C28        -1.7310    3.2930   -5.2610 ca        1 107     -0.285300
     28 C29        -0.6850    2.8390   -4.4400 ca        1 107      0.440200
     29 N30        -0.1480    1.6120   -4.5070 nb        1 107     -0.729000
     30 C31        -0.6530    0.7520   -5.4490 ca        1 107      0.677200
     31 C32        -1.7190    1.1300   -6.3190 ca        1 107     -0.288300
     32 H5         -2.0060   -0.6040    7.5320 ha        1 107      0.168000
     33 H6         -0.0580    0.8100    8.2180 ha        1 107      0.165000
     34 H9          3.4460    2.6240    5.3950 h5        1 107      0.073800
     35 H141       -0.8040    0.5510    1.3870 h1        1 107      0.059700
     36 H142        0.8010   -0.1180    1.9420 h1        1 107      0.059700
     37 H15        -1.1390   -2.1430    1.1270 hn        1 107      0.442800
     38 H17        -1.0160   -3.2280   -1.0040 ha        1 107      0.139500
     39 H18        -0.2960   -3.0780   -3.3590 ha        1 107      0.156500
     40 H20         1.6620    0.6870   -2.5680 ha        1 107      0.156500
     41 H21         0.9830    0.5700   -0.2030 ha        1 107      0.139500
     42 H25        -0.5470   -1.1120   -6.2000 hn        1 107      0.456800
     43 H28        -2.1230    4.3120   -5.1530 ha        1 107      0.146000
     44 H29        -0.2400    3.4990   -3.6720 h4        1 107      0.022100
     45 H32        -2.1110    0.4250   -7.0640 ha        1 107      0.145000
     46 H27        -3.0680    2.7250   -6.8740 ha        1 107      0.140000
@<TRIPOS>BOND
     1    1    2 2   
     2    2    3 1   
     3    2   13 1   
     4    3    4 2   
     5    4    5 ar  
     6    4   12 ar  
     7    5    6 ar  
     8    5   32 1   
     9    6    7 ar  
    10    6   33 1   
    11    7    8 1   
    12    7   11 ar  
    13    8    9 2   
    14    9   10 1   
    15    9   34 1   
    16   10   11 1   
    17   11   12 ar  
    18   12   13 2   
    19   13   14 1   
    20   14   15 1   
    21   14   35 1   
    22   14   36 1   
    23   15   16 1   
    24   15   37 1   
    25   16   17 ar  
    26   16   21 ar  
    27   17   18 ar  
    28   17   38 1   
    29   18   19 ar  
    30   18   39 1   
    31   19   20 ar  
    32   19   22 1   
    33   20   21 ar  
    34   20   40 1   
    35   21   41 1   
    36   22   23 2   
    37   22   24 2   
    38   22   25 1   
    39   25   30 1   
    40   25   42 1   
    41   26   27 ar  
    42   26   31 ar  
    43   26   46 1   
    44   27   28 ar  
    45   27   43 1   
    46   28   29 ar  
    47   28   44 1   
    48   29   30 ar  
    49   30   31 ar  
    50   31   45 1   
@<TRIPOS>SUBSTRUCTURE
     1 107         1 TEMP              0 ****  ****    0 ROOT
