@<TRIPOS>MOLECULE
107
   46    50     1     0     0
SMALL
bcc


@<TRIPOS>ATOM
      1 O1          0.2720   -1.2580   -0.0700 o         1 107     -0.461100
      2 C2          1.4310   -0.8590   -0.0380 c         1 107      0.674700
      3 N3          2.2210   -0.6080    1.1710 nc        1 107     -0.305400
      4 C4          3.4070   -0.2160    0.7640 ca        1 107      0.083000
      5 C5          4.5650    0.1520    1.5580 ca        1 107     -0.137000
      6 C6          5.7200    0.5240    0.9660 ca        1 107     -0.025000
      7 C7          5.8440    0.5700   -0.4780 ca        1 107      0.083400
      8 N8          7.0030    0.9320   -1.1540 nc        1 107     -0.499100
      9 C9          6.7780    0.8660   -2.4630 cd        1 107      0.300100
     10 S10         5.2100    0.3790   -2.9270 ss        1 107      0.117900
     11 C11         4.7560    0.2330   -1.3230 ca        1 107     -0.131100
     12 C12         3.5190   -0.1640   -0.7580 ca        1 107     -0.026000
     13 C13         2.3130   -0.5460   -1.2540 cc        1 107     -0.189400
     14 C14         1.8670   -0.6150   -2.6620 c3        1 107      0.265000
     15 N15         0.9410   -1.6830   -2.9410 nu        1 107     -0.748600
     16 C16         0.3090   -1.7450   -4.1740 ca        1 107      0.238600
     17 C17        -0.7910   -2.6300   -4.3530 ca        1 107     -0.235000
     18 C18        -1.3800   -2.7650   -5.5950 ca        1 107      0.044000
     19 C19        -0.9350   -2.0370   -6.7100 ca        1 107     -0.455500
     20 C20         0.1460   -1.1620   -6.5290 ca        1 107      0.044000
     21 C21         0.7610   -1.0080   -5.2980 ca        1 107     -0.235000
     22 S22        -1.6330   -2.2460   -8.2030 sy        1 107      1.533200
     23 O23        -0.7500   -1.8460   -9.2170 o         1 107     -0.650800
     24 O24        -2.1350   -3.5660   -8.3040 o         1 107     -0.650800
     25 N25        -2.9860   -1.2970   -8.1650 nu        1 107     -0.859800
     26 C27        -4.3240    2.1590   -8.1480 ca        1 107     -0.058000
     27 C28        -3.1270    2.8640   -8.0150 ca        1 107     -0.285300
     28 C29        -1.9340    2.1260   -7.9290 ca        1 107      0.440200
     29 N30        -1.8670    0.7870   -7.9670 nb        1 107     -0.729000
     30 C31        -3.0460    0.1000   -8.1080 ca        1 107      0.677200
     31 C32        -4.3020    0.7700   -8.1960 ca        1 107     -0.288300
     32 H5          4.4630    0.1140    2.6550 ha        1 107      0.168000
     33 H6          6.6060    0.8040    1.5620 ha        1 107      0.165000
     34 H9          7.5640    1.1100   -3.1850 h5        1 107      0.073800
     35 H141        2.7750   -0.7560   -3.3260 h1        1 107      0.059700
     36 H142        1.4140    0.3930   -2.9280 h1        1 107      0.059700
     37 H15         0.4170   -2.0270   -2.1620 hn        1 107      0.442800
     38 H17        -1.1690   -3.2180   -3.5030 ha        1 107      0.139500
     39 H18        -2.2170   -3.4760   -5.7220 ha        1 107      0.156500
     40 H20         0.5160   -0.5860   -7.3990 ha        1 107      0.156500
     41 H21         1.6070   -0.3110   -5.2080 ha        1 107      0.139500
     42 H25        -3.8830   -1.7280   -8.2050 hn        1 107      0.456800
     43 H28        -3.1090    3.9590   -7.9780 ha        1 107      0.146000
     44 H29        -0.9590    2.6370   -7.8240 h4        1 107      0.022100
     45 H32        -5.2350    0.2000   -8.3050 ha        1 107      0.145000
     46 H27        -5.2820    2.6970   -8.2180 ha        1 107      0.140000
@<TRIPOS>BOND
     1    1    2 2   
     2    2    3 1   
     3    2   13 1   
     4    3    4 2   
     5    4    5 ar  
     6    4   12 ar  
     7    5    6 ar  
     8    5   32 1   
     9    6    7 ar  
    10    6   33 1   
    11    7    8 1   
    12    7   11 ar  
    13    8    9 2   
    14    9   10 1   
    15    9   34 1   
    16   10   11 1   
    17   11   12 ar  
    18   12   13 2   
    19   13   14 1   
    20   14   15 1   
    21   14   35 1   
    22   14   36 1   
    23   15   16 1   
    24   15   37 1   
    25   16   17 ar  
    26   16   21 ar  
    27   17   18 ar  
    28   17   38 1   
    29   18   19 ar  
    30   18   39 1   
    31   19   20 ar  
    32   19   22 1   
    33   20   21 ar  
    34   20   40 1   
    35   21   41 1   
    36   22   23 2   
    37   22   24 2   
    38   22   25 1   
    39   25   30 1   
    40   25   42 1   
    41   26   27 ar  
    42   26   31 ar  
    43   26   46 1   
    44   27   28 ar  
    45   27   43 1   
    46   28   29 ar  
    47   28   44 1   
    48   29   30 ar  
    49   30   31 ar  
    50   31   45 1   
@<TRIPOS>SUBSTRUCTURE
     1 107         1 TEMP              0 ****  ****    0 ROOT
