@<TRIPOS>MOLECULE
108
   33    33     1     0     0
SMALL
bcc


@<TRIPOS>ATOM
      1 C1          0.4770   -0.3810    0.6120 ca        1 108     -0.268900
      2 C2          1.7980   -0.2620    0.1710 ca        1 108     -0.033000
      3 C3          2.8450   -0.8110    0.9130 ca        1 108     -0.178300
      4 C4          2.5310   -1.6140    2.0320 ca        1 108      0.202100
      5 C5          1.1920   -1.8270    2.4080 ca        1 108     -0.204000
      6 C6          0.1710   -1.1880    1.7160 ca        1 108     -0.017000
      7 C7          4.2710   -0.5330    0.5670 c3        1 108      0.179100
      8 C8         -0.5860    0.4240   -0.0360 ce        1 108      0.591800
      9 O1          3.5820   -2.1510    2.7210 oh        1 108     -0.492100
     10 N1         -0.3170    1.8890    0.0640 n4        1 108     -0.842600
     11 N2         -1.6600    0.0480   -0.6250 n2        1 108     -0.717100
     12 N           4.5750    0.9130    0.3320 n4        1 108     -0.766000
     13 CA          4.0220    1.8540    1.3750 c3        1 108      0.013500
     14 CB          4.9390    3.0390    1.6110 c3        1 108     -0.121100
     15 C           2.6280    2.3660    0.9120 c         1 108      0.912600
     16 O           2.4040    2.4260   -0.3400 o         1 108     -0.814300
     17 OXT         1.7610    2.6280    1.7810 o         1 108     -0.814300
     18 H2          2.0180    0.3070   -0.7520 ha        1 108      0.171000
     19 H5          0.9590   -2.4750    3.2680 ha        1 108      0.169000
     20 H6         -0.8740   -1.3090    2.0470 ha        1 108      0.161000
     21 H71         4.9410   -0.8910    1.4060 hx        1 108      0.111200
     22 H72         4.5510   -1.0860   -0.3780 hx        1 108      0.111200
     23 HO1         3.2400   -2.6820    3.4600 ho        1 108      0.456000
     24 HN11        0.4960    2.1340   -0.5460 hn        1 108      0.489800
     25 HN12       -0.0200    2.1210    1.0360 hn        1 108      0.489800
     26 HN2        -1.8250   -0.9350   -0.6960 hn        1 108      0.464400
     27 H           4.1590    1.2100   -0.5710 hn        1 108      0.457800
     28 HA          3.8900    1.2700    2.3320 hx        1 108      0.113700
     29 HB1         4.4490    3.6940    2.3780 hc        1 108      0.075700
     30 HB2         5.0790    3.6400    0.6800 hc        1 108      0.075700
     31 HB3         5.9350    2.7200    2.0020 hc        1 108      0.075700
     32 H13        -1.1290    2.4500   -0.2010 hn        1 108      0.489800
     33 H21         5.5910    1.0270    0.2780 hn        1 108      0.457800
@<TRIPOS>BOND
     1    1    2 ar  
     2    1    6 ar  
     3    1    8 1   
     4    2    3 ar  
     5    2   18 1   
     6    3    4 ar  
     7    3    7 1   
     8    4    5 ar  
     9    4    9 1   
    10    5    6 ar  
    11    5   19 1   
    12    6   20 1   
    13    7   12 1   
    14    7   21 1   
    15    7   22 1   
    16    8   10 1   
    17    8   11 2   
    18    9   23 1   
    19   10   24 1   
    20   10   25 1   
    21   10   32 1   
    22   11   26 1   
    23   12   13 1   
    24   12   27 1   
    25   12   33 1   
    26   13   14 1   
    27   13   15 1   
    28   13   28 1   
    29   14   29 1   
    30   14   30 1   
    31   14   31 1   
    32   15   16 1   
    33   15   17 1   
@<TRIPOS>SUBSTRUCTURE
     1 108         1 TEMP              0 ****  ****    0 ROOT
