@<TRIPOS>MOLECULE
108
   31    31     1     0     0
SMALL
bcc


@<TRIPOS>ATOM
      1 C1         -0.1340    0.1890    3.0500 ca        1 108     -0.219900
      2 C2          0.5030    0.5900    1.8730 ca        1 108     -0.041000
      3 C3         -0.1560    0.5260    0.6440 ca        1 108     -0.169300
      4 C4         -1.4860    0.0560    0.6060 ca        1 108      0.185100
      5 C5         -2.1350   -0.3270    1.8010 ca        1 108     -0.198000
      6 C6         -1.4590   -0.2610    3.0100 ca        1 108     -0.084000
      7 C7          0.5530    0.9630   -0.6030 c3        1 108      0.191100
      8 C8          0.6080    0.2260    4.3460 ce        1 108      0.660800
      9 O1         -2.2310   -0.0750   -0.5250 oh        1 108     -0.522100
     10 N1          0.5340   -0.9830    5.0870 nh        1 108     -0.953800
     11 N2          1.1950    1.3240    4.7170 n2        1 108     -0.831100
     12 N           0.9770   -0.1510   -1.4410 n3        1 108     -0.796200
     13 CA          1.2450    0.2720   -2.8170 c3        1 108      0.025500
     14 CB          1.8510   -0.8600   -3.6400 c3        1 108     -0.067100
     15 C           0.0130    0.8240   -3.5990 c         1 108      0.895600
     16 O          -1.1460    0.6890   -3.0970 o         1 108     -0.844800
     17 OXT         0.2330    1.3890   -4.7020 o         1 108     -0.844800
     18 H2          1.5400    0.9610    1.9090 ha        1 108      0.141000
     19 H5         -3.1750   -0.6750    1.7500 ha        1 108      0.140000
     20 H6         -1.9720   -0.5540    3.9370 ha        1 108      0.126000
     21 H71         1.4850    1.5320   -0.3240 h1        1 108      0.050200
     22 H72        -0.1240    1.6830   -1.1590 h1        1 108      0.050200
     23 HO1        -1.7430    0.2660   -1.3090 ho        1 108      0.500000
     24 HN11        1.3040   -1.1700    5.6880 hn        1 108      0.386300
     25 HN12        0.2540   -1.7730    4.5510 hn        1 108      0.386300
     26 HN2         1.6920    1.2850    5.5820 hn        1 108      0.365400
     27 H           0.2410   -0.8390   -1.4680 hn        1 108      0.345800
     28 HA          1.9980    1.1110   -2.7650 h1        1 108      0.045700
     29 HB1         1.1570   -1.7330   -3.6910 hc        1 108      0.025367
     30 HB2         2.0210   -0.4780   -4.6760 hc        1 108      0.025367
     31 HB3         2.8220   -1.2010   -3.2090 hc        1 108      0.025367
@<TRIPOS>BOND
     1    1    2 ar  
     2    1    6 ar  
     3    1    8 1   
     4    2    3 ar  
     5    2   18 1   
     6    3    4 ar  
     7    3    7 1   
     8    4    5 ar  
     9    4    9 1   
    10    5    6 ar  
    11    5   19 1   
    12    6   20 1   
    13    7   12 1   
    14    7   21 1   
    15    7   22 1   
    16    8   10 1   
    17    8   11 2   
    18    9   23 1   
    19   10   24 1   
    20   10   25 1   
    21   11   26 1   
    22   12   13 1   
    23   12   27 1   
    24   13   14 1   
    25   13   15 1   
    26   13   28 1   
    27   14   29 1   
    28   14   30 1   
    29   14   31 1   
    30   15   16 1   
    31   15   17 1   
@<TRIPOS>SUBSTRUCTURE
     1 108         1 TEMP              0 ****  ****    0 ROOT
