@<TRIPOS>MOLECULE
108
   31    27     1     0     0
SMALL
bcc


@<TRIPOS>ATOM
      1 C1         -2.4340   -0.4820   -0.9620 cg        1 108     -0.199300
      2 C2         -1.0390   -0.4920   -0.9680 c1        1 108     -0.009500
      3 C3         -0.3350   -0.5000    0.2340 c1        1 108     -0.120100
      4 C4         -1.0210   -0.4990    1.4450 c1        1 108      0.171600
      5 C5         -2.4070   -0.4890    1.4550 c1        1 108     -0.128500
      6 C6         -3.1200   -0.4810    0.2380 c1        1 108     -0.033500
      7 C7          1.1610   -0.5320    0.2200 c3        1 108      0.172900
      8 C8         -3.2280   -0.5790   -2.3210 ce        1 108      0.243300
      9 O1         -0.3050   -0.6040    2.6690 oh        1 108     -0.504600
     10 N1         -3.5580   -1.8110   -2.8420 nh        1 108     -0.827600
     11 N2         -3.5720    0.5030   -2.9510 n1        1 108     -0.325000
     12 N           1.6740    0.7890    0.4800 n3        1 108     -0.840200
     13 CA          3.1050    0.7090    0.7790 c3        1 108      0.027500
     14 CB          3.8590    1.5800   -0.1620 c3        1 108     -0.099100
     15 C           3.3550    1.1730    2.2100 c         1 108      0.920600
     16 O           4.1890    0.5530    2.9390 o         1 108     -0.829800
     17 OXT         2.8500    2.2560    2.6150 o         1 108     -0.829800
     18 H2         -0.5390   -0.4930   -1.8450 ha        1 108      0.079500
     19 H5         -2.8830   -0.4890    2.2940 ha        1 108      0.084500
     20 H6         -4.0860   -0.4740    0.2430 ha        1 108      0.059500
     21 H71         1.4750   -1.1370    0.8970 h1        1 108      0.032200
     22 H72         1.4660   -0.8300   -0.6450 h1        1 108      0.032200
     23 HO1        -0.8190   -1.0000    3.2800 ho        1 108      0.483000
     24 HN11       -3.6020   -2.5330   -2.2980 hn        1 108      0.390800
     25 HN12       -3.8300   -1.8800   -3.7180 hn        1 108      0.390800
     26 HN2        -3.3610    1.2970   -2.6180 DU        1 108      0.152000
     27 H           1.5480    1.3110   -0.2500 hn        1 108      0.391800
     28 HA          3.4020   -0.1980    0.6820 h1        1 108      0.043700
     29 HB1         3.8060    2.5210    0.1420 hc        1 108      0.023367
     30 HB2         4.7770    1.3050   -0.1870 hc        1 108      0.023367
     31 HB3         3.4730    1.5060   -1.0560 hc        1 108      0.023367
@<TRIPOS>BOND
     1    1    6 3   
     2    1    8 1   
     3    2    3 3   
     4    2   18 1   
     5    3    7 1   
     6    4    5 3   
     7    4    9 1   
     8    5   19 1   
     9    6   20 1   
    10    7   12 1   
    11    7   21 1   
    12    7   22 1   
    13    8   10 1   
    14    8   11 2   
    15    9   23 1   
    16   10   24 1   
    17   10   25 1   
    18   12   13 1   
    19   12   27 1   
    20   13   14 1   
    21   13   15 1   
    22   13   28 1   
    23   14   29 1   
    24   14   30 1   
    25   14   31 1   
    26   15   16 1   
    27   15   17 1   
@<TRIPOS>SUBSTRUCTURE
     1 108         1 TEMP              0 ****  ****    0 ROOT
