@<TRIPOS>MOLECULE
108
   33    33     1     0     0
SMALL
bcc


@<TRIPOS>ATOM
      1 C1          0.5000   -0.4180    0.6010 ca        1 108     -0.268900
      2 C2          1.8040   -0.2310    0.1340 ca        1 108     -0.033000
      3 C3          2.8880   -0.7900    0.8140 ca        1 108     -0.178300
      4 C4          2.6290   -1.6690    1.8890 ca        1 108      0.202100
      5 C5          1.3080   -1.9470    2.2860 ca        1 108     -0.204000
      6 C6          0.2490   -1.3010    1.6610 ca        1 108     -0.017000
      7 C7          4.2940   -0.4450    0.4500 c3        1 108      0.179100
      8 C8         -0.6060    0.3900    0.0320 ce        1 108      0.591800
      9 O1          3.7150   -2.2120    2.5170 oh        1 108     -0.492100
     10 N1         -0.3790    1.8530    0.2150 nz        1 108     -0.842600
     11 N2         -1.6830    0.0150   -0.5510 n2        1 108     -0.717100
     12 N           4.5470    1.0210    0.2960 ny        1 108     -0.766000
     13 CA          3.9940    1.8790    1.4100 c3        1 108      0.013500
     14 CB          4.8800    3.0760    1.6950 c3        1 108     -0.121100
     15 C           2.5720    2.3730    1.0150 c         1 108      0.912600
     16 O           2.3120    2.5010   -0.2250 o         1 108     -0.814300
     17 OXT         1.7230    2.5530    1.9200 o         1 108     -0.814300
     18 H2          1.9800    0.4000   -0.7570 ha        1 108      0.171000
     19 H5          1.1180   -2.6540    3.1100 ha        1 108      0.169000
     20 H6         -0.7820   -1.4760    2.0110 ha        1 108      0.161000
     21 H71         4.9970   -0.8320    1.2470 hx        1 108      0.111200
     22 H72         4.5640   -0.9310   -0.5340 hx        1 108      0.111200
     23 HO1         3.4090   -2.7980    3.2300 ho        1 108      0.456000
     24 HN11       -0.0620    2.0350    1.1910 hn        1 108      0.489800
     25 HN12       -1.2140    2.4030    0.0060 hn        1 108      0.489800
     26 HN2        -1.8190   -0.9660   -0.6790 hn        1 108      0.464400
     27 H           4.0960    1.3590   -0.5760 hn        1 108      0.457800
     28 HA          3.9070    1.2340    2.3310 hx        1 108      0.113700
     29 HB1         4.9760    3.7380    0.7990 hc        1 108      0.075700
     30 HB2         4.3920    3.6680    2.5130 hc        1 108      0.075700
     31 HB3         5.8960    2.7660    2.0380 hc        1 108      0.075700
     32 H13         0.4090    2.1610   -0.4000 hn        1 108      0.489800
     33 H21         5.5570    1.1710    0.2240 hn        1 108      0.457800
@<TRIPOS>BOND
     1    1    2 ar  
     2    1    6 ar  
     3    1    8 1   
     4    2    3 ar  
     5    2   18 1   
     6    3    4 ar  
     7    3    7 1   
     8    4    5 ar  
     9    4    9 1   
    10    5    6 ar  
    11    5   19 1   
    12    6   20 1   
    13    7   12 1   
    14    7   21 1   
    15    7   22 1   
    16    8   10 1   
    17    8   11 2   
    18    9   23 1   
    19   10   24 1   
    20   10   25 1   
    21   10   32 1   
    22   11   26 1   
    23   12   13 1   
    24   12   27 1   
    25   12   33 1   
    26   13   14 1   
    27   13   15 1   
    28   13   28 1   
    29   14   29 1   
    30   14   30 1   
    31   14   31 1   
    32   15   16 1   
    33   15   17 1   
@<TRIPOS>SUBSTRUCTURE
     1 108         1 TEMP              0 ****  ****    0 ROOT
