@<TRIPOS>MOLECULE
108
   33    33     1     0     0
SMALL
bcc


@<TRIPOS>ATOM
      1 C1          0.4590   -0.3890    0.7620 ca        1 108     -0.268900
      2 C2          1.7290   -0.2430    0.1970 ca        1 108     -0.033000
      3 C3          2.8490   -0.8050    0.8130 ca        1 108     -0.178300
      4 C4          2.6520   -1.6470    1.9310 ca        1 108      0.202100
      5 C5          1.3590   -1.8860    2.4300 ca        1 108     -0.204000
      6 C6          0.2700   -1.2350    1.8640 ca        1 108     -0.017000
      7 C7          4.2310   -0.5010    0.3380 c3        1 108      0.179100
      8 C8         -0.6690    0.4250    0.2510 ce        1 108      0.591800
      9 O1          3.7700   -2.1960    2.4940 oh        1 108     -0.492100
     10 N1         -0.4010    1.8880    0.3720 n4        1 108     -0.842600
     11 N2         -1.7930    0.0570   -0.2410 n2        1 108     -0.717100
     12 N           4.5000    0.9540    0.1220 n4        1 108     -0.766000
     13 CA          4.0470    1.8550    1.2460 c3        1 108      0.013500
     14 CB          4.9740    3.0410    1.4290 c3        1 108     -0.121100
     15 C           2.6100    2.3680    0.9400 c         1 108      0.912600
     16 O           2.2630    2.4660   -0.2810 o         1 108     -0.814300
     17 OXT         1.8320    2.5920    1.8990 o         1 108     -0.814300
     18 H2          1.8520    0.3580   -0.7230 ha        1 108      0.171000
     19 H5          1.2160   -2.5640    3.2860 ha        1 108      0.169000
     20 H6         -0.7360   -1.3780    2.2930 ha        1 108      0.161000
     21 H71         4.9830   -0.8800    1.0930 hx        1 108      0.111200
     22 H72         4.4190   -1.0210   -0.6480 hx        1 108      0.111200
     23 HO1         3.5070   -2.7540    3.2450 ho        1 108      0.456000
     24 HN11       -1.2390    2.4500    0.2080 hn        1 108      0.489800
     25 HN12        0.3460    2.1610   -0.3070 hn        1 108      0.489800
     26 HN2        -1.9570   -0.9240   -0.3290 hn        1 108      0.464400
     27 H           5.5050    1.0800   -0.0290 hn        1 108      0.457800
     28 HA          4.0150    1.2390    2.1900 hx        1 108      0.113700
     29 HB1         4.5590    3.6660    2.2620 hc        1 108      0.075700
     30 HB2         5.0170    3.6740    0.5090 hc        1 108      0.075700
     31 HB3         6.0070    2.7190    1.7070 hc        1 108      0.075700
     32 H13        -0.0110    2.0910    1.3170 hn        1 108      0.489800
     33 H21         3.9940    1.2760   -0.7250 hn        1 108      0.457800
@<TRIPOS>BOND
     1    1    2 ar  
     2    1    6 ar  
     3    1    8 1   
     4    2    3 ar  
     5    2   18 1   
     6    3    4 ar  
     7    3    7 1   
     8    4    5 ar  
     9    4    9 1   
    10    5    6 ar  
    11    5   19 1   
    12    6   20 1   
    13    7   12 1   
    14    7   21 1   
    15    7   22 1   
    16    8   10 1   
    17    8   11 2   
    18    9   23 1   
    19   10   24 1   
    20   10   25 1   
    21   10   32 1   
    22   11   26 1   
    23   12   13 1   
    24   12   27 1   
    25   12   33 1   
    26   13   14 1   
    27   13   15 1   
    28   13   28 1   
    29   14   29 1   
    30   14   30 1   
    31   14   31 1   
    32   15   16 1   
    33   15   17 1   
@<TRIPOS>SUBSTRUCTURE
     1 108         1 TEMP              0 ****  ****    0 ROOT
