@<TRIPOS>MOLECULE
109
   31    27     1     0     0
SMALL
bcc


@<TRIPOS>ATOM
      1 C1         -0.9740   -0.0070   -2.7090 cg        1 109     -0.139300
      2 C2          0.4140    0.0500   -2.7060 c1        1 109     -0.141500
      3 C3          1.1100    0.0580   -1.4940 c1        1 109      0.090600
      4 C4          0.4130    0.0100   -0.2920 c1        1 109     -0.046100
      5 C5         -0.9720   -0.0460   -0.2950 c1        1 109     -0.042500
      6 C6         -1.6690   -0.0550   -1.5060 c1        1 109     -0.091500
      7 C7          1.1820   -0.0130    1.0470 c3        1 109      0.167900
      8 C8         -1.7420    0.0500   -4.0340 ce        1 109      0.235300
      9 O1          2.5180    0.0740   -1.4910 oh        1 109     -0.478600
     10 N1         -2.1180   -1.1520   -4.6890 nh        1 109     -0.824600
     11 N2         -2.0490    1.2060   -4.5620 n1        1 109     -0.322000
     12 N           0.2320   -0.0160    2.1530 n3        1 109     -0.794200
     13 CA          0.9360   -0.1800    3.3820 c3        1 109      0.026500
     14 CB          1.0750    1.1630    4.0710 c3        1 109     -0.069100
     15 C           0.1740   -1.1250    4.2760 c         1 109      0.891600
     16 O           0.0500   -2.3290    3.9540 o         1 109     -0.846800
     17 OXT        -0.3560   -0.6990    5.3360 o         1 109     -0.846800
     18 H2          0.9020    0.0840   -3.5490 ha        1 109      0.073500
     19 H5         -1.4620   -0.0370    0.5490 ha        1 109      0.167500
     20 H6         -2.6350   -0.0940   -1.5080 ha        1 109      0.077500
     21 H71         1.7460    0.7690    1.1080 h1        1 109      0.050200
     22 H72         1.7350   -0.8180    1.0910 h1        1 109      0.050200
     23 HO1         2.8200   -0.3750   -2.1950 ho        1 109      0.404000
     24 HN11       -2.0080   -1.9550   -4.2690 hn        1 109      0.389800
     25 HN12       -2.4330   -1.1260   -5.5490 hn        1 109      0.389800
     26 HN2        -1.8090    1.9750   -4.1440 DU        1 109      0.152000
     27 H          -0.2230    0.7750    2.1660 hn        1 109      0.359800
     28 HA          1.8240   -0.5470    3.2020 h1        1 109      0.041700
     29 HB1         1.7740    1.1070    4.7570 hc        1 109      0.024367
     30 HB2         1.3190    1.8440    3.4110 hc        1 109      0.024367
     31 HB3         0.2260    1.4040    4.4900 hc        1 109      0.024367
@<TRIPOS>BOND
     1    1    6 3   
     2    1    8 1   
     3    2    3 3   
     4    2   18 1   
     5    3    9 1   
     6    4    5 3   
     7    4    7 1   
     8    5   19 1   
     9    6   20 1   
    10    7   12 1   
    11    7   21 1   
    12    7   22 1   
    13    8   10 1   
    14    8   11 2   
    15    9   23 1   
    16   10   24 1   
    17   10   25 1   
    18   12   13 1   
    19   12   27 1   
    20   13   14 1   
    21   13   15 1   
    22   13   28 1   
    23   14   29 1   
    24   14   30 1   
    25   14   31 1   
    26   15   16 1   
    27   15   17 1   
@<TRIPOS>SUBSTRUCTURE
     1 109         1 TEMP              0 ****  ****    0 ROOT
