@<TRIPOS>MOLECULE
109
   33    33     1     0     0
SMALL
bcc


@<TRIPOS>ATOM
      1 C1          0.4090   -0.6910    0.5510 ca        1 109     -0.169900
      2 C2          1.2120    0.4500    0.4630 ca        1 109     -0.156000
      3 C3          2.2780    0.5720    1.3630 ca        1 109      0.169100
      4 C4          2.5060   -0.4320    2.3310 ca        1 109     -0.155300
      5 C5          1.8650   -1.6670    2.2000 ca        1 109     -0.051000
      6 C6          0.8050   -1.8030    1.3030 ca        1 109     -0.113000
      7 C7          3.2170   -0.0530    3.5860 c3        1 109      0.186100
      8 C8         -1.0040   -0.5840    0.1020 ce        1 109      0.583800
      9 O1          3.0420    1.7060    1.4720 oh        1 109     -0.507100
     10 N1         -1.7910    0.0710    1.1960 n4        1 109     -0.844600
     11 N2         -1.6010   -0.9330   -0.9710 n2        1 109     -0.708100
     12 N           2.3820    0.9420    4.3450 n4        1 109     -0.764000
     13 CA          1.0840    0.3830    4.8730 c3        1 109      0.013500
     14 CB          0.6430    1.0980    6.1380 c3        1 109     -0.121100
     15 C          -0.0480    0.5010    3.8120 c         1 109      0.913600
     16 O          -0.0180    1.4540    2.9770 o         1 109     -0.819300
     17 OXT        -0.9360   -0.3910    3.7990 o         1 109     -0.819300
     18 H2          0.9610    1.2750   -0.2200 ha        1 109      0.163000
     19 H5          2.1340   -2.5050    2.8630 ha        1 109      0.165000
     20 H6          0.2380   -2.7460    1.2590 ha        1 109      0.168000
     21 H71         4.2020    0.4470    3.3490 hx        1 109      0.109200
     22 H72         3.3990   -0.9480    4.2450 hx        1 109      0.109200
     23 HO1         2.8090    2.3120    0.7490 ho        1 109      0.455000
     24 HN11       -2.7390    0.3100    0.9050 hn        1 109      0.490467
     25 HN12       -1.2770    0.9220    1.5240 hn        1 109      0.490467
     26 HN2        -1.0550   -1.3720   -1.6830 hn        1 109      0.470400
     27 H           2.1340    1.7180    3.7030 hn        1 109      0.459300
     28 HA          1.2470   -0.7130    5.0900 hx        1 109      0.105700
     29 HB1         0.4610    2.1840    5.9510 hc        1 109      0.074700
     30 HB2        -0.3230    0.6340    6.4670 hc        1 109      0.074700
     31 HB3         1.3900    0.9830    6.9600 hc        1 109      0.074700
     32 H13        -1.8170   -0.5650    2.0240 hn        1 109      0.490467
     33 H21         2.9330    1.3130    5.1220 hn        1 109      0.459300
@<TRIPOS>BOND
     1    1    2 ar  
     2    1    6 ar  
     3    1    8 1   
     4    2    3 ar  
     5    2   18 1   
     6    3    4 ar  
     7    3    9 1   
     8    4    5 ar  
     9    4    7 1   
    10    5    6 ar  
    11    5   19 1   
    12    6   20 1   
    13    7   12 1   
    14    7   21 1   
    15    7   22 1   
    16    8   10 1   
    17    8   11 2   
    18    9   23 1   
    19   10   24 1   
    20   10   25 1   
    21   10   32 1   
    22   11   26 1   
    23   12   13 1   
    24   12   27 1   
    25   12   33 1   
    26   13   14 1   
    27   13   15 1   
    28   13   28 1   
    29   14   29 1   
    30   14   30 1   
    31   14   31 1   
    32   15   16 1   
    33   15   17 1   
@<TRIPOS>SUBSTRUCTURE
     1 109         1 TEMP              0 ****  ****    0 ROOT
