@<TRIPOS>MOLECULE
109
   33    33     1     0     0
SMALL
bcc


@<TRIPOS>ATOM
      1 C1          0.4350   -0.7230    0.5580 ca        1 109     -0.169900
      2 C2          1.1990    0.4430    0.4600 ca        1 109     -0.156000
      3 C3          2.2610    0.6090    1.3580 ca        1 109      0.169100
      4 C4          2.5240   -0.3800    2.3330 ca        1 109     -0.155300
      5 C5          1.9240   -1.6360    2.2130 ca        1 109     -0.051000
      6 C6          0.8690   -1.8150    1.3180 ca        1 109     -0.113000
      7 C7          3.2220    0.0330    3.5850 c3        1 109      0.186100
      8 C8         -0.9810   -0.6660    0.1100 ce        1 109      0.583800
      9 O1          2.9870    1.7680    1.4570 oh        1 109     -0.507100
     10 N1         -1.7890   -0.0290    1.1990 nz        1 109     -0.844600
     11 N2         -1.5680   -1.0450   -0.9600 n2        1 109     -0.708100
     12 N           2.3550    1.0050    4.3360 ny        1 109     -0.764000
     13 CA          1.0770    0.4080    4.8710 c3        1 109      0.013500
     14 CB          0.6130    1.1170    6.1300 c3        1 109     -0.121100
     15 C          -0.0600    0.4790    3.8100 c         1 109      0.913600
     16 O          -0.0620    1.4270    2.9670 o         1 109     -0.819300
     17 OXT        -0.9180   -0.4420    3.8040 o         1 109     -0.819300
     18 H2          0.9210    1.2540   -0.2300 ha        1 109      0.163000
     19 H5          2.2210   -2.4600    2.8830 ha        1 109      0.165000
     20 H6          0.3330   -2.7760    1.2820 ha        1 109      0.168000
     21 H71         4.1900    0.5640    3.3420 hx        1 109      0.109200
     22 H72         3.4340   -0.8500    4.2510 hx        1 109      0.109200
     23 HO1         2.7330    2.3600    0.7300 ho        1 109      0.455000
     24 HN11       -1.7940   -0.6590    2.0330 hn        1 109      0.490467
     25 HN12       -2.7450    0.1760    0.9070 hn        1 109      0.490467
     26 HN2        -1.0070   -1.4710   -1.6690 hn        1 109      0.470400
     27 H           2.8930    1.4010    5.1110 hn        1 109      0.459300
     28 HA          1.2760   -0.6800    5.0960 hx        1 109      0.105700
     29 HB1        -0.3370    0.6240    6.4630 hc        1 109      0.074700
     30 HB2         1.3630    1.0330    6.9530 hc        1 109      0.074700
     31 HB3         0.3950    2.1960    5.9350 hc        1 109      0.074700
     32 H13        -1.3040    0.8410    1.5200 hn        1 109      0.490467
     33 H21         2.0800    1.7680    3.6890 hn        1 109      0.459300
@<TRIPOS>BOND
     1    1    2 ar  
     2    1    6 ar  
     3    1    8 1   
     4    2    3 ar  
     5    2   18 1   
     6    3    4 ar  
     7    3    9 1   
     8    4    5 ar  
     9    4    7 1   
    10    5    6 ar  
    11    5   19 1   
    12    6   20 1   
    13    7   12 1   
    14    7   21 1   
    15    7   22 1   
    16    8   10 1   
    17    8   11 2   
    18    9   23 1   
    19   10   24 1   
    20   10   25 1   
    21   10   32 1   
    22   11   26 1   
    23   12   13 1   
    24   12   27 1   
    25   12   33 1   
    26   13   14 1   
    27   13   15 1   
    28   13   28 1   
    29   14   29 1   
    30   14   30 1   
    31   14   31 1   
    32   15   16 1   
    33   15   17 1   
@<TRIPOS>SUBSTRUCTURE
     1 109         1 TEMP              0 ****  ****    0 ROOT
