@<TRIPOS>MOLECULE
109
   31    31     1     0     0
SMALL
bcc


@<TRIPOS>ATOM
      1 C1          0.3860   -0.1020    3.0990 ca        1 109     -0.131900
      2 C2         -0.7660   -0.7760    2.7020 ca        1 109     -0.119000
      3 C3         -1.1600   -0.7240    1.3540 ca        1 109      0.114100
      4 C4         -0.4080   -0.0110    0.3960 ca        1 109     -0.109300
      5 C5          0.7510    0.6410    0.8270 ca        1 109     -0.088000
      6 C6          1.1490    0.6010    2.1610 ca        1 109     -0.170000
      7 C7         -0.8900    0.0390   -1.0250 c3        1 109      0.178100
      8 C8          0.8090   -0.1220    4.5350 ce        1 109      0.654800
      9 O1         -2.3340   -1.3840    1.0670 oh        1 109     -0.514100
     10 N1          0.9790    1.1630    5.1050 nh        1 109     -0.955800
     11 N2          0.9200   -1.2620    5.1490 n2        1 109     -0.828100
     12 N           0.0590    0.6010   -1.9740 n3        1 109     -0.796200
     13 CA         -0.5480    0.7950   -3.2940 c3        1 109      0.025500
     14 CB          0.4470    1.3890   -4.2840 c3        1 109     -0.067100
     15 C          -1.1600   -0.4870   -3.9490 c         1 109      0.889600
     16 O          -0.8460   -1.6180   -3.4760 o         1 109     -0.840800
     17 OXT        -1.9490   -0.3110   -4.9160 o         1 109     -0.840800
     18 H2         -1.3690   -1.3490    3.4210 ha        1 109      0.155000
     19 H5          1.3620    1.2070    0.1050 ha        1 109      0.155000
     20 H6          2.0720    1.1130    2.4650 ha        1 109      0.115000
     21 H71        -1.8200    0.6800   -1.0390 h1        1 109      0.061700
     22 H72        -1.1940   -1.0080   -1.3450 h1        1 109      0.061700
     23 HO1        -2.4220   -1.4570    0.1040 ho        1 109      0.440000
     24 HN11        1.6300    1.2320    5.8520 hn        1 109      0.390300
     25 HN12        1.0420    1.9070    4.4480 hn        1 109      0.390300
     26 HN2         1.2070   -1.2210    6.1040 hn        1 109      0.368400
     27 H           0.8180   -0.0530   -2.0770 hn        1 109      0.348800
     28 HA         -1.3940    1.5310   -3.1620 h1        1 109      0.042700
     29 HB1         1.3190    0.7080   -4.4310 hc        1 109      0.023700
     30 HB2        -0.0760    1.5140   -5.2630 hc        1 109      0.023700
     31 HB3         0.8240    2.3820   -3.9390 hc        1 109      0.023700
@<TRIPOS>BOND
     1    1    2 ar  
     2    1    6 ar  
     3    1    8 1   
     4    2    3 ar  
     5    2   18 1   
     6    3    4 ar  
     7    3    9 1   
     8    4    5 ar  
     9    4    7 1   
    10    5    6 ar  
    11    5   19 1   
    12    6   20 1   
    13    7   12 1   
    14    7   21 1   
    15    7   22 1   
    16    8   10 1   
    17    8   11 2   
    18    9   23 1   
    19   10   24 1   
    20   10   25 1   
    21   11   26 1   
    22   12   13 1   
    23   12   27 1   
    24   13   14 1   
    25   13   15 1   
    26   13   28 1   
    27   14   29 1   
    28   14   30 1   
    29   14   31 1   
    30   15   16 1   
    31   15   17 1   
@<TRIPOS>SUBSTRUCTURE
     1 109         1 TEMP              0 ****  ****    0 ROOT
