@<TRIPOS>MOLECULE
109
   33    33     1     0     0
SMALL
bcc


@<TRIPOS>ATOM
      1 C1          0.4200   -0.6140    0.5200 ca        1 109     -0.169900
      2 C2          1.1340    0.5870    0.4770 ca        1 109     -0.156000
      3 C3          2.2100    0.7430    1.3610 ca        1 109      0.169100
      4 C4          2.5340   -0.2910    2.2700 ca        1 109     -0.155300
      5 C5          1.9820   -1.5610    2.0860 ca        1 109     -0.051000
      6 C6          0.9150   -1.7300    1.2040 ca        1 109     -0.113000
      7 C7          3.2450    0.0750    3.5290 c3        1 109      0.186100
      8 C8         -1.0070   -0.5890    0.1060 ce        1 109      0.583800
      9 O1          2.8900    1.9230    1.5150 oh        1 109     -0.507100
     10 N1         -1.8140   -0.0520    1.2480 n4        1 109     -0.844600
     11 N2         -1.6020   -0.9270   -0.9720 n2        1 109     -0.708100
     12 N           2.3570    0.9650    4.3560 n4        1 109     -0.764000
     13 CA          1.1160    0.2850    4.8790 c3        1 109      0.013500
     14 CB          0.6540    0.8980    6.1890 c3        1 109     -0.121100
     15 C          -0.0460    0.3720    3.8480 c         1 109      0.913600
     16 O          -0.1060    1.3670    3.0640 o         1 109     -0.819300
     17 OXT        -0.8670   -0.5820    3.8050 o         1 109     -0.819300
     18 H2          0.8080    1.4250   -0.1560 ha        1 109      0.163000
     19 H5          2.3280   -2.4100    2.6980 ha        1 109      0.165000
     20 H6          0.4180   -2.7090    1.1220 ha        1 109      0.168000
     21 H71         3.5070   -0.8360    4.1360 hx        1 109      0.109200
     22 H72         4.1840    0.6600    3.2990 hx        1 109      0.109200
     23 HO1         2.5960    2.5460    0.8300 ho        1 109      0.455000
     24 HN11       -2.7840    0.1310    0.9890 hn        1 109      0.490467
     25 HN12       -1.7740   -0.7290    2.0420 hn        1 109      0.490467
     26 HN2        -1.0420   -1.2860   -1.7180 hn        1 109      0.470400
     27 H           2.0370    1.7520    3.7610 hn        1 109      0.459300
     28 HA          1.3640   -0.8060    5.0350 hx        1 109      0.105700
     29 HB1         1.4260    0.7960    6.9890 hc        1 109      0.074700
     30 HB2         0.3880    1.9760    6.0630 hc        1 109      0.074700
     31 HB3        -0.2680    0.3470    6.5110 hc        1 109      0.074700
     32 H13        -1.3570    0.8170    1.6110 hn        1 109      0.490467
     33 H21         2.8970    1.3350    5.1410 hn        1 109      0.459300
@<TRIPOS>BOND
     1    1    2 ar  
     2    1    6 ar  
     3    1    8 1   
     4    2    3 ar  
     5    2   18 1   
     6    3    4 ar  
     7    3    9 1   
     8    4    5 ar  
     9    4    7 1   
    10    5    6 ar  
    11    5   19 1   
    12    6   20 1   
    13    7   12 1   
    14    7   21 1   
    15    7   22 1   
    16    8   10 1   
    17    8   11 2   
    18    9   23 1   
    19   10   24 1   
    20   10   25 1   
    21   10   32 1   
    22   11   26 1   
    23   12   13 1   
    24   12   27 1   
    25   12   33 1   
    26   13   14 1   
    27   13   15 1   
    28   13   28 1   
    29   14   29 1   
    30   14   30 1   
    31   14   31 1   
    32   15   16 1   
    33   15   17 1   
@<TRIPOS>SUBSTRUCTURE
     1 109         1 TEMP              0 ****  ****    0 ROOT
