@<TRIPOS>MOLECULE
10A
   71    70     1     0     0
SMALL
bcc


@<TRIPOS>ATOM
      1 C1         12.4300    0.6620    0.0070 c3        1 10A     -0.094100
      2 C2         11.0680    1.3080    0.0140 c3        1 10A     -0.079400
      3 C3          9.9630    0.2720    0.0030 c3        1 10A     -0.079400
      4 C4          8.5980    0.9260    0.0100 c3        1 10A     -0.079400
      5 C5          7.4950   -0.1110   -0.0010 c3        1 10A     -0.079400
      6 C6          6.1300    0.5440    0.0060 c3        1 10A     -0.079400
      7 C7          5.0280   -0.4950   -0.0050 c3        1 10A     -0.079400
      8 C8          3.6640    0.1640    0.0020 c3        1 10A     -0.080400
      9 C9          2.5650   -0.8840   -0.0100 c3        1 10A     -0.102400
     10 C10         1.2150   -0.1800   -0.0020 c3        1 10A      0.112800
     11 N1          0.0000   -1.0800   -0.0120 n4        1 10A     -0.605800
     12 C11         0.0000   -1.9260   -1.2380 c3        1 10A      0.088100
     13 C12        -0.0000   -1.9530    1.1960 c3        1 10A      0.088100
     14 C13        -1.2150   -0.1800   -0.0020 c3        1 10A      0.112800
     15 C14        -2.5650   -0.8840   -0.0090 c3        1 10A     -0.102400
     16 C15        -3.6640    0.1640    0.0020 c3        1 10A     -0.080400
     17 C16        -5.0280   -0.4950   -0.0050 c3        1 10A     -0.079400
     18 C17        -6.1300    0.5440    0.0060 c3        1 10A     -0.079400
     19 C18        -7.4950   -0.1110   -0.0010 c3        1 10A     -0.079400
     20 C19        -8.5980    0.9260    0.0100 c3        1 10A     -0.079400
     21 C20        -9.9630    0.2720    0.0030 c3        1 10A     -0.079400
     22 C21       -11.0680    1.3080    0.0140 c3        1 10A     -0.079400
     23 C22       -12.4300    0.6620    0.0070 c3        1 10A     -0.094100
     24 H11        13.2280    1.4420    0.0160 hc        1 10A      0.036367
     25 H12        12.5630    0.0110    0.9050 hc        1 10A      0.036367
     26 H13        12.5630    0.0310   -0.9050 hc        1 10A      0.036367
     27 H21        10.9630    1.9560    0.9240 hc        1 10A      0.039700
     28 H22        10.9630    1.9760   -0.8810 hc        1 10A      0.039700
     29 H31        10.0660   -0.3760   -0.9070 hc        1 10A      0.041200
     30 H32        10.0660   -0.3960    0.8980 hc        1 10A      0.041200
     31 H41         8.4960    1.5740    0.9200 hc        1 10A      0.041700
     32 H42         8.4960    1.5940   -0.8860 hc        1 10A      0.041700
     33 H51         7.5980   -0.7590   -0.9110 hc        1 10A      0.042700
     34 H52         7.5980   -0.7790    0.8950 hc        1 10A      0.042700
     35 H61         6.0290    1.1920    0.9160 hc        1 10A      0.045200
     36 H62         6.0290    1.2120   -0.8900 hc        1 10A      0.045200
     37 H71         5.1310   -1.1420   -0.9160 hc        1 10A      0.047200
     38 H72         5.1310   -1.1610    0.8910 hc        1 10A      0.047200
     39 H81         3.5640    0.8100    0.9130 hc        1 10A      0.054200
     40 H82         3.5640    0.8300   -0.8950 hc        1 10A      0.054200
     41 H91         2.6780   -1.5240   -0.9240 hc        1 10A      0.064200
     42 H92         2.6780   -1.5440    0.8900 hc        1 10A      0.064200
     43 H101        1.1410    0.4640    0.9220 hx        1 10A      0.097700
     44 H102        1.1410    0.4840   -0.9110 hx        1 10A      0.097700
     45 H111        0.9130   -2.5790   -1.2440 hx        1 10A      0.100033
     46 H112       -0.9130   -2.5790   -1.2440 hx        1 10A      0.100033
     47 H113        0.0000   -1.2670   -2.1460 hx        1 10A      0.100033
     48 H121       -0.0000   -1.3130    2.1180 hx        1 10A      0.100033
     49 H122       -0.9130   -2.6050    1.1880 hx        1 10A      0.100033
     50 H123        0.9130   -2.6050    1.1880 hx        1 10A      0.100033
     51 H131       -1.1410    0.4640    0.9220 hx        1 10A      0.097700
     52 H132       -1.1410    0.4830   -0.9120 hx        1 10A      0.097700
     53 H141       -2.6780   -1.5240   -0.9230 hc        1 10A      0.064200
     54 H142       -2.6780   -1.5430    0.8910 hc        1 10A      0.064200
     55 H151       -3.5640    0.8110    0.9130 hc        1 10A      0.054200
     56 H152       -3.5640    0.8300   -0.8960 hc        1 10A      0.054200
     57 H161       -5.1310   -1.1420   -0.9160 hc        1 10A      0.047200
     58 H162       -5.1310   -1.1610    0.8910 hc        1 10A      0.047200
     59 H171       -6.0290    1.1920    0.9160 hc        1 10A      0.045200
     60 H172       -6.0290    1.2120   -0.8900 hc        1 10A      0.045200
     61 H181       -7.5980   -0.7590   -0.9110 hc        1 10A      0.042700
     62 H182       -7.5980   -0.7780    0.8950 hc        1 10A      0.042700
     63 H191       -8.4960    1.5740    0.9200 hc        1 10A      0.041700
     64 H192       -8.4960    1.5940   -0.8860 hc        1 10A      0.041700
     65 H201      -10.0660   -0.3760   -0.9070 hc        1 10A      0.041200
     66 H202      -10.0660   -0.3960    0.8980 hc        1 10A      0.041200
     67 H211      -10.9630    1.9560    0.9240 hc        1 10A      0.039700
     68 H212      -10.9630    1.9760   -0.8810 hc        1 10A      0.039700
     69 H221      -13.2280    1.4420    0.0160 hc        1 10A      0.036367
     70 H222      -12.5630    0.0310   -0.9050 hc        1 10A      0.036367
     71 H223      -12.5630    0.0110    0.9050 hc        1 10A      0.036367
@<TRIPOS>BOND
     1    1    2 1   
     2    1   24 1   
     3    1   25 1   
     4    1   26 1   
     5    2    3 1   
     6    2   27 1   
     7    2   28 1   
     8    3    4 1   
     9    3   29 1   
    10    3   30 1   
    11    4    5 1   
    12    4   31 1   
    13    4   32 1   
    14    5    6 1   
    15    5   33 1   
    16    5   34 1   
    17    6    7 1   
    18    6   35 1   
    19    6   36 1   
    20    7    8 1   
    21    7   37 1   
    22    7   38 1   
    23    8    9 1   
    24    8   39 1   
    25    8   40 1   
    26    9   10 1   
    27    9   41 1   
    28    9   42 1   
    29   10   11 1   
    30   10   43 1   
    31   10   44 1   
    32   11   12 1   
    33   11   13 1   
    34   11   14 1   
    35   12   45 1   
    36   12   46 1   
    37   12   47 1   
    38   13   48 1   
    39   13   49 1   
    40   13   50 1   
    41   14   15 1   
    42   14   51 1   
    43   14   52 1   
    44   15   16 1   
    45   15   53 1   
    46   15   54 1   
    47   16   17 1   
    48   16   55 1   
    49   16   56 1   
    50   17   18 1   
    51   17   57 1   
    52   17   58 1   
    53   18   19 1   
    54   18   59 1   
    55   18   60 1   
    56   19   20 1   
    57   19   61 1   
    58   19   62 1   
    59   20   21 1   
    60   20   63 1   
    61   20   64 1   
    62   21   22 1   
    63   21   65 1   
    64   21   66 1   
    65   22   23 1   
    66   22   67 1   
    67   22   68 1   
    68   23   69 1   
    69   23   70 1   
    70   23   71 1   
@<TRIPOS>SUBSTRUCTURE
     1 10A         1 TEMP              0 ****  ****    0 ROOT
