@<TRIPOS>MOLECULE
10A
   71    70     1     0     0
SMALL
bcc


@<TRIPOS>ATOM
      1 C1         -8.5760   -9.1050   -0.7110 c3        1 10A     -0.094100
      2 C2         -7.6360   -8.1950    0.0950 c3        1 10A     -0.079400
      3 C3         -6.8680   -7.2920   -0.8550 c3        1 10A     -0.079400
      4 C4         -6.0750   -6.2250   -0.0310 c3        1 10A     -0.079400
      5 C5         -5.1480   -5.4090   -0.9880 c3        1 10A     -0.079400
      6 C6         -4.6490   -4.1460   -0.2700 c3        1 10A     -0.079400
      7 C7         -3.3610   -3.6280   -0.9680 c3        1 10A     -0.079400
      8 C8         -3.0700   -2.2390   -0.5070 c3        1 10A     -0.080400
      9 C9         -1.5660   -1.8780   -0.8450 c3        1 10A     -0.102400
     10 C10        -1.2970   -0.3570   -0.5120 c3        1 10A      0.112800
     11 N1          0.1620   -0.0970   -0.5270 n4        1 10A     -0.605800
     12 C11         0.7450   -0.6790   -1.7160 c3        1 10A      0.088100
     13 C12         0.7560   -0.6720    0.6220 c3        1 10A      0.088100
     14 C13         0.4000    1.3580   -0.5250 c3        1 10A      0.112800
     15 C14         1.8620    1.6630    0.0300 c3        1 10A     -0.102400
     16 C15         2.2110    3.1590   -0.2340 c3        1 10A     -0.080400
     17 C16         3.3700    3.6100    0.7220 c3        1 10A     -0.079400
     18 C17         4.0170    4.9310    0.1740 c3        1 10A     -0.079400
     19 C18         4.9570    5.5250    1.2440 c3        1 10A     -0.079400
     20 C19         5.9360    6.4740    0.5870 c3        1 10A     -0.079400
     21 C20         6.7660    7.1740    1.6660 c3        1 10A     -0.079400
     22 C21         7.8870    7.9410    1.0180 c3        1 10A     -0.079400
     23 C22         8.7250    8.6260    2.0880 c3        1 10A     -0.094100
     24 H11        -9.2360   -8.5540   -1.1870 hc        1 10A      0.036367
     25 H12        -8.0520   -9.6270   -1.3630 hc        1 10A      0.036367
     26 H13        -9.0390   -9.7140   -0.1020 hc        1 10A      0.036367
     27 H21        -7.0030   -8.7470    0.6070 hc        1 10A      0.039700
     28 H22        -8.1620   -7.6460    0.7110 hc        1 10A      0.039700
     29 H31        -7.4940   -6.8420   -1.4550 hc        1 10A      0.041200
     30 H32        -6.2440   -7.8290   -1.3800 hc        1 10A      0.041200
     31 H41        -6.7060   -5.6160    0.4110 hc        1 10A      0.041700
     32 H42        -5.5180   -6.6840    0.6590 hc        1 10A      0.041700
     33 H51        -5.6530   -5.1510   -1.7930 hc        1 10A      0.042700
     34 H52        -4.3860   -5.9570   -1.2450 hc        1 10A      0.042700
     35 H61        -5.3470   -3.4480   -0.3070 hc        1 10A      0.045200
     36 H62        -4.4500   -4.3590    0.6650 hc        1 10A      0.045200
     37 H71        -2.6190   -4.2030   -0.7430 hc        1 10A      0.047200
     38 H72        -3.4930   -3.6290   -1.9360 hc        1 10A      0.047200
     39 H81        -3.2090   -2.1800    0.4490 hc        1 10A      0.054200
     40 H82        -3.6680   -1.6120   -0.9630 hc        1 10A      0.054200
     41 H91        -0.9590   -2.4480   -0.3000 hc        1 10A      0.064200
     42 H92        -1.3960   -2.0410   -1.8120 hc        1 10A      0.064200
     43 H101       -1.7330    0.2020   -1.1800 hx        1 10A      0.097700
     44 H102       -1.6590   -0.1470    0.3770 hx        1 10A      0.097700
     45 H111        0.9730   -1.6170   -1.5420 hx        1 10A      0.100033
     46 H112        1.5720   -0.1740   -1.9610 hx        1 10A      0.100033
     47 H113        0.0990   -0.6310   -2.4560 hx        1 10A      0.100033
     48 H121        1.7320   -0.6090    0.5500 hx        1 10A      0.100033
     49 H122        0.4950   -1.6080    0.6900 hx        1 10A      0.100033
     50 H123        0.4520   -0.1830    1.4310 hx        1 10A      0.100033
     51 H131        0.3200    1.7050   -1.4480 hx        1 10A      0.097700
     52 H132       -0.2730    1.8020    0.0550 hx        1 10A      0.097700
     53 H141        2.5120    1.0910   -0.4270 hc        1 10A      0.064200
     54 H142        1.8900    1.4840    0.9970 hc        1 10A      0.064200
     55 H151        2.4950    3.2670   -1.1620 hc        1 10A      0.054200
     56 H152        1.4250    3.7070   -0.0710 hc        1 10A      0.054200
     57 H161        3.0070    3.7720    1.6200 hc        1 10A      0.047200
     58 H162        4.0500    2.9070    0.7670 hc        1 10A      0.047200
     59 H171        3.3150    5.5740   -0.0360 hc        1 10A      0.045200
     60 H172        4.5320    4.7300   -0.6390 hc        1 10A      0.045200
     61 H181        4.4300    6.0070    1.9040 hc        1 10A      0.042700
     62 H182        5.4450    4.8090    1.6800 hc        1 10A      0.042700
     63 H191        6.5300    5.9710   -0.0070 hc        1 10A      0.041700
     64 H192        5.4490    7.1380    0.0720 hc        1 10A      0.041700
     65 H201        7.1400    6.5020    2.2800 hc        1 10A      0.041200
     66 H202        6.1950    7.7920    2.1670 hc        1 10A      0.041200
     67 H211        8.4590    7.3160    0.4990 hc        1 10A      0.039700
     68 H212        7.5120    8.6210    0.4120 hc        1 10A      0.039700
     69 H221        9.5900    8.9020    1.7010 hc        1 10A      0.036367
     70 H222        8.2490    9.4160    2.4210 hc        1 10A      0.036367
     71 H223        8.8840    7.9990    2.8350 hc        1 10A      0.036367
@<TRIPOS>BOND
     1    1    2 1   
     2    1   24 1   
     3    1   25 1   
     4    1   26 1   
     5    2    3 1   
     6    2   27 1   
     7    2   28 1   
     8    3    4 1   
     9    3   29 1   
    10    3   30 1   
    11    4    5 1   
    12    4   31 1   
    13    4   32 1   
    14    5    6 1   
    15    5   33 1   
    16    5   34 1   
    17    6    7 1   
    18    6   35 1   
    19    6   36 1   
    20    7    8 1   
    21    7   37 1   
    22    7   38 1   
    23    8    9 1   
    24    8   39 1   
    25    8   40 1   
    26    9   10 1   
    27    9   41 1   
    28    9   42 1   
    29   10   11 1   
    30   10   43 1   
    31   10   44 1   
    32   11   12 1   
    33   11   13 1   
    34   11   14 1   
    35   12   45 1   
    36   12   46 1   
    37   12   47 1   
    38   13   48 1   
    39   13   49 1   
    40   13   50 1   
    41   14   15 1   
    42   14   51 1   
    43   14   52 1   
    44   15   16 1   
    45   15   53 1   
    46   15   54 1   
    47   16   17 1   
    48   16   55 1   
    49   16   56 1   
    50   17   18 1   
    51   17   57 1   
    52   17   58 1   
    53   18   19 1   
    54   18   59 1   
    55   18   60 1   
    56   19   20 1   
    57   19   61 1   
    58   19   62 1   
    59   20   21 1   
    60   20   63 1   
    61   20   64 1   
    62   21   22 1   
    63   21   65 1   
    64   21   66 1   
    65   22   23 1   
    66   22   67 1   
    67   22   68 1   
    68   23   69 1   
    69   23   70 1   
    70   23   71 1   
@<TRIPOS>SUBSTRUCTURE
     1 10A         1 TEMP              0 ****  ****    0 ROOT
