@<TRIPOS>MOLECULE
10A
   71    70     1     0     0
SMALL
bcc


@<TRIPOS>ATOM
      1 C1          0.5300    0.0700   -0.7420 c3        1 10A     -0.094100
      2 C2          1.9990   -0.1400   -0.4800 c3        1 10A     -0.079400
      3 C3          2.3390    0.0850    0.9780 c3        1 10A     -0.079400
      4 C4          3.8150   -0.1280    1.2370 c3        1 10A     -0.079400
      5 C5          4.1540    0.0980    2.6950 c3        1 10A     -0.079400
      6 C6          5.6300   -0.1150    2.9520 c3        1 10A     -0.079400
      7 C7          5.9670    0.1110    4.4110 c3        1 10A     -0.079400
      8 C8          7.4450   -0.1020    4.6650 c3        1 10A     -0.080400
      9 C9          7.7740    0.1220    6.1300 c3        1 10A     -0.102400
     10 C10         9.2700   -0.0680    6.3350 c3        1 10A      0.112800
     11 N1          9.7470    0.0010    7.7690 n4        1 10A     -0.605800
     12 C11         9.1980    1.2170    8.4320 c3        1 10A      0.088100
     13 C12         9.3030   -1.2140    8.5090 c3        1 10A      0.088100
     14 C13        11.2570    0.0680    7.7380 c3        1 10A      0.112800
     15 C14        11.9500   -0.1210    9.0810 c3        1 10A     -0.102400
     16 C15        13.4410    0.1020    8.9010 c3        1 10A     -0.080400
     17 C16        14.1740   -0.1100   10.2090 c3        1 10A     -0.079400
     18 C17        15.6620    0.1150   10.0390 c3        1 10A     -0.079400
     19 C18        16.3970   -0.0980   11.3450 c3        1 10A     -0.079400
     20 C19        17.8850    0.1270   11.1760 c3        1 10A     -0.079400
     21 C20        18.6220   -0.0850   12.4820 c3        1 10A     -0.079400
     22 C21        20.1100    0.1400   12.3150 c3        1 10A     -0.079400
     23 C22        20.8480   -0.0700   13.6120 c3        1 10A     -0.094100
     24 H11         0.2270    1.1120   -0.4780 hc        1 10A      0.036367
     25 H12        -0.0850   -0.6370   -0.1350 hc        1 10A      0.036367
     26 H13         0.3010   -0.1010   -1.8210 hc        1 10A      0.036367
     27 H21         2.6000    0.5610   -1.1170 hc        1 10A      0.039700
     28 H22         2.2880   -1.1840   -0.7740 hc        1 10A      0.039700
     29 H31         1.7400   -0.6170    1.6160 hc        1 10A      0.041200
     30 H32         2.0510    1.1280    1.2740 hc        1 10A      0.041200
     31 H41         4.1020   -1.1710    0.9410 hc        1 10A      0.041700
     32 H42         4.4140    0.5740    0.5980 hc        1 10A      0.041700
     33 H51         3.5550   -0.6040    3.3330 hc        1 10A      0.042700
     34 H52         3.8660    1.1410    2.9900 hc        1 10A      0.042700
     35 H61         6.2280    0.5880    2.3140 hc        1 10A      0.045200
     36 H62         5.9170   -1.1590    2.6560 hc        1 10A      0.045200
     37 H71         5.3690   -0.5930    5.0480 hc        1 10A      0.047200
     38 H72         5.6790    1.1550    4.7060 hc        1 10A      0.047200
     39 H81         7.7300   -1.1450    4.3660 hc        1 10A      0.054200
     40 H82         8.0410    0.6050    4.0290 hc        1 10A      0.054200
     41 H91         7.4660    1.1610    6.4220 hc        1 10A      0.064200
     42 H92         7.1830   -0.5980    6.7540 hc        1 10A      0.064200
     43 H101        9.8200    0.7350    5.7630 hx        1 10A      0.097700
     44 H102        9.5810   -1.0750    5.9320 hx        1 10A      0.097700
     45 H111        9.4250    2.1180    7.8040 hx        1 10A      0.100033
     46 H112        8.0860    1.1100    8.5500 hx        1 10A      0.100033
     47 H113        9.6650    1.3370    9.4460 hx        1 10A      0.100033
     48 H121        9.8190   -2.1170    8.0850 hx        1 10A      0.100033
     49 H122        9.5650   -1.1070    9.5950 hx        1 10A      0.100033
     50 H123        8.1920   -1.3340    8.4070 hx        1 10A      0.100033
     51 H131       11.5340    1.0740    7.3100 hx        1 10A      0.097700
     52 H132       11.6120   -0.7350    7.0290 hx        1 10A      0.097700
     53 H141       11.7770   -1.1600    9.4690 hc        1 10A      0.064200
     54 H142       11.5590    0.6000    9.8450 hc        1 10A      0.064200
     55 H151       13.6280    1.1450    8.5310 hc        1 10A      0.054200
     56 H152       13.8410   -0.6060    8.1270 hc        1 10A      0.054200
     57 H161       13.7740    0.5940   10.9860 hc        1 10A      0.047200
     58 H162       13.9920   -1.1540   10.5800 hc        1 10A      0.047200
     59 H171       16.0630   -0.5890    9.2620 hc        1 10A      0.045200
     60 H172       15.8460    1.1580    9.6690 hc        1 10A      0.045200
     61 H181       15.9960    0.6050   12.1220 hc        1 10A      0.042700
     62 H182       16.2140   -1.1410   11.7150 hc        1 10A      0.042700
     63 H191       18.0690    1.1700   10.8060 hc        1 10A      0.041700
     64 H192       18.2870   -0.5760   10.3990 hc        1 10A      0.041700
     65 H201       18.2210    0.6180   13.2590 hc        1 10A      0.041200
     66 H202       18.4390   -1.1280   12.8520 hc        1 10A      0.041200
     67 H211       20.5090   -0.5630   11.5360 hc        1 10A      0.039700
     68 H212       20.2910    1.1830   11.9430 hc        1 10A      0.039700
     69 H221       20.4810    0.6380   14.3940 hc        1 10A      0.036367
     70 H222       21.9420    0.1000   13.4670 hc        1 10A      0.036367
     71 H223       20.7000   -1.1120   13.9860 hc        1 10A      0.036367
@<TRIPOS>BOND
     1    1    2 1   
     2    1   24 1   
     3    1   25 1   
     4    1   26 1   
     5    2    3 1   
     6    2   27 1   
     7    2   28 1   
     8    3    4 1   
     9    3   29 1   
    10    3   30 1   
    11    4    5 1   
    12    4   31 1   
    13    4   32 1   
    14    5    6 1   
    15    5   33 1   
    16    5   34 1   
    17    6    7 1   
    18    6   35 1   
    19    6   36 1   
    20    7    8 1   
    21    7   37 1   
    22    7   38 1   
    23    8    9 1   
    24    8   39 1   
    25    8   40 1   
    26    9   10 1   
    27    9   41 1   
    28    9   42 1   
    29   10   11 1   
    30   10   43 1   
    31   10   44 1   
    32   11   12 1   
    33   11   13 1   
    34   11   14 1   
    35   12   45 1   
    36   12   46 1   
    37   12   47 1   
    38   13   48 1   
    39   13   49 1   
    40   13   50 1   
    41   14   15 1   
    42   14   51 1   
    43   14   52 1   
    44   15   16 1   
    45   15   53 1   
    46   15   54 1   
    47   16   17 1   
    48   16   55 1   
    49   16   56 1   
    50   17   18 1   
    51   17   57 1   
    52   17   58 1   
    53   18   19 1   
    54   18   59 1   
    55   18   60 1   
    56   19   20 1   
    57   19   61 1   
    58   19   62 1   
    59   20   21 1   
    60   20   63 1   
    61   20   64 1   
    62   21   22 1   
    63   21   65 1   
    64   21   66 1   
    65   22   23 1   
    66   22   67 1   
    67   22   68 1   
    68   23   69 1   
    69   23   70 1   
    70   23   71 1   
@<TRIPOS>SUBSTRUCTURE
     1 10A         1 TEMP              0 ****  ****    0 ROOT
