@<TRIPOS>MOLECULE
10A
   71    70     1     0     0
SMALL
bcc


@<TRIPOS>ATOM
      1 C1          0.5320   -0.0600   -0.7450 c3        1 10A     -0.094100
      2 C2          2.0020    0.1460   -0.4820 c3        1 10A     -0.079400
      3 C3          2.3410   -0.0750    0.9760 c3        1 10A     -0.079400
      4 C4          3.8170    0.1330    1.2350 c3        1 10A     -0.079400
      5 C5          4.1540   -0.0900    2.6940 c3        1 10A     -0.079400
      6 C6          5.6310    0.1200    2.9520 c3        1 10A     -0.079400
      7 C7          5.9670   -0.1050    4.4110 c3        1 10A     -0.079400
      8 C8          7.4450    0.1060    4.6660 c3        1 10A     -0.080400
      9 C9          7.7730   -0.1210    6.1300 c3        1 10A     -0.102400
     10 C10         9.2690    0.0690    6.3360 c3        1 10A      0.112800
     11 N1          9.7450   -0.0040    7.7700 n4        1 10A     -0.605800
     12 C11         9.3000    1.2070    8.5150 c3        1 10A      0.088100
     13 C12         9.1990   -1.2240    8.4290 c3        1 10A      0.088100
     14 C13        11.2560   -0.0690    7.7400 c3        1 10A      0.112800
     15 C14        11.9490    0.1140    9.0830 c3        1 10A     -0.102400
     16 C15        13.4400   -0.1030    8.9010 c3        1 10A     -0.080400
     17 C16        14.1720    0.1010   10.2110 c3        1 10A     -0.079400
     18 C17        15.6610   -0.1140   10.0390 c3        1 10A     -0.079400
     19 C18        16.3960    0.0880   11.3470 c3        1 10A     -0.079400
     20 C19        17.8850   -0.1240   11.1750 c3        1 10A     -0.079400
     21 C20        18.6210    0.0770   12.4820 c3        1 10A     -0.079400
     22 C21        20.1110   -0.1340   12.3120 c3        1 10A     -0.079400
     23 C22        20.8470    0.0640   13.6120 c3        1 10A     -0.094100
     24 H11         0.3050    0.1080   -1.8250 hc        1 10A      0.036367
     25 H12        -0.0800    0.6520   -0.1410 hc        1 10A      0.036367
     26 H13         0.2260   -1.1000   -0.4770 hc        1 10A      0.036367
     27 H21         2.6010   -0.5600   -1.1170 hc        1 10A      0.039700
     28 H22         2.2960    1.1870   -0.7810 hc        1 10A      0.039700
     29 H31         1.7430    0.6300    1.6120 hc        1 10A      0.041200
     30 H32         2.0490   -1.1170    1.2750 hc        1 10A      0.041200
     31 H41         4.1080    1.1750    0.9360 hc        1 10A      0.041700
     32 H42         4.4140   -0.5720    0.5990 hc        1 10A      0.041700
     33 H51         3.8640   -1.1320    2.9920 hc        1 10A      0.042700
     34 H52         3.5560    0.6150    3.3300 hc        1 10A      0.042700
     35 H61         6.2280   -0.5840    2.3140 hc        1 10A      0.045200
     36 H62         5.9200    1.1630    2.6550 hc        1 10A      0.045200
     37 H71         5.6780   -1.1490    4.7060 hc        1 10A      0.047200
     38 H72         5.3680    0.5990    5.0480 hc        1 10A      0.047200
     39 H81         8.0400   -0.6000    4.0290 hc        1 10A      0.054200
     40 H82         7.7310    1.1500    4.3690 hc        1 10A      0.054200
     41 H91         7.1820    0.5980    6.7560 hc        1 10A      0.064200
     42 H92         7.4660   -1.1610    6.4200 hc        1 10A      0.064200
     43 H101        9.5790    1.0780    5.9380 hx        1 10A      0.097700
     44 H102        9.8200   -0.7310    5.7610 hx        1 10A      0.097700
     45 H111        9.5610    1.0950    9.6010 hx        1 10A      0.100033
     46 H112        8.1890    1.3250    8.4140 hx        1 10A      0.100033
     47 H113        9.8150    2.1120    8.0950 hx        1 10A      0.100033
     48 H121        9.4280   -2.1220    7.7970 hx        1 10A      0.100033
     49 H122        8.0870   -1.1190    8.5460 hx        1 10A      0.100033
     50 H123        9.6660   -1.3470    9.4420 hx        1 10A      0.100033
     51 H131       11.5340   -1.0730    7.3060 hx        1 10A      0.097700
     52 H132       11.6100    0.7390    7.0350 hx        1 10A      0.097700
     53 H141       11.7730    1.1500    9.4770 hc        1 10A      0.064200
     54 H142       11.5600   -0.6130    9.8430 hc        1 10A      0.064200
     55 H151       13.8380    0.6120    8.1330 hc        1 10A      0.054200
     56 H152       13.6310   -1.1420    8.5230 hc        1 10A      0.054200
     57 H161       13.7760   -0.6120   10.9820 hc        1 10A      0.047200
     58 H162       13.9850    1.1400   10.5920 hc        1 10A      0.047200
     59 H171       15.8510   -1.1520    9.6580 hc        1 10A      0.045200
     60 H172       16.0590    0.6000    9.2700 hc        1 10A      0.045200
     61 H181       16.2060    1.1260   11.7290 hc        1 10A      0.042700
     62 H182       16.0010   -0.6260   12.1160 hc        1 10A      0.042700
     63 H191       18.2820    0.5910   10.4070 hc        1 10A      0.041700
     64 H192       18.0760   -1.1610   10.7910 hc        1 10A      0.041700
     65 H201       18.2260   -0.6390   13.2510 hc        1 10A      0.041200
     66 H202       18.4300    1.1130   12.8670 hc        1 10A      0.041200
     67 H211       20.5040    0.5830   11.5430 hc        1 10A      0.039700
     68 H212       20.3000   -1.1700   11.9260 hc        1 10A      0.039700
     69 H221       20.4870   -0.6580   14.3840 hc        1 10A      0.036367
     70 H222       20.6910    1.0990   14.0010 hc        1 10A      0.036367
     71 H223       21.9430   -0.0950   13.4640 hc        1 10A      0.036367
@<TRIPOS>BOND
     1    1    2 1   
     2    1   24 1   
     3    1   25 1   
     4    1   26 1   
     5    2    3 1   
     6    2   27 1   
     7    2   28 1   
     8    3    4 1   
     9    3   29 1   
    10    3   30 1   
    11    4    5 1   
    12    4   31 1   
    13    4   32 1   
    14    5    6 1   
    15    5   33 1   
    16    5   34 1   
    17    6    7 1   
    18    6   35 1   
    19    6   36 1   
    20    7    8 1   
    21    7   37 1   
    22    7   38 1   
    23    8    9 1   
    24    8   39 1   
    25    8   40 1   
    26    9   10 1   
    27    9   41 1   
    28    9   42 1   
    29   10   11 1   
    30   10   43 1   
    31   10   44 1   
    32   11   12 1   
    33   11   13 1   
    34   11   14 1   
    35   12   45 1   
    36   12   46 1   
    37   12   47 1   
    38   13   48 1   
    39   13   49 1   
    40   13   50 1   
    41   14   15 1   
    42   14   51 1   
    43   14   52 1   
    44   15   16 1   
    45   15   53 1   
    46   15   54 1   
    47   16   17 1   
    48   16   55 1   
    49   16   56 1   
    50   17   18 1   
    51   17   57 1   
    52   17   58 1   
    53   18   19 1   
    54   18   59 1   
    55   18   60 1   
    56   19   20 1   
    57   19   61 1   
    58   19   62 1   
    59   20   21 1   
    60   20   63 1   
    61   20   64 1   
    62   21   22 1   
    63   21   65 1   
    64   21   66 1   
    65   22   23 1   
    66   22   67 1   
    67   22   68 1   
    68   23   69 1   
    69   23   70 1   
    70   23   71 1   
@<TRIPOS>SUBSTRUCTURE
     1 10A         1 TEMP              0 ****  ****    0 ROOT
