@<TRIPOS>MOLECULE
10A
   71    70     1     0     0
SMALL
bcc


@<TRIPOS>ATOM
      1 C1          0.5310   -0.0810   -0.7440 c3        1 10A     -0.094100
      2 C2          2.0020    0.1220   -0.4830 c3        1 10A     -0.079400
      3 C3          2.3400   -0.0900    0.9770 c3        1 10A     -0.079400
      4 C4          3.8180    0.1150    1.2330 c3        1 10A     -0.079400
      5 C5          4.1550   -0.0980    2.6940 c3        1 10A     -0.079400
      6 C6          5.6330    0.1080    2.9490 c3        1 10A     -0.079400
      7 C7          5.9670   -0.1060    4.4110 c3        1 10A     -0.079400
      8 C8          7.4470    0.1000    4.6630 c3        1 10A     -0.080400
      9 C9          7.7730   -0.1140    6.1300 c3        1 10A     -0.102400
     10 C10         9.2710    0.0690    6.3340 c3        1 10A      0.112800
     11 N1          9.7470    0.0100    7.7680 n4        1 10A     -0.605800
     12 C11         9.3100    1.2330    8.4980 c3        1 10A      0.088100
     13 C12         9.1910   -1.1980    8.4410 c3        1 10A      0.088100
     14 C13        11.2570   -0.0660    7.7390 c3        1 10A      0.112800
     15 C14        11.9500    0.1290    9.0800 c3        1 10A     -0.102400
     16 C15        13.4400   -0.1030    8.9020 c3        1 10A     -0.080400
     17 C16        14.1730    0.1150   10.2100 c3        1 10A     -0.079400
     18 C17        15.6600   -0.1180   10.0410 c3        1 10A     -0.079400
     19 C18        16.3960    0.0990   11.3460 c3        1 10A     -0.079400
     20 C19        17.8830   -0.1330   11.1800 c3        1 10A     -0.079400
     21 C20        18.6200    0.0850   12.4840 c3        1 10A     -0.079400
     22 C21        20.1070   -0.1460   12.3200 c3        1 10A     -0.079400
     23 C22        20.8450    0.0690   13.6160 c3        1 10A     -0.094100
     24 H11        -0.0790    0.6380   -0.1440 hc        1 10A      0.036367
     25 H12         0.2210   -1.1170   -0.4690 hc        1 10A      0.036367
     26 H13         0.3040    0.0800   -1.8250 hc        1 10A      0.036367
     27 H21         2.2990    1.1600   -0.7890 hc        1 10A      0.039700
     28 H22         2.5980   -0.5900   -1.1130 hc        1 10A      0.039700
     29 H31         2.0450   -1.1280    1.2830 hc        1 10A      0.041200
     30 H32         1.7460    0.6230    1.6070 hc        1 10A      0.041200
     31 H41         4.4120   -0.5970    0.6020 hc        1 10A      0.041700
     32 H42         4.1120    1.1540    0.9260 hc        1 10A      0.041700
     33 H51         3.8600   -1.1360    3.0000 hc        1 10A      0.042700
     34 H52         3.5600    0.6150    3.3240 hc        1 10A      0.042700
     35 H61         5.9260    1.1470    2.6430 hc        1 10A      0.045200
     36 H62         6.2260   -0.6050    2.3180 hc        1 10A      0.045200
     37 H71         5.6730   -1.1450    4.7150 hc        1 10A      0.047200
     38 H72         5.3730    0.6070    5.0410 hc        1 10A      0.047200
     39 H81         8.0380   -0.6160    4.0330 hc        1 10A      0.054200
     40 H82         7.7390    1.1390    4.3550 hc        1 10A      0.054200
     41 H91         7.1870    0.6150    6.7480 hc        1 10A      0.064200
     42 H92         7.4600   -1.1490    6.4300 hc        1 10A      0.064200
     43 H101        9.5880    1.0710    5.9230 hx        1 10A      0.097700
     44 H102        9.8170   -0.7410    5.7680 hx        1 10A      0.097700
     45 H111        9.8310    2.1290    8.0670 hx        1 10A      0.100033
     46 H112        8.2000    1.3580    8.3950 hx        1 10A      0.100033
     47 H113        9.5700    1.1330    9.5860 hx        1 10A      0.100033
     48 H121        9.4130   -2.1060    7.8210 hx        1 10A      0.100033
     49 H122        9.6570   -1.3120    9.4560 hx        1 10A      0.100033
     50 H123        8.0800   -1.0830    8.5570 hx        1 10A      0.100033
     51 H131       11.6160    0.7290    7.0240 hx        1 10A      0.097700
     52 H132       11.5270   -1.0780    7.3190 hx        1 10A      0.097700
     53 H141       11.5560   -0.5840    9.8500 hc        1 10A      0.064200
     54 H142       11.7830    1.1720    9.4600 hc        1 10A      0.064200
     55 H151       13.8440    0.5970    8.1240 hc        1 10A      0.054200
     56 H152       13.6220   -1.1490    8.5400 hc        1 10A      0.054200
     57 H161       13.9960    1.1610   10.5730 hc        1 10A      0.047200
     58 H162       13.7700   -0.5830   10.9910 hc        1 10A      0.047200
     59 H171       15.8400   -1.1640    9.6780 hc        1 10A      0.045200
     60 H172       16.0650    0.5790    9.2610 hc        1 10A      0.045200
     61 H181       16.2170    1.1450   11.7100 hc        1 10A      0.042700
     62 H182       15.9920   -0.5970   12.1280 hc        1 10A      0.042700
     63 H191       18.2880    0.5640   10.3990 hc        1 10A      0.041700
     64 H192       18.0630   -1.1790   10.8160 hc        1 10A      0.041700
     65 H201       18.4410    1.1300   12.8490 hc        1 10A      0.041200
     66 H202       18.2160   -0.6120   13.2660 hc        1 10A      0.041200
     67 H211       20.2850   -1.1920   11.9540 hc        1 10A      0.039700
     68 H212       20.5090    0.5500   11.5370 hc        1 10A      0.039700
     69 H221       20.7010    1.1130   13.9840 hc        1 10A      0.036367
     70 H222       21.9390   -0.1060   13.4720 hc        1 10A      0.036367
     71 H223       20.4760   -0.6340   14.4020 hc        1 10A      0.036367
@<TRIPOS>BOND
     1    1    2 1   
     2    1   24 1   
     3    1   25 1   
     4    1   26 1   
     5    2    3 1   
     6    2   27 1   
     7    2   28 1   
     8    3    4 1   
     9    3   29 1   
    10    3   30 1   
    11    4    5 1   
    12    4   31 1   
    13    4   32 1   
    14    5    6 1   
    15    5   33 1   
    16    5   34 1   
    17    6    7 1   
    18    6   35 1   
    19    6   36 1   
    20    7    8 1   
    21    7   37 1   
    22    7   38 1   
    23    8    9 1   
    24    8   39 1   
    25    8   40 1   
    26    9   10 1   
    27    9   41 1   
    28    9   42 1   
    29   10   11 1   
    30   10   43 1   
    31   10   44 1   
    32   11   12 1   
    33   11   13 1   
    34   11   14 1   
    35   12   45 1   
    36   12   46 1   
    37   12   47 1   
    38   13   48 1   
    39   13   49 1   
    40   13   50 1   
    41   14   15 1   
    42   14   51 1   
    43   14   52 1   
    44   15   16 1   
    45   15   53 1   
    46   15   54 1   
    47   16   17 1   
    48   16   55 1   
    49   16   56 1   
    50   17   18 1   
    51   17   57 1   
    52   17   58 1   
    53   18   19 1   
    54   18   59 1   
    55   18   60 1   
    56   19   20 1   
    57   19   61 1   
    58   19   62 1   
    59   20   21 1   
    60   20   63 1   
    61   20   64 1   
    62   21   22 1   
    63   21   65 1   
    64   21   66 1   
    65   22   23 1   
    66   22   67 1   
    67   22   68 1   
    68   23   69 1   
    69   23   70 1   
    70   23   71 1   
@<TRIPOS>SUBSTRUCTURE
     1 10A         1 TEMP              0 ****  ****    0 ROOT
