@<TRIPOS>MOLECULE
10B
   45    46     1     0     0
SMALL
bcc


@<TRIPOS>ATOM
      1 O14        -1.4980   -0.2540   -2.4060 o         1 10B     -0.632300
      2 S13        -1.2820    0.5370   -1.2750 sy        1 10B      1.509200
      3 O13        -1.6540    1.8950   -1.3330 o         1 10B     -0.632300
      4 N12        -2.0060   -0.1020    0.1050 n3        1 10B     -0.554000
      5 O15        -2.0830   -1.4220    0.1760 os        1 10B     -0.163100
      6 C67        -1.1670   -2.0910    1.1090 c3        1 10B      0.112100
      7 C69        -1.5070   -1.7960    2.5500 c3        1 10B     -0.106600
      8 C68        -1.3510   -3.5600    0.7750 c3        1 10B     -0.106600
      9 C31        -2.9870    0.6210    0.8740 c3        1 10B      0.137800
     10 C11        -4.4310    0.5130    0.3740 c         1 10B      0.560100
     11 O2         -4.7330    0.1910   -0.7830 o         1 10B     -0.537100
     12 N2         -5.4500    0.6970    1.3650 n         1 10B     -0.346400
     13 O7         -6.6590    0.9790    0.8680 oh        1 10B     -0.439100
     14 C28         0.3480    0.4430   -0.8610 ca        1 10B     -0.384500
     15 C14         0.9820    1.5010   -0.1980 ca        1 10B     -0.012500
     16 C17         2.3370    1.4480    0.1070 ca        1 10B     -0.153000
     17 C16         3.0990    0.3250   -0.2510 cp        1 10B      0.038000
     18 C15         2.4710   -0.7370   -0.9210 ca        1 10B     -0.153000
     19 C29         1.1150   -0.6740   -1.2180 ca        1 10B     -0.012500
     20 C21         4.5240    0.2630    0.0660 cp        1 10B     -0.063000
     21 C26         4.9990    0.7420    1.2960 ca        1 10B     -0.109000
     22 C25         6.3580    0.6790    1.5960 ca        1 10B     -0.131000
     23 C24         7.2560    0.1450    0.6730 ca        1 10B     -0.116000
     24 C23         6.7920   -0.3300   -0.5540 ca        1 10B     -0.131000
     25 C30         5.4330   -0.2750   -0.8570 ca        1 10B     -0.109000
     26 H1         -0.1150   -1.7640    0.8780 h1        1 10B      0.050700
     27 H2         -0.9490   -2.4980    3.2170 hc        1 10B      0.048367
     28 H3         -1.2190   -0.7520    2.8200 hc        1 10B      0.048367
     29 H4         -2.6010   -1.9270    2.7280 hc        1 10B      0.048367
     30 H5         -2.3890   -3.8880    1.0240 hc        1 10B      0.048367
     31 H6         -1.1770   -3.7350   -0.3130 hc        1 10B      0.048367
     32 H7         -0.6230   -4.1630    1.3670 hc        1 10B      0.048367
     33 H8         -2.9390    0.2610    1.9420 h1        1 10B      0.089200
     34 H9         -2.7090    1.7160    0.8370 h1        1 10B      0.089200
     35 H10        -5.2180    1.4350    2.0210 hn        1 10B      0.290500
     36 H11        -6.9640    0.1610    0.4260 ho        1 10B      0.438000
     37 H12         0.3960    2.4000    0.0670 ha        1 10B      0.156000
     38 H13         2.8200    2.2950    0.6190 ha        1 10B      0.146000
     39 H14         3.0570   -1.6240   -1.2090 ha        1 10B      0.146000
     40 H15         0.6310   -1.5080   -1.7580 ha        1 10B      0.156000
     41 H16         4.2930    1.1610    2.0290 ha        1 10B      0.137000
     42 H17         6.7210    1.0530    2.5650 ha        1 10B      0.136500
     43 H18         8.3290    0.0990    0.9110 ha        1 10B      0.136000
     44 H19         7.4980   -0.7490   -1.2860 ha        1 10B      0.136500
     45 H20         5.0710   -0.6450   -1.8290 ha        1 10B      0.137000
@<TRIPOS>BOND
     1    1    2 2   
     2    2    3 2   
     3    2    4 1   
     4    2   14 1   
     5    4    5 1   
     6    4    9 1   
     7    5    6 1   
     8    6    7 1   
     9    6    8 1   
    10    6   26 1   
    11    7   27 1   
    12    7   28 1   
    13    7   29 1   
    14    8   30 1   
    15    8   31 1   
    16    8   32 1   
    17    9   10 1   
    18    9   33 1   
    19    9   34 1   
    20   10   11 2   
    21   10   12 1   
    22   12   13 1   
    23   12   35 1   
    24   13   36 1   
    25   14   15 ar  
    26   14   19 ar  
    27   15   16 ar  
    28   15   37 1   
    29   16   17 ar  
    30   16   38 1   
    31   17   18 ar  
    32   17   20 1   
    33   18   19 ar  
    34   18   39 1   
    35   19   40 1   
    36   20   21 ar  
    37   20   25 ar  
    38   21   22 ar  
    39   21   41 1   
    40   22   23 ar  
    41   22   42 1   
    42   23   24 ar  
    43   23   43 1   
    44   24   25 ar  
    45   24   44 1   
    46   25   45 1   
@<TRIPOS>SUBSTRUCTURE
     1 10B         1 TEMP              0 ****  ****    0 ROOT
