@<TRIPOS>MOLECULE
10B
   47    47     1     0     0
SMALL
bcc


@<TRIPOS>ATOM
      1 O14         0.3120   -0.3300   -0.7220 o         1 10B     -0.471400
      2 S13         1.5620    0.1590   -0.5550 s4        1 10B      1.732300
      3 O13         2.3960   -0.4090    0.3710 o         1 10B     -0.471400
      4 N12         3.2340   -2.2410   -1.6090 n3        1 10B     -0.559700
      5 O15         2.1230   -1.6470   -2.0530 os        1 10B     -0.372100
      6 C67         1.7010   -1.8540   -3.4720 c3        1 10B      0.135100
      7 C69         1.4880   -3.3140   -3.7810 c3        1 10B     -0.134100
      8 C68         0.4240   -1.0580   -3.6050 c3        1 10B     -0.134100
      9 C31         2.9860   -3.5700   -1.0360 c3        1 10B      0.050800
     10 C11         2.9030   -3.5430    0.4770 c         1 10B      0.545100
     11 O2          2.1150   -4.1160    1.2020 o         1 10B     -0.361100
     12 N2          3.9740   -2.7250    1.2160 n4        1 10B     -0.460300
     13 O7          5.2230   -3.1130    0.8790 oh        1 10B     -0.356300
     14 C28         1.9680    1.4660   -1.2050 ca        1 10B     -0.698500
     15 C14         3.2560    2.0660   -1.0130 ca        1 10B      0.041500
     16 C17         3.5890    3.2770   -1.5560 ca        1 10B     -0.172000
     17 C16         2.6650    4.0110   -2.3530 cp        1 10B      0.214000
     18 C15         1.3850    3.4250   -2.5680 ca        1 10B     -0.172000
     19 C29         1.0540    2.2150   -2.0210 ca        1 10B      0.041500
     20 C21         3.0070    5.2880   -2.9130 cp        1 10B     -0.151000
     21 C26         4.0060    6.0930   -2.3190 ca        1 10B     -0.057000
     22 C25         4.3240    7.3340   -2.8560 ca        1 10B     -0.136000
     23 C24         3.6680    7.7970   -4.0000 ca        1 10B     -0.030000
     24 C23         2.6840    7.0090   -4.6040 ca        1 10B     -0.136000
     25 C30         2.3490    5.7720   -4.0670 ca        1 10B     -0.057000
     26 H1          2.5240   -1.4210   -4.1060 h1        1 10B      0.076700
     27 H2          2.4310   -3.9020   -3.6750 hc        1 10B      0.072867
     28 H3          0.6970   -3.7550   -3.1260 hc        1 10B      0.072867
     29 H4          1.1460   -3.4100   -4.8440 hc        1 10B      0.072867
     30 H5          0.0150   -1.2040   -4.6370 hc        1 10B      0.072867
     31 H6         -0.3430   -1.3970   -2.8640 hc        1 10B      0.072867
     32 H7          0.6190    0.0300   -3.4500 hc        1 10B      0.072867
     33 H8          2.0070   -4.0230   -1.3890 h1        1 10B      0.138200
     34 H9          3.8300   -4.2770   -1.2980 h1        1 10B      0.138200
     35 H10         3.8150   -2.7680    2.2420 hn        1 10B      0.496300
     36 H11         5.4560   -3.9260    1.3860 ho        1 10B      0.480000
     37 H12         3.9960    1.5210   -0.3980 ha        1 10B      0.164000
     38 H13         4.5990    3.6910   -1.3860 ha        1 10B      0.185000
     39 H14         0.6340    3.9740   -3.1660 ha        1 10B      0.185000
     40 H15         0.0410    1.7990   -2.1880 ha        1 10B      0.164000
     41 H16         4.5200    5.7570   -1.4050 ha        1 10B      0.143000
     42 H17         5.0960    7.9590   -2.3760 ha        1 10B      0.169000
     43 H18         3.9260    8.7820   -4.4260 ha        1 10B      0.172000
     44 H19         2.1690    7.3720   -5.5100 ha        1 10B      0.169000
     45 H20         1.5820    5.1610   -4.5670 ha        1 10B      0.143000
     46 H121        3.9160   -2.3420   -2.3630 hn        1 10B      0.410800
     47 H22         3.9020   -1.7240    0.9140 hn        1 10B      0.496300
@<TRIPOS>BOND
     1    1    2 1   
     2    2    3 1   
     3    2   14 1   
     4    4    5 1   
     5    4    9 1   
     6    4   46 1   
     7    5    6 1   
     8    6    7 1   
     9    6    8 1   
    10    6   26 1   
    11    7   27 1   
    12    7   28 1   
    13    7   29 1   
    14    8   30 1   
    15    8   31 1   
    16    8   32 1   
    17    9   10 1   
    18    9   33 1   
    19    9   34 1   
    20   10   11 2   
    21   10   12 1   
    22   12   13 1   
    23   12   35 1   
    24   12   47 1   
    25   13   36 1   
    26   14   15 ar  
    27   14   19 ar  
    28   15   16 ar  
    29   15   37 1   
    30   16   17 ar  
    31   16   38 1   
    32   17   18 ar  
    33   17   20 1   
    34   18   19 ar  
    35   18   39 1   
    36   19   40 1   
    37   20   21 ar  
    38   20   25 ar  
    39   21   22 ar  
    40   21   41 1   
    41   22   23 ar  
    42   22   42 1   
    43   23   24 ar  
    44   23   43 1   
    45   24   25 ar  
    46   24   44 1   
    47   25   45 1   
@<TRIPOS>SUBSTRUCTURE
     1 10B         1 TEMP              0 ****  ****    0 ROOT
