@<TRIPOS>MOLECULE
10B
   47    47     1     0     0
SMALL
bcc


@<TRIPOS>ATOM
      1 O14         0.2410   -0.3520   -0.9690 o         1 10B     -0.474900
      2 S13         1.4710    0.1480   -0.7070 s4        1 10B      1.731300
      3 O13         2.2470   -0.4480    0.2510 o         1 10B     -0.474900
      4 N12         3.3010   -2.2290   -1.6980 n7        1 10B     -0.569700
      5 O15         2.1710   -1.6880   -2.1560 os        1 10B     -0.363100
      6 C67         1.7210   -2.0210   -3.5440 c3        1 10B      0.134100
      7 C69         1.2820   -3.4610   -3.6260 c3        1 10B     -0.134600
      8 C68         0.5850   -1.0650   -3.8180 c3        1 10B     -0.134600
      9 C31         3.1190   -3.5850   -1.1640 c3        1 10B      0.039800
     10 C11         3.7290   -3.7760    0.2100 c         1 10B      0.533100
     11 O2          4.1830   -4.8120    0.6630 o         1 10B     -0.373100
     12 N2          3.7360   -2.5880    1.1650 ny        1 10B     -0.443300
     13 O7          4.5290   -2.7500    2.2470 oh        1 10B     -0.352300
     14 C28         1.9100    1.4650   -1.3000 ca        1 10B     -0.702500
     15 C14         3.1600    2.0920   -0.9770 ca        1 10B      0.041000
     16 C17         3.5170    3.3170   -1.4700 ca        1 10B     -0.171500
     17 C16         2.6590    4.0410   -2.3490 cp        1 10B      0.217000
     18 C15         1.4220    3.4280   -2.6980 ca        1 10B     -0.171500
     19 C29         1.0670    2.2050   -2.1990 ca        1 10B      0.041000
     20 C21         3.0250    5.3330   -2.8570 cp        1 10B     -0.152000
     21 C26         3.9510    6.1460   -2.1630 ca        1 10B     -0.054000
     22 C25         4.2920    7.4020   -2.6500 ca        1 10B     -0.137000
     23 C24         3.7310    7.8720   -3.8420 ca        1 10B     -0.026000
     24 C23         2.8200    7.0760   -4.5430 ca        1 10B     -0.137000
     25 C30         2.4630    5.8250   -4.0570 ca        1 10B     -0.054000
     26 H1          2.5940   -1.8160   -4.2260 h1        1 10B      0.078700
     27 H2          0.5230   -3.6950   -2.8400 hc        1 10B      0.072533
     28 H3          0.8120   -3.6410   -4.6270 hc        1 10B      0.072533
     29 H4          2.1480   -4.1590   -3.5250 hc        1 10B      0.072533
     30 H5         -0.2790   -1.2570   -3.1340 hc        1 10B      0.072533
     31 H6          0.9190   -0.0070   -3.6970 hc        1 10B      0.072533
     32 H7          0.2430   -1.2120   -4.8740 hc        1 10B      0.072533
     33 H8          3.6020   -4.3800   -1.8140 h1        1 10B      0.140700
     34 H9          2.0180   -3.8400   -1.0730 h1        1 10B      0.140700
     35 H10         2.7650   -2.3720    1.4700 hn        1 10B      0.498300
     36 H11         4.5050   -3.6960    2.5390 ho        1 10B      0.490000
     37 H12         3.8480    1.5560   -0.2960 ha        1 10B      0.163500
     38 H13         4.4960    3.7500   -1.1960 ha        1 10B      0.186000
     39 H14         0.7220    3.9660   -3.3630 ha        1 10B      0.186000
     40 H15         0.0860    1.7670   -2.4720 ha        1 10B      0.163500
     41 H16         4.3880    5.8050   -1.2110 ha        1 10B      0.144000
     42 H17         5.0050    8.0320   -2.0930 ha        1 10B      0.170000
     43 H18         4.0070    8.8680   -4.2280 ha        1 10B      0.173000
     44 H19         2.3810    7.4450   -5.4860 ha        1 10B      0.170000
     45 H20         1.7560    5.2080   -4.6340 ha        1 10B      0.144000
     46 H121        4.0070   -2.2650   -2.4360 hn        1 10B      0.405800
     47 H22         4.0970   -1.7350    0.6810 hn        1 10B      0.498300
@<TRIPOS>BOND
     1    1    2 1   
     2    2    3 1   
     3    2   14 1   
     4    4    5 1   
     5    4    9 1   
     6    4   46 1   
     7    5    6 1   
     8    6    7 1   
     9    6    8 1   
    10    6   26 1   
    11    7   27 1   
    12    7   28 1   
    13    7   29 1   
    14    8   30 1   
    15    8   31 1   
    16    8   32 1   
    17    9   10 1   
    18    9   33 1   
    19    9   34 1   
    20   10   11 2   
    21   10   12 1   
    22   12   13 1   
    23   12   35 1   
    24   12   47 1   
    25   13   36 1   
    26   14   15 ar  
    27   14   19 ar  
    28   15   16 ar  
    29   15   37 1   
    30   16   17 ar  
    31   16   38 1   
    32   17   18 ar  
    33   17   20 1   
    34   18   19 ar  
    35   18   39 1   
    36   19   40 1   
    37   20   21 ar  
    38   20   25 ar  
    39   21   22 ar  
    40   21   41 1   
    41   22   23 ar  
    42   22   42 1   
    43   23   24 ar  
    44   23   43 1   
    45   24   25 ar  
    46   24   44 1   
    47   25   45 1   
@<TRIPOS>SUBSTRUCTURE
     1 10B         1 TEMP              0 ****  ****    0 ROOT
