@<TRIPOS>MOLECULE
10B
   45    40     1     0     0
SMALL
bcc


@<TRIPOS>ATOM
      1 O14        -2.7980   -0.9300    1.7850 o         1 10B     -0.917500
      2 S13        -1.3670   -0.9230    1.7510 ss        1 10B      2.859000
      3 O13        -1.0520   -0.9710    3.1700 o         1 10B     -0.917500
      4 N12        -0.7650   -2.2880    0.9380 n2        1 10B     -0.696000
      5 O15         0.5270   -2.7300    1.1840 os        1 10B     -0.176000
      6 C67         0.4900   -3.9550    1.9450 c3        1 10B      0.006000
      7 C69         0.9150   -5.1160    1.0600 c3        1 10B     -0.236000
      8 C68         1.4220   -3.8470    3.1040 c3        1 10B     -0.236000
      9 C31        -1.6040   -2.9910   -0.0310 c3        1 10B     -0.055000
     10 C11        -1.3280   -2.4430   -1.4440 c2        1 10B      0.217000
     11 O2         -0.6150   -1.4830   -1.5880 o         1 10B     -0.323000
     12 N2         -1.9760   -3.0370   -2.5860 n         1 10B     -0.197000
     13 O7         -1.9540   -2.3830   -3.8210 oh        1 10B     -0.240000
     14 C28        -0.7400    0.5800    0.9940 c1        1 10B     -0.861000
     15 C14        -1.6060    1.4250    0.3050 c2        1 10B     -0.003000
     16 C17        -1.1140    2.5960   -0.2930 c1        1 10B     -0.150000
     17 C16         0.2340    2.9110   -0.1960 c1        1 10B      0.047000
     18 C15         1.1010    2.0630    0.4950 c1        1 10B     -0.154000
     19 C29         0.6120    0.8970    1.0900 c1        1 10B     -0.001000
     20 C21         0.7790    4.1720   -0.8830 c2        1 10B     -0.064000
     21 C26         1.2060    4.1120   -2.1960 c2        1 10B     -0.107000
     22 C25         1.6460    5.2670   -2.8380 c1        1 10B     -0.132000
     23 C24         1.6560    6.4710   -2.1630 c1        1 10B     -0.123500
     24 C23         1.2280    6.5310   -0.8460 c1        1 10B     -0.123500
     25 C30         0.7890    5.3790   -0.2060 c1        1 10B     -0.107000
     26 H1         -0.4250   -4.1100    2.2740 h1        1 10B      0.103000
     27 H2          0.1360   -5.4800    0.6030 hc        1 10B      0.092833
     28 H3          1.3330   -5.8260    1.6240 hc        1 10B      0.092833
     29 H4          1.5670   -4.8000    0.3940 hc        1 10B      0.092833
     30 H5          1.3300   -4.6400    3.6710 hc        1 10B      0.092833
     31 H6          2.3520   -3.7840    2.7730 hc        1 10B      0.092833
     32 H7          1.2050   -3.0470    3.6240 hc        1 10B      0.092833
     33 H8         -2.5410   -2.8540    0.1910 h1        1 10B      0.137500
     34 H9         -1.4000   -3.9460   -0.0070 h1        1 10B      0.137500
     35 H10        -2.3490   -3.8600   -2.5170 hn        1 10B      0.234000
     36 H11        -2.7200   -2.5380   -4.2540 ho        1 10B      0.231000
     37 H12        -2.5690    1.2000    0.2360 ha        1 10B      0.161000
     38 H13        -1.7220    3.1910   -0.7770 ha        1 10B      0.149000
     39 H14         2.0650    2.2880    0.5640 ha        1 10B      0.146000
     40 H15         1.2140    0.3090    1.5700 ha        1 10B      0.154000
     41 H16         1.2000    3.2660   -2.6690 ha        1 10B      0.137000
     42 H17         1.9500    5.2250   -3.7730 ha        1 10B      0.136000
     43 H18         1.9680    7.2900   -2.6180 ha        1 10B      0.135500
     44 H19         1.2340    7.3860   -0.3670 ha        1 10B      0.135500
     45 H20         0.4850    5.4210    0.7300 ha        1 10B      0.138000
@<TRIPOS>BOND
     1    1    2 1   
     2    2    3 1   
     3    4    5 1   
     4    4    9 1   
     5    5    6 1   
     6    6    7 1   
     7    6    8 1   
     8    6   26 1   
     9    7   27 1   
    10    7   28 1   
    11    7   29 1   
    12    8   30 1   
    13    8   31 1   
    14    8   32 1   
    15    9   10 1   
    16    9   33 1   
    17    9   34 1   
    18   10   11 1   
    19   10   12 1   
    20   12   13 1   
    21   12   35 1   
    22   13   36 1   
    23   14   15 1   
    24   14   19 1   
    25   15   16 1   
    26   15   37 1   
    27   16   38 1   
    28   17   18 1   
    29   17   20 1   
    30   18   39 1   
    31   19   40 1   
    32   20   21 1   
    33   20   25 1   
    34   21   22 1   
    35   21   41 1   
    36   22   42 1   
    37   23   24 1   
    38   23   43 1   
    39   24   44 1   
    40   25   45 1   
@<TRIPOS>SUBSTRUCTURE
     1 10B         1 TEMP              0 ****  ****    0 ROOT
