@<TRIPOS>MOLECULE
10B
   47    47     1     0     0
SMALL
bcc


@<TRIPOS>ATOM
      1 O14         0.0310   -0.0640   -0.8210 o         1 10B     -0.474400
      2 S13         1.3000    0.3340   -0.5650 s4        1 10B      1.736300
      3 O13         2.0260   -0.2470    0.4400 o         1 10B     -0.474400
      4 N12         2.9400   -2.0980   -1.5500 n3        1 10B     -0.551700
      5 O15         1.7440   -1.5720   -1.8260 os        1 10B     -0.386100
      6 C67         1.0400   -1.8630   -3.1060 c3        1 10B      0.133100
      7 C69         1.9180   -1.5170   -4.2820 c3        1 10B     -0.144600
      8 C68         0.5340   -3.2810   -3.1470 c3        1 10B     -0.144600
      9 C31         2.8760   -3.4280   -0.9320 c3        1 10B      0.047800
     10 C11         2.5660   -3.3690    0.5500 c         1 10B      0.547100
     11 O2          1.6830   -3.9280    1.1670 o         1 10B     -0.358100
     12 N2          3.5180   -2.5230    1.4100 n4        1 10B     -0.459300
     13 O7          4.7940   -2.9600    1.3210 oh        1 10B     -0.356300
     14 C28         1.8510    1.5700   -1.2470 ca        1 10B     -0.700500
     15 C14         3.1460    2.1130   -0.9600 ca        1 10B      0.041500
     16 C17         3.6030    3.2660   -1.5400 ca        1 10B     -0.172000
     17 C16         2.8040    3.9970   -2.4640 cp        1 10B      0.213000
     18 C15         1.5210    3.4670   -2.7750 ca        1 10B     -0.172000
     19 C29         1.0700    2.3100   -2.1980 ca        1 10B      0.041500
     20 C21         3.2710    5.2210   -3.0550 cp        1 10B     -0.151000
     21 C26         4.6540    5.4860   -3.1730 ca        1 10B     -0.057500
     22 C25         5.1000    6.6700   -3.7460 ca        1 10B     -0.135500
     23 C24         4.1820    7.6210   -4.2020 ca        1 10B     -0.031000
     24 C23         2.8110    7.3760   -4.0860 ca        1 10B     -0.135500
     25 C30         2.3560    6.1890   -3.5260 ca        1 10B     -0.057500
     26 H1          0.1740   -1.1430   -3.0020 h1        1 10B      0.108700
     27 H2          2.6820   -2.3090   -4.4780 hc        1 10B      0.073533
     28 H3          1.2780   -1.4330   -5.1970 hc        1 10B      0.073533
     29 H4          2.4390   -0.5420   -4.1250 hc        1 10B      0.073533
     30 H5          1.3530   -4.0080   -3.3660 hc        1 10B      0.073533
     31 H6          0.0310   -3.5560   -2.1880 hc        1 10B      0.073533
     32 H7         -0.2240   -3.3660   -3.9700 hc        1 10B      0.073533
     33 H8          3.8890   -3.9200   -1.0460 h1        1 10B      0.137200
     34 H9          2.0860   -4.1030   -1.3820 h1        1 10B      0.137200
     35 H10         3.1850   -2.4910    2.3930 hn        1 10B      0.495800
     36 H11         4.9090   -3.7450    1.9070 ho        1 10B      0.481000
     37 H12         3.7820    1.5800   -0.2290 ha        1 10B      0.162500
     38 H13         4.6000    3.6560   -1.2640 ha        1 10B      0.185500
     39 H14         0.8810    3.9940   -3.5060 ha        1 10B      0.185500
     40 H15         0.0650    1.9240   -2.4600 ha        1 10B      0.162500
     41 H16         5.3940    4.7420   -2.8360 ha        1 10B      0.143000
     42 H17         6.1820    6.8620   -3.8420 ha        1 10B      0.169000
     43 H18         4.5400    8.5640   -4.6510 ha        1 10B      0.172000
     44 H19         2.0860    8.1300   -4.4390 ha        1 10B      0.169000
     45 H20         1.2720    6.0240   -3.4260 ha        1 10B      0.143000
     46 H121        3.4980   -2.1850   -2.4030 hn        1 10B      0.412800
     47 H22         3.5320   -1.5450    1.0350 hn        1 10B      0.495800
@<TRIPOS>BOND
     1    1    2 1   
     2    2    3 1   
     3    2   14 1   
     4    4    5 1   
     5    4    9 1   
     6    4   46 1   
     7    5    6 1   
     8    6    7 1   
     9    6    8 1   
    10    6   26 1   
    11    7   27 1   
    12    7   28 1   
    13    7   29 1   
    14    8   30 1   
    15    8   31 1   
    16    8   32 1   
    17    9   10 1   
    18    9   33 1   
    19    9   34 1   
    20   10   11 2   
    21   10   12 1   
    22   12   13 1   
    23   12   35 1   
    24   12   47 1   
    25   13   36 1   
    26   14   15 ar  
    27   14   19 ar  
    28   15   16 ar  
    29   15   37 1   
    30   16   17 ar  
    31   16   38 1   
    32   17   18 ar  
    33   17   20 1   
    34   18   19 ar  
    35   18   39 1   
    36   19   40 1   
    37   20   21 ar  
    38   20   25 ar  
    39   21   22 ar  
    40   21   41 1   
    41   22   23 ar  
    42   22   42 1   
    43   23   24 ar  
    44   23   43 1   
    45   24   25 ar  
    46   24   44 1   
    47   25   45 1   
@<TRIPOS>SUBSTRUCTURE
     1 10B         1 TEMP              0 ****  ****    0 ROOT
