@<TRIPOS>MOLECULE
10C
   34    36     1     0     0
SMALL
bcc


@<TRIPOS>ATOM
      1 O5'        -3.2260   -1.3750    1.8120 os        1 10C     -0.565200
      2 C5'        -2.5060   -0.6530    0.8990 c3        1 10C      0.260400
      3 C4'        -1.2710   -1.4250    0.4400 c3        1 10C      0.045800
      4 O4'        -0.3740   -1.6300    1.5780 os        1 10C     -0.416600
      5 C1'         0.4180   -2.8010    1.2980 c3        1 10C      0.253500
      6 N1          0.0860   -3.8460    2.2680 n         1 10C     -0.369000
      7 C6         -1.1440   -3.8670    2.8760 cc        1 10C      0.103600
      8 C5         -1.4520   -4.8220    3.8230 cd        1 10C     -0.454600
      9 C4         -0.4320   -5.7810    4.1830 cd        1 10C      0.717500
     10 N4         -0.7660   -6.7940    5.0910 nh        1 10C     -0.902800
     11 N3          0.8080   -5.7520    3.6540 nc        1 10C     -0.760100
     12 C2          1.0910   -4.7880    2.6750 c         1 10C      0.823900
     13 O2          2.2250   -4.7200    2.1410 o         1 10C     -0.679500
     14 C3'        -1.4880   -2.8760   -0.1400 c3        1 10C      0.145100
     15 C2'         0.0530   -3.1260   -0.2000 c3        1 10C      0.083100
     16 O2'         0.5610   -1.9930   -0.9390 os        1 10C     -0.440600
     17 O3'        -2.0540   -2.8910   -1.4150 oh        1 10C     -0.647800
     18 C6'        -0.3240   -0.8700   -0.6530 c3        1 10C      0.103400
     19 O3P        -5.4020   -2.5090    2.4290 o         1 10C     -0.926500
     20 P          -4.8120   -1.8410    1.2270 p5        1 10C      1.327900
     21 O1P        -4.3330   -2.7490    0.1140 o         1 10C     -0.926500
     22 O2P        -5.3780   -0.5300    0.7720 o         1 10C     -0.926500
     23 H5'1       -3.1190   -0.4180   -0.0180 h1        1 10C      0.012200
     24 H5'2       -2.1350    0.3080    1.3650 h1        1 10C      0.012200
     25 H1'         1.5020   -2.5290    1.4230 h2        1 10C      0.090700
     26 H6         -1.8860   -3.0680    2.5860 h4        1 10C      0.268000
     27 H5         -2.4570   -4.8460    4.2590 ha        1 10C      0.173000
     28 H3'        -2.0510   -3.5440    0.5550 h1        1 10C      0.106700
     29 H6'1       -0.8720   -0.6210   -1.5910 h1        1 10C      0.046700
     30 H6'2        0.3200   -0.0330   -0.3000 h1        1 10C      0.046700
     31 H41        -0.0130   -7.2730    5.5270 hn        1 10C      0.398300
     32 H42        -1.5250   -6.5660    5.6910 hn        1 10C      0.398300
     33 H2'1        0.4570   -4.0500   -0.6400 h1        1 10C      0.096700
     34 H3T        -3.0310   -2.8490   -1.2680 ho        1 10C      0.503000
@<TRIPOS>BOND
     1    1    2 1   
     2    1   20 1   
     3    2    3 1   
     4    2   23 1   
     5    2   24 1   
     6    3    4 1   
     7    3   14 1   
     8    3   18 1   
     9    4    5 1   
    10    5    6 1   
    11    5   15 1   
    12    5   25 1   
    13    6    7 1   
    14    6   12 1   
    15    7    8 2   
    16    7   26 1   
    17    8    9 1   
    18    8   27 1   
    19    9   10 1   
    20    9   11 2   
    21   10   31 1   
    22   10   32 1   
    23   11   12 1   
    24   12   13 2   
    25   14   15 1   
    26   14   17 1   
    27   14   28 1   
    28   15   16 1   
    29   15   33 1   
    30   16   18 1   
    31   17   34 1   
    32   18   29 1   
    33   18   30 1   
    34   19   20 1   
    35   20   21 1   
    36   20   22 1   
@<TRIPOS>SUBSTRUCTURE
     1 10C         1 TEMP              0 ****  ****    0 ROOT
