@<TRIPOS>MOLECULE
10C
   34    34     1     0     0
SMALL
bcc


@<TRIPOS>ATOM
      1 O5'        -3.0300   -1.1840   -1.6720 os        1 10C     -0.750000
      2 C5'        -2.2560   -0.0190   -1.4930 c3        1 10C      0.072000
      3 C4'        -1.7240    0.0220   -0.0710 c3        1 10C     -0.087000
      4 O4'        -0.7520   -0.9070    0.2570 os        1 10C     -0.285000
      5 C1'        -0.0730   -0.4480    1.3210 c3        1 10C      0.101000
      6 N1          1.3840   -0.2830    0.9620 n3        1 10C     -0.227000
      7 C6          2.2470    0.4510    1.8210 c2        1 10C      0.097000
      8 C5          3.6980    0.4250    1.5980 c1        1 10C     -0.398000
      9 C4          4.2510   -0.3410    0.4690 c2        1 10C      0.178000
     10 N4          5.6600   -0.3990    0.2680 n3        1 10C     -0.327000
     11 N3          3.3780   -1.0400   -0.4080 n1        1 10C     -0.316000
     12 C2          1.9300   -0.9760   -0.2050 c1        1 10C      0.340000
     13 O2          1.1890   -1.5730   -0.9540 o         1 10C     -0.358000
     14 C3'        -0.8240    1.2450    0.2300 c3        1 10C      0.211000
     15 C2'        -0.6150    0.7980    1.6830 c3        1 10C     -0.138000
     16 O2'        -1.9300    0.8050    1.9810 os        1 10C     -0.297000
     17 O3'        -1.4690    2.3750    0.1420 oh        1 10C     -0.638000
     18 C6'        -2.6150    0.3240    0.9070 c3        1 10C     -0.014000
     19 O3P        -2.5150   -1.4290   -4.1350 o         1 10C     -0.741500
     20 P          -3.6240   -1.4830   -3.1110 p5        1 10C      1.585500
     21 O1P        -4.6750   -0.4470   -3.4490 o         1 10C     -0.741500
     22 O2P        -4.2500   -2.8570   -3.1210 o         1 10C     -0.741500
     23 H5'1       -1.5090   -0.0260   -2.1200 h1        1 10C      0.074500
     24 H5'2       -2.8120    0.7690   -1.6560 h1        1 10C      0.074500
     25 H1'        -0.1620   -1.0770    2.0660 h2        1 10C      0.122000
     26 H6          1.8780    0.9570    2.5670 h4        1 10C      0.201000
     27 H5          4.2880    0.9810    2.1470 DU        1 10C      0.140000
     28 H3'         0.0040    1.2340   -0.2860 h1        1 10C     -0.049000
     29 H6'1       -3.1110   -0.4860    1.1660 h1        1 10C      0.093500
     30 H6'2       -3.2430    1.0070    0.5830 h1        1 10C      0.093500
     31 H41         6.2230    0.0520    0.8350 hn        1 10C      0.182000
     32 H42         6.0030   -0.8820   -0.4280 hn        1 10C      0.182000
     33 H2'1       -0.0400    1.3940    2.2060 h1        1 10C      0.100000
     34 H3T        -0.9060    3.0200   -0.0980 ho        1 10C      0.268000
@<TRIPOS>BOND
     1    1    2 1   
     2    1   20 1   
     3    2    3 1   
     4    2   23 1   
     5    2   24 1   
     6    3    4 1   
     7    3   14 1   
     8    3   18 1   
     9    4    5 1   
    10    5    6 1   
    11    5   15 1   
    12    5   25 1   
    13    6    7 1   
    14    6   12 1   
    15    7    8 1   
    16    7   26 1   
    17    8    9 1   
    18    9   10 1   
    19    9   11 1   
    20   10   31 1   
    21   10   32 1   
    22   12   13 1   
    23   14   15 1   
    24   14   17 1   
    25   14   28 1   
    26   15   16 1   
    27   15   33 1   
    28   16   18 1   
    29   17   34 1   
    30   18   29 1   
    31   18   30 1   
    32   19   20 1   
    33   20   21 1   
    34   20   22 1   
@<TRIPOS>SUBSTRUCTURE
     1 10C         1 TEMP              0 ****  ****    0 ROOT
