@<TRIPOS>MOLECULE
10D
   23    22     1     0     0
SMALL
bcc


@<TRIPOS>ATOM
      1 O14        -0.0820    0.0070   -0.7630 o         1 10D     -0.958167
      2 P10         1.3010   -0.1260   -0.1880 p5        1 10D      1.459900
      3 O11         1.3470   -0.6040    1.2370 o         1 10D     -0.958167
      4 O15         2.2930   -0.7850   -1.1050 o         1 10D     -0.958167
      5 O9          1.8840    1.5650   -0.0530 os        1 10D     -0.799800
      6 P8          2.4010    3.0140    0.1200 p5        1 10D      1.574800
      7 O12         1.4810    3.9860    0.7840 o         1 10D     -0.932500
      8 O13         3.8470    3.1790    0.4560 o         1 10D     -0.932500
      9 O7          2.3820    3.6200   -1.4970 os        1 10D     -0.559200
     10 C6          2.8470    4.9180   -1.5020 c3        1 10D      0.192600
     11 C5          2.9030    5.4420   -2.8970 c2        1 10D     -0.032200
     12 C3          3.3660    6.6500   -3.2700 c2        1 10D     -0.317400
     13 C4          3.8800    7.6630   -2.3250 c3        1 10D     -0.018900
     14 C1          3.4470    7.0100   -4.7210 c3        1 10D      0.219100
     15 F2          3.0150    8.2970   -5.0150 f         1 10D     -0.288300
     16 H4          3.8790    4.9520   -1.0380 h1        1 10D      0.045200
     17 H5          2.1640    5.5670   -0.8760 h1        1 10D      0.045200
     18 H6          2.5280    4.7270   -3.6530 ha        1 10D      0.126000
     19 H9          4.9810    7.8090   -2.4660 hc        1 10D      0.020367
     20 H10         3.6970    7.3470   -1.2670 hc        1 10D      0.020367
     21 H11         3.3790    8.6490   -2.4980 hc        1 10D      0.020367
     22 H12         4.5210    6.9360   -5.0640 h1        1 10D      0.016200
     23 H13         2.8320    6.2960   -5.3390 h1        1 10D      0.016200
@<TRIPOS>BOND
     1    1    2 1   
     2    2    3 1   
     3    2    4 1   
     4    2    5 1   
     5    5    6 1   
     6    6    7 1   
     7    6    8 1   
     8    6    9 1   
     9    9   10 1   
    10   10   11 1   
    11   10   16 1   
    12   10   17 1   
    13   11   12 2   
    14   11   18 1   
    15   12   13 1   
    16   12   14 1   
    17   13   19 1   
    18   13   20 1   
    19   13   21 1   
    20   14   15 1   
    21   14   22 1   
    22   14   23 1   
@<TRIPOS>SUBSTRUCTURE
     1 10D         1 TEMP              0 ****  ****    0 ROOT
