@<TRIPOS>MOLECULE
10D
   23    22     1     0     0
SMALL
bcc


@<TRIPOS>ATOM
      1 O14        -0.1230    0.0360   -0.7490 o         1 10D     -0.958167
      2 P10         1.2620   -0.1120   -0.1840 p5        1 10D      1.459900
      3 O11         1.3130   -0.5930    1.2410 o         1 10D     -0.958167
      4 O15         2.2410   -0.7800   -1.1080 o         1 10D     -0.958167
      5 O9          1.8640    1.5720   -0.0510 os        1 10D     -0.799800
      6 P8          2.3970    3.0160    0.1200 p5        1 10D      1.574800
      7 O12         1.4920    3.9970    0.7910 o         1 10D     -0.932500
      8 O13         3.8470    3.1650    0.4480 o         1 10D     -0.932500
      9 O7          2.3740    3.6240   -1.4960 os        1 10D     -0.559200
     10 C6          2.8530    4.9170   -1.5020 c3        1 10D      0.192600
     11 C5          2.9050    5.4420   -2.8970 c2        1 10D     -0.032200
     12 C3          3.3780    6.6460   -3.2720 c2        1 10D     -0.317400
     13 C4          3.9080    7.6520   -2.3280 c3        1 10D     -0.018900
     14 C1          3.4540    7.0070   -4.7230 c3        1 10D      0.219100
     15 F2          3.0340    8.2990   -5.0120 f         1 10D     -0.288300
     16 H4          3.8880    4.9400   -1.0440 h1        1 10D      0.045700
     17 H5          2.1800    5.5720   -0.8710 h1        1 10D      0.045700
     18 H6          2.5180    4.7320   -3.6520 ha        1 10D      0.126000
     19 H9          5.0100    7.7870   -2.4760 hc        1 10D      0.020367
     20 H10         3.7290    7.3370   -1.2700 hc        1 10D      0.020367
     21 H11         3.4160    8.6430   -2.4980 hc        1 10D      0.020367
     22 H12         4.5240    6.9220   -5.0720 h1        1 10D      0.016200
     23 H13         2.8280    6.2990   -5.3370 h1        1 10D      0.016200
@<TRIPOS>BOND
     1    1    2 1   
     2    2    3 1   
     3    2    4 1   
     4    2    5 1   
     5    5    6 1   
     6    6    7 1   
     7    6    8 1   
     8    6    9 1   
     9    9   10 1   
    10   10   11 1   
    11   10   16 1   
    12   10   17 1   
    13   11   12 2   
    14   11   18 1   
    15   12   13 1   
    16   12   14 1   
    17   13   19 1   
    18   13   20 1   
    19   13   21 1   
    20   14   15 1   
    21   14   22 1   
    22   14   23 1   
@<TRIPOS>SUBSTRUCTURE
     1 10D         1 TEMP              0 ****  ****    0 ROOT
