@<TRIPOS>MOLECULE
10D
   23    19     1     0     0
SMALL
bcc


@<TRIPOS>ATOM
      1 O14        -4.7040   -3.2320    2.3120 o         1 10D     -1.275000
      2 P10        -3.2040   -3.3110    2.1550 p3        1 10D      2.662000
      3 O11        -2.5570   -3.3540    3.5180 o         1 10D     -1.275000
      4 O15        -2.8440   -4.5610    1.3870 o         1 10D     -1.275000
      5 O9         -2.6890   -2.0420    1.3670 o         1 10D     -1.259000
      6 P8         -1.1950   -1.8570    0.8860 p3        1 10D      2.678000
      7 O12        -0.2570   -2.1600    2.0290 o         1 10D     -1.259000
      8 O13        -0.9140   -2.8000   -0.2590 os        1 10D     -1.250000
      9 O7         -0.9760   -0.3670    0.4060 os        1 10D     -0.737000
     10 C6          0.2480   -0.0300   -0.2040 c3        1 10D      0.064000
     11 C5          0.2290    1.4290   -0.6010 c2        1 10D     -0.093000
     12 C3          1.3460    2.0110   -1.0810 c1        1 10D     -0.308000
     13 C4          1.3270    3.4710   -1.4790 c3        1 10D     -0.137000
     14 C1          2.6180    1.2050   -1.2220 c2        1 10D      0.063000
     15 F2          3.2090    1.0880   -0.0220 f         1 10D     -0.233000
     16 H4          0.9810   -0.1880    0.4260 h1        1 10D      0.040500
     17 H5          0.3780   -0.5840   -1.0010 h1        1 10D      0.040500
     18 H6         -0.5930    1.9490   -0.5130 ha        1 10D      0.282000
     19 H9          1.0740    4.0170   -0.7050 hc        1 10D      0.054667
     20 H10         2.2180    3.7360   -1.7890 hc        1 10D      0.054667
     21 H11         0.6760    3.6050   -2.1990 hc        1 10D      0.054667
     22 H12         2.4040    0.3140   -1.5690 h4        1 10D      0.054000
     23 H13         3.2260    1.6600   -1.8420 h4        1 10D      0.054000
@<TRIPOS>BOND
     1    1    2 1   
     2    2    3 1   
     3    2    4 1   
     4    5    6 1   
     5    6    7 1   
     6    6    9 1   
     7    9   10 1   
     8   10   11 1   
     9   10   16 1   
    10   10   17 1   
    11   11   12 1   
    12   11   18 1   
    13   12   13 1   
    14   13   19 1   
    15   13   20 1   
    16   13   21 1   
    17   14   15 1   
    18   14   22 1   
    19   14   23 1   
@<TRIPOS>SUBSTRUCTURE
     1 10D         1 TEMP              0 ****  ****    0 ROOT
