@<TRIPOS>MOLECULE
10D
   23    22     1     0     0
SMALL
bcc


@<TRIPOS>ATOM
      1 O14         3.4420   -1.8050    1.1060 o         1 10D     -0.958167
      2 P10         3.5530   -0.7860    0.0070 p5        1 10D      1.459900
      3 O11         4.6250    0.2490    0.2140 o         1 10D     -0.958167
      4 O15         3.4940   -1.3620   -1.3810 o         1 10D     -0.958167
      5 O9          2.0470    0.1770    0.1460 os        1 10D     -0.799800
      6 P8          0.7790    1.0570    0.2690 p5        1 10D      1.574800
      7 O12         0.4360    1.5650    1.6310 o         1 10D     -0.932500
      8 O13         0.5100    2.0110   -0.8490 o         1 10D     -0.932500
      9 O7         -0.4980   -0.0790    0.0270 os        1 10D     -0.559200
     10 C6         -1.7090    0.5770    0.0870 c3        1 10D      0.192600
     11 C5         -2.8270   -0.3730   -0.1830 c2        1 10D     -0.032200
     12 C3         -4.1330   -0.0550   -0.2640 c2        1 10D     -0.317400
     13 C4         -4.6610    1.3110   -0.0690 c3        1 10D     -0.018900
     14 C1         -5.1400   -1.0990   -0.6330 c3        1 10D      0.219100
     15 F2         -6.3000   -1.0690    0.1290 f         1 10D     -0.288300
     16 H4         -1.8390    1.0390    1.1120 h1        1 10D      0.045700
     17 H5         -1.7240    1.4150   -0.6740 h1        1 10D      0.045700
     18 H6         -2.4930   -1.4160   -0.3360 ha        1 10D      0.126000
     19 H9         -5.0700    1.7140   -1.0300 hc        1 10D      0.020367
     20 H10        -5.4920    1.3040    0.6810 hc        1 10D      0.020367
     21 H11        -3.8570    2.0000    0.2900 hc        1 10D      0.020367
     22 H12        -5.4490   -0.9540   -1.7100 h1        1 10D      0.016200
     23 H13        -4.6940   -2.1300   -0.5330 h1        1 10D      0.016200
@<TRIPOS>BOND
     1    1    2 1   
     2    2    3 1   
     3    2    4 1   
     4    2    5 1   
     5    5    6 1   
     6    6    7 1   
     7    6    8 1   
     8    6    9 1   
     9    9   10 1   
    10   10   11 1   
    11   10   16 1   
    12   10   17 1   
    13   11   12 2   
    14   11   18 1   
    15   12   13 1   
    16   12   14 1   
    17   13   19 1   
    18   13   20 1   
    19   13   21 1   
    20   14   15 1   
    21   14   22 1   
    22   14   23 1   
@<TRIPOS>SUBSTRUCTURE
     1 10D         1 TEMP              0 ****  ****    0 ROOT
