@<TRIPOS>MOLECULE
10E
   26    25     1     0     0
SMALL
bcc


@<TRIPOS>ATOM
      1 O13         0.0000    0.0000    0.0000 o         1 10E     -0.598500
      2 P12         1.4800    0.0000    0.0000 p5        1 10E      0.846900
      3 O14         2.0160    0.0000    1.5170 o         1 10E     -0.598500
      4 O15         2.0170   -1.3150   -0.7600 o         1 10E     -0.598500
      5 O11         2.0160    1.3140   -0.7600 os        1 10E     -0.484800
      6 P8          1.6160    2.8740   -0.7150 p5        1 10E      0.934800
      7 O9          2.2940    3.5640    0.5720 o         1 10E     -0.686500
      8 O10         0.1440    3.0040   -0.6260 o         1 10E     -0.686500
      9 O7          2.1390    3.6010   -2.0530 os        1 10E     -0.500200
     10 C6          1.8500    4.9660   -2.3600 c3        1 10E      0.326600
     11 C5          2.4860    5.3290   -3.6770 c2        1 10E     -0.082200
     12 C3          1.8040    6.0040   -4.5700 c2        1 10E     -0.301400
     13 C4          0.3840    6.4170   -4.2780 c3        1 10E      0.084100
     14 C1          2.4390    6.3670   -5.8860 c3        1 10E      0.098000
     15 N2          2.0880    5.3590   -6.8940 nz        1 10E     -0.352600
     16 H4          2.2470    5.6040   -1.5790 h1        1 10E     -0.010300
     17 H5          0.7770    5.1020   -2.4270 h1        1 10E     -0.010300
     18 H6          3.5060    5.0320   -3.8870 ha        1 10E      0.086000
     19 H7          0.3500    6.9530   -3.3370 hc        1 10E      0.000367
     20 H8          0.0240    7.0580   -5.0730 hc        1 10E      0.000367
     21 H9         -0.2420    5.5350   -4.2140 hc        1 10E      0.000367
     22 H10         3.5160    6.4020   -5.7700 hx        1 10E      0.013700
     23 H11         2.0790    7.3380   -6.2060 hx        1 10E      0.013700
     24 H12         2.3880    4.4570   -6.5820 hn        1 10E      0.168800
     25 H13         1.0960    5.3530   -7.0290 hn        1 10E      0.168800
     26 H23         2.5400    5.5800   -7.7590 hn        1 10E      0.168800
@<TRIPOS>BOND
     1    1    2 1   
     2    2    3 1   
     3    2    4 1   
     4    2    5 1   
     5    5    6 1   
     6    6    7 1   
     7    6    8 1   
     8    6    9 1   
     9    9   10 1   
    10   10   11 1   
    11   10   16 1   
    12   10   17 1   
    13   11   12 2   
    14   11   18 1   
    15   12   13 1   
    16   12   14 1   
    17   13   19 1   
    18   13   20 1   
    19   13   21 1   
    20   14   15 1   
    21   14   22 1   
    22   14   23 1   
    23   15   24 1   
    24   15   25 1   
    25   15   26 1   
@<TRIPOS>SUBSTRUCTURE
     1 10E         1 TEMP              0 ****  ****    0 ROOT
