@<TRIPOS>MOLECULE
10E
   25    21     1     0     0
SMALL
bcc


@<TRIPOS>ATOM
      1 O13        -2.6630    3.6760    3.8690 o         1 10E     -1.277667
      2 P12        -1.1530    3.6760    3.8690 p3        1 10E      2.652000
      3 O14        -0.6500    3.6760    5.2920 o         1 10E     -1.277667
      4 O15        -0.6500    4.9090    3.1570 o         1 10E     -1.277667
      5 O11        -0.6260    2.3850    3.1240 o         1 10E     -1.260000
      6 P8         -0.7900    2.1430    1.5700 p3        1 10E      2.681000
      7 O9         -0.0040    3.1860    0.8130 o         1 10E     -1.260000
      8 O10        -2.2500    2.2420    1.1970 os        1 10E     -1.252000
      9 O7         -0.2480    0.7040    1.2020 os        1 10E     -0.721000
     10 C6         -0.1580    0.3500   -0.1580 c3        1 10E      0.036000
     11 C5          0.2000   -1.1160   -0.2740 c2        1 10E     -0.032000
     12 C3          0.3500   -1.6780   -1.4900 c1        1 10E     -0.321000
     13 C4          0.1610   -0.8450   -2.7380 c2        1 10E     -0.140000
     14 C1          0.7080   -3.1440   -1.6060 c3        1 10E     -0.036000
     15 N2          2.1260   -3.2880   -1.6140 n3        1 10E     -0.349000
     16 H4          0.5330    0.8880   -0.5900 h1        1 10E      0.083000
     17 H5         -1.0160    0.5110   -0.5950 h1        1 10E      0.083000
     18 H6          0.3220   -1.6540    0.5310 ha        1 10E      0.125000
     19 H7          0.8270   -0.1320   -2.7570 ha        1 10E      0.054667
     20 H8          0.2670   -1.4110   -3.5260 ha        1 10E      0.054667
     21 H9         -0.7340   -0.4540   -2.7360 ha        1 10E      0.054667
     22 H10         0.3360   -3.6310   -0.8460 h1        1 10E      0.064000
     23 H11         0.3390   -3.5040   -2.4350 h1        1 10E      0.064000
     24 H12         2.3880   -3.7690   -0.8850 hn        1 10E      0.126500
     25 H13         2.3830   -3.7220   -2.3740 hn        1 10E      0.126500
@<TRIPOS>BOND
     1    1    2 1   
     2    2    3 1   
     3    2    4 1   
     4    5    6 1   
     5    6    7 1   
     6    6    9 1   
     7    9   10 1   
     8   10   11 1   
     9   10   16 1   
    10   10   17 1   
    11   11   12 1   
    12   11   18 1   
    13   12   14 1   
    14   13   19 1   
    15   13   20 1   
    16   13   21 1   
    17   14   15 1   
    18   14   22 1   
    19   14   23 1   
    20   15   24 1   
    21   15   25 1   
@<TRIPOS>SUBSTRUCTURE
     1 10E         1 TEMP              0 ****  ****    0 ROOT
