@<TRIPOS>MOLECULE
10E
   25    24     1     0     0
SMALL
bcc


@<TRIPOS>ATOM
      1 O13        -3.7650    0.3260    1.3520 o         1 10E     -0.957167
      2 P12        -3.4200    0.7210   -0.0570 p5        1 10E      1.458900
      3 O14        -4.2460    0.0490   -1.1200 o         1 10E     -0.957167
      4 O15        -3.2160    2.1960   -0.2570 o         1 10E     -0.957167
      5 O11        -1.7920    0.0110   -0.3250 os        1 10E     -0.798800
      6 P8         -0.4210   -0.6450   -0.6120 p5        1 10E      1.574800
      7 O9         -0.2830   -2.0910   -0.2610 o         1 10E     -0.930500
      8 O10         0.2920   -0.2160   -1.8510 o         1 10E     -0.930500
      9 O7          0.6180    0.0750    0.5700 os        1 10E     -0.555200
     10 C6          1.8170   -0.5650    0.7400 c3        1 10E      0.235600
     11 C5          2.9550    0.1670    0.0850 c2        1 10E     -0.074200
     12 C3          4.2550   -0.0280    0.3690 c2        1 10E     -0.321400
     13 C4          4.6940   -0.9830    1.4130 c3        1 10E     -0.013900
     14 C1          5.3790    0.6860   -0.3190 c3        1 10E      0.220000
     15 N2          5.0620    1.6060   -1.3890 n3        1 10E     -0.920800
     16 H4          2.0470   -0.6430    1.8470 h1        1 10E      0.016700
     17 H5          1.7800   -1.6130    0.3090 h1        1 10E      0.016700
     18 H6          2.6160    0.8760   -0.6920 ha        1 10E      0.152000
     19 H7          4.5550   -0.5400    2.4320 hc        1 10E      0.010033
     20 H8          4.0870   -1.9220    1.3630 hc        1 10E      0.010033
     21 H9          5.7740   -1.2520    1.2980 hc        1 10E      0.010033
     22 H10         5.9610    1.2650    0.4590 h1        1 10E      0.007700
     23 H11         6.0850   -0.0870   -0.7460 h1        1 10E      0.007700
     24 H12         4.5620    1.1190   -2.1120 hn        1 10E      0.348300
     25 H13         4.4480    2.3220   -1.0440 hn        1 10E      0.348300
@<TRIPOS>BOND
     1    1    2 1   
     2    2    3 1   
     3    2    4 1   
     4    2    5 1   
     5    5    6 1   
     6    6    7 1   
     7    6    8 1   
     8    6    9 1   
     9    9   10 1   
    10   10   11 1   
    11   10   16 1   
    12   10   17 1   
    13   11   12 2   
    14   11   18 1   
    15   12   13 1   
    16   12   14 1   
    17   13   19 1   
    18   13   20 1   
    19   13   21 1   
    20   14   15 1   
    21   14   22 1   
    22   14   23 1   
    23   15   24 1   
    24   15   25 1   
@<TRIPOS>SUBSTRUCTURE
     1 10E         1 TEMP              0 ****  ****    0 ROOT
