@<TRIPOS>MOLECULE
10F
   61    63     1     0     0
SMALL
bcc


@<TRIPOS>ATOM
      1 N1          3.1590   -2.0980    0.9120 n3        1 10F     -0.873200
      2 C2          3.6780   -1.9530    2.3060 c3        1 10F      0.618900
      3 NA2         3.7680   -3.2390    3.0260 n3        1 10F     -0.899800
      4 N3          4.9760   -1.2240    2.3290 n3        1 10F     -0.837200
      5 C4          4.8740    0.0850    1.6880 c3        1 10F      0.369300
      6 O4          6.1730    0.6680    1.5710 oh        1 10F     -0.602800
      7 C4A         4.2740    0.0710    0.2450 c3        1 10F      0.137500
      8 N5          4.0480    1.4220   -0.2610 n3        1 10F     -0.791200
      9 C6          3.2320    1.4720   -1.4760 c3        1 10F      0.145500
     10 C7          2.0490    0.4740   -1.5180 c3        1 10F      0.126800
     11 N8          2.3990   -0.8550   -1.0630 n3        1 10F     -0.800200
     12 C8A         2.9450   -0.7790    0.3070 c3        1 10F      0.389700
     13 C9          2.7200    2.9310   -1.6960 c3        1 10F      0.088000
     14 N10         1.7420    3.1390   -2.7490 n         1 10F     -0.382000
     15 C11        -1.7160    1.1510   -1.5100 ca        1 10F     -0.127600
     16 C12        -1.2660    2.2580   -0.7830 ca        1 10F     -0.093000
     17 C13        -0.2090    3.0240   -1.2630 ca        1 10F     -0.155500
     18 C14         0.4270    2.6620   -2.4720 ca        1 10F      0.034600
     19 C15        -0.2050    1.7200   -3.3120 ca        1 10F     -0.155500
     20 C16        -1.2680    0.9670   -2.8220 ca        1 10F     -0.093000
     21 N          -2.0970   -0.2840    0.4090 n         1 10F     -0.478900
     22 CA         -2.1710   -1.6350    0.9500 c3        1 10F     -0.033300
     23 CB         -2.6270   -1.6410    2.4180 c3        1 10F     -0.052400
     24 CG         -4.0730   -1.2480    2.5980 c3        1 10F     -0.184400
     25 CD         -4.4450   -1.0440    4.0730 c         1 10F      0.904600
     26 OE1        -5.4540   -1.6630    4.5290 o         1 10F     -0.870800
     27 OE2        -3.7650   -0.2380    4.7780 o         1 10F     -0.870800
     28 CT         -0.7800   -2.3450    0.8660 c         1 10F      0.899600
     29 O2          0.2770   -1.6380    0.7630 o         1 10F     -0.868800
     30 O1         -0.7430   -3.6030    0.8920 o         1 10F     -0.868800
     31 C18         2.1760    3.4570   -4.0220 c         1 10F      0.659900
     32 O5          1.4400    3.5550   -5.0190 o         1 10F     -0.610100
     33 O          -3.4440   -0.5070   -1.4800 o         1 10F     -0.632100
     34 HN1         2.2710   -2.5890    0.9180 hn        1 10F      0.431800
     35 H2          2.9690   -1.3060    2.9310 h3        1 10F      0.065700
     36 HNA2        2.8360   -3.5770    3.1830 hn        1 10F      0.355800
     37 HNAA        4.2710   -3.9200    2.4900 hn        1 10F      0.355800
     38 HN3         5.7020   -1.7630    1.8940 hn        1 10F      0.357800
     39 H4          4.2320    0.7290    2.3620 h2        1 10F      0.044700
     40 HO4         6.5220    0.7660    2.4650 ho        1 10F      0.396000
     41 H4A         5.0130   -0.4220   -0.4460 h1        1 10F      0.087700
     42 HN5         3.5990    1.9620    0.4610 hn        1 10F      0.337800
     43 H6          3.9320    1.2130   -2.3240 h1        1 10F      0.058700
     44 H7          1.1920    0.9110   -0.9210 h1        1 10F      0.044200
     45 H7A         1.7130    0.3660   -2.5880 h1        1 10F      0.044200
     46 HN8         1.5680   -1.4330   -1.0510 hn        1 10F      0.414800
     47 H8A         2.2190   -0.1890    0.9710 h2        1 10F      0.026700
     48 H9          2.2550    3.3000   -0.7360 h1        1 10F      0.052200
     49 H9A         3.6160    3.5790   -1.9150 h1        1 10F      0.052200
     50 H12        -1.7130    2.4950    0.1960 ha        1 10F      0.155000
     51 H13         0.1660    3.8640   -0.6610 ha        1 10F      0.137000
     52 H15         0.1780    1.5410   -4.3280 ha        1 10F      0.137000
     53 H16        -1.7230    0.1750   -3.4370 ha        1 10F      0.155000
     54 HN         -1.2690    0.1820    0.7300 hn        1 10F      0.300500
     55 HA         -2.9080   -2.2270    0.3360 h1        1 10F      0.072700
     56 HB         -2.4670   -2.6850    2.7980 hc        1 10F      0.052700
     57 HBA        -1.9820   -0.9570    3.0300 hc        1 10F      0.052700
     58 HG         -4.2810   -0.2840    2.0670 hc        1 10F      0.022200
     59 HGA        -4.7390   -2.0310    2.1550 hc        1 10F      0.022200
     60 H18         3.2720    3.6710   -4.0770 h5        1 10F      0.017200
     61 C17        -2.5030    0.0410   -0.8650 c         1 10F      0.653700
@<TRIPOS>BOND
     1    1    2 1   
     2    1   12 1   
     3    1   34 1   
     4    2    3 1   
     5    2    4 1   
     6    2   35 1   
     7    3   36 1   
     8    3   37 1   
     9    4    5 1   
    10    4   38 1   
    11    5    6 1   
    12    5    7 1   
    13    5   39 1   
    14    6   40 1   
    15    7    8 1   
    16    7   12 1   
    17    7   41 1   
    18    8    9 1   
    19    8   42 1   
    20    9   10 1   
    21    9   13 1   
    22    9   43 1   
    23   10   11 1   
    24   10   44 1   
    25   10   45 1   
    26   11   12 1   
    27   11   46 1   
    28   12   47 1   
    29   13   14 1   
    30   13   48 1   
    31   13   49 1   
    32   14   18 1   
    33   14   31 1   
    34   15   16 ar  
    35   15   20 ar  
    36   15   61 1   
    37   16   17 ar  
    38   16   50 1   
    39   17   18 ar  
    40   17   51 1   
    41   18   19 ar  
    42   19   20 ar  
    43   19   52 1   
    44   20   53 1   
    45   21   22 1   
    46   21   54 1   
    47   21   61 1   
    48   22   23 1   
    49   22   28 1   
    50   22   55 1   
    51   23   24 1   
    52   23   56 1   
    53   23   57 1   
    54   24   25 1   
    55   24   58 1   
    56   24   59 1   
    57   25   26 1   
    58   25   27 1   
    59   28   29 1   
    60   28   30 1   
    61   31   32 2   
    62   31   60 1   
    63   33   61 2   
@<TRIPOS>SUBSTRUCTURE
     1 10F         1 TEMP              0 ****  ****    0 ROOT
