@<TRIPOS>MOLECULE
10F
   61    60     1     0     0
SMALL
bcc


@<TRIPOS>ATOM
      1 N1          7.0930   -0.3310    0.4420 n3        1 10F     -0.888200
      2 C2          7.7410   -1.5930    0.0740 c3        1 10F      0.667900
      3 NA2         7.9970   -2.3370    1.2210 n3        1 10F     -0.893800
      4 N3          6.8740   -2.3470   -0.8070 n3        1 10F     -0.921200
      5 C4          5.7160   -2.7500   -0.0970 c3        1 10F      0.386300
      6 O4          6.0910   -3.5450    1.0030 oh        1 10F     -0.601800
      7 C4A         4.9970   -1.5540    0.3800 c3        1 10F      0.132500
      8 N5          3.6660   -1.5510   -0.1620 n3        1 10F     -0.821200
      9 C6          2.9790   -0.4260    0.2970 c3        1 10F      0.139500
     10 C7          3.7370    0.8440   -0.1210 c3        1 10F      0.163800
     11 N8          5.0610    0.8240    0.4030 n3        1 10F     -0.820200
     12 C8A         5.7290   -0.3110   -0.0750 c3        1 10F      0.413700
     13 C9          1.5710   -0.3990   -0.3160 c3        1 10F      0.099000
     14 N10         0.5990   -0.8190    0.6830 n         1 10F     -0.403600
     15 C11        -3.4260    0.5580    0.7450 cg        1 10F     -0.081200
     16 C12        -2.8910   -0.0080   -0.4230 c1        1 10F     -0.064500
     17 C13        -1.5410   -0.4200   -0.4550 c1        1 10F     -0.064500
     18 C14        -0.7470   -0.2650    0.6670 c1        1 10F      0.023200
     19 C15        -1.2910    0.3080    1.8490 c1        1 10F     -0.101500
     20 C16        -2.6250    0.7140    1.8750 c1        1 10F     -0.036500
     21 C17        -4.8930    1.0440    0.7700 c         1 10F      0.609300
     22 N          -5.7110    0.9180   -0.4030 n         1 10F     -0.488900
     23 CA         -7.0970    1.3230   -0.3510 c3        1 10F     -0.037300
     24 CB         -7.5540    1.7500   -1.7240 c3        1 10F     -0.074400
     25 CG         -8.9090    2.4310   -1.6210 c3        1 10F     -0.190400
     26 CD         -9.0380    3.4870   -2.7420 c         1 10F      0.908600
     27 OE1       -10.0520    3.4810   -3.5060 o         1 10F     -0.874300
     28 OE2        -8.1570    4.3720   -2.8760 o         1 10F     -0.874300
     29 CT         -7.2460    2.4860    0.6130 c         1 10F      0.918600
     30 O2         -7.9950    2.3760    1.6270 o         1 10F     -0.850800
     31 O1         -6.6010    3.5640    0.4120 o         1 10F     -0.850800
     32 C18         0.9230   -1.8050    1.5780 c         1 10F      0.656900
     33 O5          0.0900   -2.2150    2.3550 o         1 10F     -0.602100
     34 O          -5.3980    1.4070    1.8310 o         1 10F     -0.647100
     35 HN1         7.5660    0.3710    0.0840 hn        1 10F      0.367800
     36 H2          8.6060   -1.3980   -0.3950 h3        1 10F      0.060700
     37 HNA2        8.5620   -3.0200    1.0190 hn        1 10F      0.364300
     38 HNAA        8.3890   -1.7890    1.8670 hn        1 10F      0.364300
     39 HN3         6.6340   -1.8340   -1.5020 hn        1 10F      0.389800
     40 H4          5.1320   -3.2670   -0.6900 h2        1 10F      0.068700
     41 HO4         5.9060   -4.4100    0.8250 ho        1 10F      0.411000
     42 H4A         4.9510   -1.5670    1.3710 h1        1 10F      0.049700
     43 HN5         3.2330   -2.2950    0.1030 hn        1 10F      0.383800
     44 H6          2.9090   -0.4640    1.3000 h1        1 10F      0.062700
     45 H7          3.2710    1.6200    0.2150 h1        1 10F      0.043200
     46 H7A         3.7780    0.8890   -1.1170 h1        1 10F      0.043200
     47 HN8         5.5030    1.5700    0.1360 hn        1 10F      0.371800
     48 H8A         5.7510   -0.2870   -1.0250 h2        1 10F      0.016700
     49 H9          1.3620    0.5130   -0.6140 h1        1 10F      0.064700
     50 H9A         1.5370   -1.0340   -1.1160 h1        1 10F      0.064700
     51 H12        -3.4500   -0.1160   -1.2090 ha        1 10F      0.132500
     52 H13        -1.1950   -0.9390   -1.2460 ha        1 10F      0.132500
     53 H15        -0.7720    0.3280    2.6500 ha        1 10F      0.071500
     54 H16        -3.0100    1.1190    2.7100 ha        1 10F      0.078500
     55 HN         -5.3990    0.4540   -1.1300 hn        1 10F      0.308500
     56 HA         -7.6310    0.5880   -0.0510 h1        1 10F      0.066700
     57 HB         -7.6280    0.9560   -2.3100 hc        1 10F      0.046200
     58 HBA        -6.9070    2.3740   -2.1020 hc        1 10F      0.046200
     59 HG         -9.6050    1.7740   -1.7170 hc        1 10F      0.023200
     60 HGA        -8.9910    2.8690   -0.7500 hc        1 10F      0.023200
     61 H18         1.8060   -2.2160    1.5480 h5        1 10F      0.016200
@<TRIPOS>BOND
     1    1    2 1   
     2    1   12 1   
     3    1   35 1   
     4    2    3 1   
     5    2    4 1   
     6    2   36 1   
     7    3   37 1   
     8    3   38 1   
     9    4    5 1   
    10    4   39 1   
    11    5    6 1   
    12    5    7 1   
    13    5   40 1   
    14    6   41 1   
    15    7    8 1   
    16    7   12 1   
    17    7   42 1   
    18    8    9 1   
    19    8   43 1   
    20    9   10 1   
    21    9   13 1   
    22    9   44 1   
    23   10   11 1   
    24   10   45 1   
    25   10   46 1   
    26   11   12 1   
    27   11   47 1   
    28   12   48 1   
    29   13   14 1   
    30   13   49 1   
    31   13   50 1   
    32   14   18 1   
    33   14   32 1   
    34   15   20 3   
    35   15   21 1   
    36   16   17 3   
    37   16   51 1   
    38   17   52 1   
    39   18   19 3   
    40   19   53 1   
    41   20   54 1   
    42   21   22 1   
    43   21   34 2   
    44   22   23 1   
    45   22   55 1   
    46   23   24 1   
    47   23   29 1   
    48   23   56 1   
    49   24   25 1   
    50   24   57 1   
    51   24   58 1   
    52   25   26 1   
    53   25   59 1   
    54   25   60 1   
    55   26   27 1   
    56   26   28 1   
    57   29   30 1   
    58   29   31 1   
    59   32   33 2   
    60   32   61 1   
@<TRIPOS>SUBSTRUCTURE
     1 10F         1 TEMP              0 ****  ****    0 ROOT
