@<TRIPOS>MOLECULE
10G
   24    23     1     0     0
SMALL
bcc


@<TRIPOS>ATOM
      1 O13        -3.9450   -1.6710    0.4920 o         1 10G     -0.957167
      2 P12        -3.8100   -0.7160   -0.6610 p5        1 10G      1.457900
      3 O14        -3.5340   -1.3730   -1.9840 o         1 10G     -0.957167
      4 O15        -4.8450    0.3750   -0.7010 o         1 10G     -0.957167
      5 O11        -2.3020    0.1920   -0.3020 os        1 10G     -0.798800
      6 P8         -1.0390    1.0280    0.0120 p5        1 10G      1.573800
      7 O9         -0.5090    1.8970   -1.0810 o         1 10G     -0.931500
      8 O10        -0.9300    1.6030    1.3860 o         1 10G     -0.931500
      9 O7          0.2100   -0.1680    0.0810 os        1 10G     -0.557200
     10 C6          1.4040    0.4560    0.3740 c3        1 10G      0.185600
     11 C5          2.5130   -0.5360    0.4340 c2        1 10G     -0.018200
     12 C3          3.8060   -0.2570    0.7130 c2        1 10G     -0.311400
     13 C4          4.2860    1.1120    1.0140 c3        1 10G     -0.024900
     14 C1          4.8230   -1.3180    0.7720 c3        1 10G      0.149900
     15 S2          5.9000   -1.3770   -0.6780 sh        1 10G     -0.571900
     16 H4          1.6280    1.2330   -0.4190 h1        1 10G      0.051700
     17 H5          1.3150    0.9940    1.3670 h1        1 10G      0.051700
     18 H6          2.1960   -1.5750    0.2290 ha        1 10G      0.129000
     19 H7          4.5700    1.1970    2.0940 hc        1 10G      0.022700
     20 H8          5.1890    1.3560    0.4000 hc        1 10G      0.022700
     21 H9          3.4910    1.8690    0.7990 hc        1 10G      0.022700
     22 H10         5.5320   -1.1610    1.6210 h1        1 10G      0.045700
     23 H11         4.3580   -2.3290    0.8650 h1        1 10G      0.045700
     24 H12         5.0950   -0.8190   -1.5740 hs        1 10G      0.256800
@<TRIPOS>BOND
     1    1    2 1   
     2    2    3 1   
     3    2    4 1   
     4    2    5 1   
     5    5    6 1   
     6    6    7 1   
     7    6    8 1   
     8    6    9 1   
     9    9   10 1   
    10   10   11 1   
    11   10   16 1   
    12   10   17 1   
    13   11   12 2   
    14   11   18 1   
    15   12   13 1   
    16   12   14 1   
    17   13   19 1   
    18   13   20 1   
    19   13   21 1   
    20   14   15 1   
    21   14   22 1   
    22   14   23 1   
    23   15   24 1   
@<TRIPOS>SUBSTRUCTURE
     1 10G         1 TEMP              0 ****  ****    0 ROOT
