@<TRIPOS>MOLECULE
10G
   24    23     1     0     0
SMALL
bcc


@<TRIPOS>ATOM
      1 O13         1.6470    2.0380    1.0520 o         1 10G     -0.954833
      2 P12         2.5700    2.4200   -0.0680 p5        1 10G      1.470900
      3 O14         2.8290    3.9100   -0.1850 o         1 10G     -0.954833
      4 O15         3.8120    1.5860   -0.1850 o         1 10G     -0.954833
      5 O11         1.6470    2.0830   -1.5310 os        1 10G     -0.821800
      6 P8          0.8510    1.7600   -2.8440 p5        1 10G      1.572800
      7 O9          1.2230    0.5080   -3.5560 o         1 10G     -0.919500
      8 O10        -0.6020    2.1010   -2.7790 o         1 10G     -0.919500
      9 O7          1.4670    2.9940   -3.8450 os        1 10G     -0.580200
     10 C6          0.9850    4.2690   -3.6150 c3        1 10G      0.218600
     11 C5          1.8520    5.0660   -2.6980 c2        1 10G     -0.099200
     12 C3          2.0170    6.4040   -2.6800 c2        1 10G     -0.285400
     13 C4          1.4330    7.3560   -3.6480 c3        1 10G     -0.012900
     14 C1          2.8030    6.9850   -1.5760 c3        1 10G      0.152900
     15 S2          4.4460    7.5960   -2.0820 sh        1 10G     -0.641900
     16 H4         -0.0430    4.2090   -3.1390 h1        1 10G      0.007200
     17 H5          0.8850    4.7860   -4.6170 h1        1 10G      0.007200
     18 H6          2.3440    4.4360   -1.8790 ha        1 10G      0.273000
     19 H7          0.5270    7.8550   -3.2170 hc        1 10G     -0.001300
     20 H8          2.1700    8.1570   -3.9090 hc        1 10G     -0.001300
     21 H9          1.1250    6.8400   -4.5910 hc        1 10G     -0.001300
     22 H10         2.3290    7.9040   -1.1600 h1        1 10G      0.089700
     23 H11         2.9620    6.2100   -0.7690 h1        1 10G      0.089700
     24 H12         5.0340    6.4210   -2.2840 hs        1 10G      0.264800
@<TRIPOS>BOND
     1    1    2 1   
     2    2    3 1   
     3    2    4 1   
     4    2    5 1   
     5    5    6 1   
     6    6    7 1   
     7    6    8 1   
     8    6    9 1   
     9    9   10 1   
    10   10   11 1   
    11   10   16 1   
    12   10   17 1   
    13   11   12 2   
    14   11   18 1   
    15   12   13 1   
    16   12   14 1   
    17   13   19 1   
    18   13   20 1   
    19   13   21 1   
    20   14   15 1   
    21   14   22 1   
    22   14   23 1   
    23   15   24 1   
@<TRIPOS>SUBSTRUCTURE
     1 10G         1 TEMP              0 ****  ****    0 ROOT
