@<TRIPOS>MOLECULE
10G
   24    20     1     0     0
SMALL
bcc


@<TRIPOS>ATOM
      1 O13        -2.2270   -5.3450   -0.0090 o         1 10G     -1.275333
      2 P12        -0.7700   -5.3080    0.4120 p3        1 10G      2.649000
      3 O14        -0.6680   -5.4840    1.9660 o         1 10G     -1.275333
      4 O15        -0.0140   -6.4360   -0.2760 o         1 10G     -1.275333
      5 O11        -0.1300   -3.8920   -0.0100 o         1 10G     -1.256000
      6 P8         -0.7810   -2.4580    0.4040 p3        1 10G      2.679000
      7 O9         -0.8460   -2.3560    1.9040 os        1 10G     -1.247000
      8 O10        -2.1420   -2.3570   -0.1530 o         1 10G     -1.256000
      9 O7          0.1420   -1.2420   -0.1890 os        1 10G     -0.714000
     10 C6         -0.3490    0.0990   -0.0980 c3        1 10G      0.071000
     11 C5          0.7660    1.0250   -0.1610 c2        1 10G     -0.026000
     12 C3          0.5430    2.3680   -0.1170 c1        1 10G     -0.307000
     13 C4         -0.8740    2.8960   -0.0030 c2        1 10G     -0.139000
     14 C1          1.7150    3.3360   -0.1870 c3        1 10G     -0.109000
     15 S2          2.2370    3.4910   -1.8580 sh        1 10G     -0.228000
     16 H4         -0.8330    0.2190    0.7680 h1        1 10G      0.066500
     17 H5         -0.9740    0.2780   -0.8560 h1        1 10G      0.066500
     18 H6          1.6800    0.6840   -0.2340 ha        1 10G      0.154000
     19 H7         -1.4030    2.5840   -0.7780 ha        1 10G      0.055000
     20 H8         -0.8590    3.9090    0.0080 ha        1 10G      0.055000
     21 H9         -1.2990    2.5500    0.8640 ha        1 10G      0.055000
     22 H10         2.4690    2.9860    0.3660 h1        1 10G      0.089000
     23 H11         1.4370    4.2170    0.1550 h1        1 10G      0.089000
     24 H12         3.1780    4.2350   -1.9190 hs        1 10G      0.081000
@<TRIPOS>BOND
     1    1    2 1   
     2    2    3 1   
     3    2    4 1   
     4    5    6 1   
     5    6    8 1   
     6    6    9 1   
     7    9   10 1   
     8   10   11 1   
     9   10   16 1   
    10   10   17 1   
    11   11   12 1   
    12   11   18 1   
    13   12   14 1   
    14   13   19 1   
    15   13   20 1   
    16   13   21 1   
    17   14   15 1   
    18   14   22 1   
    19   14   23 1   
    20   15   24 1   
@<TRIPOS>SUBSTRUCTURE
     1 10G         1 TEMP              0 ****  ****    0 ROOT
