@<TRIPOS>MOLECULE
10G
   24    23     1     0     0
SMALL
bcc


@<TRIPOS>ATOM
      1 O13         1.4570    1.8390    0.8610 o         1 10G     -0.954833
      2 P12         2.4090    2.2370   -0.2300 p5        1 10G      1.470900
      3 O14         2.7630    3.7110   -0.2460 o         1 10G     -0.954833
      4 O15         3.5950    1.3340   -0.4020 o         1 10G     -0.954833
      5 O11         1.4730    2.0590   -1.7140 os        1 10G     -0.821800
      6 P8          0.6650    1.8770   -3.0450 p5        1 10G      1.572800
      7 O9          0.9590    0.6540   -3.8410 o         1 10G     -0.919500
      8 O10        -0.7630    2.3050   -2.9590 o         1 10G     -0.919500
      9 O7          1.3630    3.1340   -3.9600 os        1 10G     -0.580200
     10 C6          0.9630    4.4180   -3.6450 c3        1 10G      0.218600
     11 C5          1.8750    5.0950   -2.6760 c2        1 10G     -0.099200
     12 C3          2.1250    6.4150   -2.5670 c2        1 10G     -0.285400
     13 C4          1.6070    7.4660   -3.4690 c3        1 10G     -0.012900
     14 C1          2.9410    6.8690   -1.4250 c3        1 10G      0.152900
     15 S2          4.6210    7.4060   -1.8870 sh        1 10G     -0.641900
     16 H4         -0.0690    4.3930   -3.1750 h1        1 10G      0.007200
     17 H5          0.9010    5.0070   -4.6100 h1        1 10G      0.007200
     18 H6          2.3210    4.3810   -1.9010 ha        1 10G      0.273000
     19 H7          0.7340    7.9920   -3.0050 hc        1 10G     -0.001300
     20 H8          2.3960    8.2330   -3.6750 hc        1 10G     -0.001300
     21 H9          1.2720    7.0360   -4.4440 hc        1 10G     -0.001300
     22 H10         2.5240    7.7860   -0.9490 h1        1 10G      0.089700
     23 H11         3.0460    6.0320   -0.6730 h1        1 10G      0.089700
     24 H12         5.1350    6.2120   -2.1680 hs        1 10G      0.264800
@<TRIPOS>BOND
     1    1    2 1   
     2    2    3 1   
     3    2    4 1   
     4    2    5 1   
     5    5    6 1   
     6    6    7 1   
     7    6    8 1   
     8    6    9 1   
     9    9   10 1   
    10   10   11 1   
    11   10   16 1   
    12   10   17 1   
    13   11   12 2   
    14   11   18 1   
    15   12   13 1   
    16   12   14 1   
    17   13   19 1   
    18   13   20 1   
    19   13   21 1   
    20   14   15 1   
    21   14   22 1   
    22   14   23 1   
    23   15   24 1   
@<TRIPOS>SUBSTRUCTURE
     1 10G         1 TEMP              0 ****  ****    0 ROOT
