@<TRIPOS>MOLECULE
10H
   42    44     1     0     0
SMALL
bcc


@<TRIPOS>ATOM
      1 CAA         0.0510   -0.2250    0.0190 c3        1 10H     -0.126100
      2 CAS         1.5520    0.0520   -0.0200 c3        1 10H      0.251500
      3 CAM         2.0880    0.0100    1.4240 c3        1 10H     -0.091400
      4 CAI         3.5850    0.2310    1.4590 c3        1 10H     -0.076400
      5 CAJ         3.9600    1.5000    0.7260 c3        1 10H     -0.090400
      6 CAO         3.3580    1.5130   -0.6810 c3        1 10H      0.214800
      7 NAU         1.9330    1.2760   -0.7080 n3        1 10H     -0.814500
      8 SAV         0.9320    2.3320   -1.4420 sy        1 10H      1.514200
      9 OAC        -0.2870    2.4700   -0.7440 o         1 10H     -0.656800
     10 OAD         1.6330    3.5370   -1.6890 o         1 10H     -0.656800
     11 CAR         0.6120    1.6010   -2.9310 ca        1 10H     -0.400500
     12 CAH        -0.6560    1.0930   -3.2340 ca        1 10H      0.008500
     13 CAF        -0.9430    0.5330   -4.4710 ca        1 10H     -0.194000
     14 CAG         1.5970    1.5340   -3.9220 ca        1 10H      0.008500
     15 CAE         1.3440    0.9780   -5.1670 ca        1 10H     -0.194000
     16 CAQ         0.0580    0.4660   -5.4700 ca        1 10H      0.140600
     17 NAT        -0.2160   -0.0870   -6.7260 n         1 10H     -0.317200
     18 CAN         0.5670    0.1470   -7.8890 c2        1 10H     -0.029400
     19 CAK         0.0850   -0.5370   -8.9610 c2        1 10H     -0.245200
     20 CAL        -1.1280   -1.3220   -8.5550 c3        1 10H     -0.120200
     21 CAP        -1.2800   -0.9760   -7.0670 c         1 10H      0.701500
     22 OAB        -2.1500   -1.3860   -6.2970 o         1 10H     -0.580500
     23 H1         -0.1100   -1.2240    0.4920 hc        1 10H      0.055700
     24 H2         -0.3820   -0.2490   -1.0100 hc        1 10H      0.055700
     25 H3         -0.4920    0.5480    0.6170 hc        1 10H      0.055700
     26 H4          2.0430   -0.8050   -0.5830 h1        1 10H      0.039700
     27 H5          1.8410   -0.9920    1.8600 hc        1 10H      0.051200
     28 H6          1.5720    0.7890    2.0410 hc        1 10H      0.051200
     29 H7          4.1030   -0.6430    0.9820 hc        1 10H      0.041700
     30 H8          3.9340    0.2890    2.5220 hc        1 10H      0.041700
     31 H9          3.6020    2.3920    1.3020 hc        1 10H      0.051200
     32 H10         5.0740    1.5780    0.6320 hc        1 10H      0.051200
     33 H11         3.5780    2.5130   -1.1580 h1        1 10H      0.054200
     34 H12         3.8710    0.7140   -1.2930 h1        1 10H      0.054200
     35 H13        -1.4560    1.1530   -2.4710 ha        1 10H      0.152500
     36 H14        -1.9540    0.1380   -4.6640 ha        1 10H      0.156000
     37 H15         2.6020    1.9420   -3.7100 ha        1 10H      0.152500
     38 H16         2.1580    0.9360   -5.9060 ha        1 10H      0.156000
     39 H17         1.4220    0.8290   -7.8380 h4        1 10H      0.175000
     40 H18         0.4770   -0.5400   -9.9750 ha        1 10H      0.165000
     41 H19        -0.9840   -2.4240   -8.6740 hc        1 10H      0.098200
     42 H20        -2.0450   -1.0080   -9.1120 hc        1 10H      0.098200
@<TRIPOS>BOND
     1    1    2 1   
     2    1   23 1   
     3    1   24 1   
     4    1   25 1   
     5    2    3 1   
     6    2    7 1   
     7    2   26 1   
     8    3    4 1   
     9    3   27 1   
    10    3   28 1   
    11    4    5 1   
    12    4   29 1   
    13    4   30 1   
    14    5    6 1   
    15    5   31 1   
    16    5   32 1   
    17    6    7 1   
    18    6   33 1   
    19    6   34 1   
    20    7    8 1   
    21    8    9 2   
    22    8   10 2   
    23    8   11 1   
    24   11   12 ar  
    25   11   14 ar  
    26   12   13 ar  
    27   12   35 1   
    28   13   16 ar  
    29   13   36 1   
    30   14   15 ar  
    31   14   37 1   
    32   15   16 ar  
    33   15   38 1   
    34   16   17 1   
    35   17   18 1   
    36   17   21 1   
    37   18   19 2   
    38   18   39 1   
    39   19   20 1   
    40   19   40 1   
    41   20   21 1   
    42   20   41 1   
    43   20   42 1   
    44   21   22 2   
@<TRIPOS>SUBSTRUCTURE
     1 10H         1 TEMP              0 ****  ****    0 ROOT
