@<TRIPOS>MOLECULE
10H
   42    44     1     0     0
SMALL
bcc


@<TRIPOS>ATOM
      1 CAA        -2.4090   -2.3150    0.2840 c3        1 10H     -0.126100
      2 CAS        -2.9460   -1.0330    0.9150 c3        1 10H      0.251500
      3 CAM        -4.4460   -1.2300    1.2090 c3        1 10H     -0.091400
      4 CAI        -5.0370   -0.0110    1.8810 c3        1 10H     -0.076400
      5 CAJ        -4.7510    1.2400    1.0780 c3        1 10H     -0.090400
      6 CAO        -3.2580    1.3580    0.7680 c3        1 10H      0.214800
      7 NAU        -2.6950    0.1790    0.1500 n3        1 10H     -0.814500
      8 SAV        -1.8920    0.2900   -1.2640 sy        1 10H      1.514200
      9 OAC        -2.1410   -0.8240   -2.0950 o         1 10H     -0.656800
     10 OAD        -2.1510    1.5550   -1.8450 o         1 10H     -0.656800
     11 CAR        -0.2690    0.2530   -0.7990 ca        1 10H     -0.400500
     12 CAH         0.5480   -0.8440   -1.0960 ca        1 10H      0.008500
     13 CAF         1.8940   -0.8650   -0.7600 ca        1 10H     -0.194000
     14 CAG         0.3150    1.3460   -0.1490 ca        1 10H      0.008500
     15 CAE         1.6570    1.3550    0.2030 ca        1 10H     -0.194000
     16 CAQ         2.4800    0.2430   -0.1020 ca        1 10H      0.140600
     17 NAT         3.8380    0.2430    0.2360 n         1 10H     -0.317200
     18 CAN         4.5880    1.4150    0.5280 c2        1 10H     -0.029400
     19 CAK         5.8760    1.1170    0.8490 c2        1 10H     -0.245200
     20 CAL         6.0800   -0.3690    0.7880 c3        1 10H     -0.120200
     21 CAP         4.6970   -0.8900    0.3690 c         1 10H      0.701500
     22 OAB         4.3730   -2.0640    0.1840 o         1 10H     -0.580500
     23 H1         -1.3120   -2.2420    0.0890 hc        1 10H      0.055700
     24 H2         -2.5850   -3.1580    0.9960 hc        1 10H      0.055700
     25 H3         -2.9270   -2.5450   -0.6800 hc        1 10H      0.055700
     26 H4         -2.4240   -0.9010    1.9160 h1        1 10H      0.039700
     27 H5         -4.9920   -1.4450    0.2540 hc        1 10H      0.051200
     28 H6         -4.5560   -2.1240    1.8750 hc        1 10H      0.051200
     29 H7         -6.1440   -0.1420    1.9980 hc        1 10H      0.041700
     30 H8         -4.6010    0.0980    2.9090 hc        1 10H      0.041700
     31 H9         -5.3380    1.2200    0.1230 hc        1 10H      0.051200
     32 H10        -5.0650    2.1490    1.6520 hc        1 10H      0.051200
     33 H11        -3.0990    2.2460    0.0900 h1        1 10H      0.054200
     34 H12        -2.7100    1.5560    1.7360 h1        1 10H      0.054200
     35 H13         0.1110   -1.7110   -1.6270 ha        1 10H      0.152500
     36 H14         2.5000   -1.7530   -1.0070 ha        1 10H      0.156000
     37 H15        -0.3070    2.2280    0.0830 ha        1 10H      0.152500
     38 H16         2.0630    2.2340    0.7260 ha        1 10H      0.156000
     39 H17         4.1090    2.3960    0.4560 h4        1 10H      0.175000
     40 H18         6.6710    1.8110    1.1090 ha        1 10H      0.165000
     41 H19         6.8420   -0.6630    0.0250 hc        1 10H      0.098200
     42 H20         6.3620   -0.8030    1.7780 hc        1 10H      0.098200
@<TRIPOS>BOND
     1    1    2 1   
     2    1   23 1   
     3    1   24 1   
     4    1   25 1   
     5    2    3 1   
     6    2    7 1   
     7    2   26 1   
     8    3    4 1   
     9    3   27 1   
    10    3   28 1   
    11    4    5 1   
    12    4   29 1   
    13    4   30 1   
    14    5    6 1   
    15    5   31 1   
    16    5   32 1   
    17    6    7 1   
    18    6   33 1   
    19    6   34 1   
    20    7    8 1   
    21    8    9 2   
    22    8   10 2   
    23    8   11 1   
    24   11   12 ar  
    25   11   14 ar  
    26   12   13 ar  
    27   12   35 1   
    28   13   16 ar  
    29   13   36 1   
    30   14   15 ar  
    31   14   37 1   
    32   15   16 ar  
    33   15   38 1   
    34   16   17 1   
    35   17   18 1   
    36   17   21 1   
    37   18   19 2   
    38   18   39 1   
    39   19   20 1   
    40   19   40 1   
    41   20   21 1   
    42   20   41 1   
    43   20   42 1   
    44   21   22 2   
@<TRIPOS>SUBSTRUCTURE
     1 10H         1 TEMP              0 ****  ****    0 ROOT
