@<TRIPOS>MOLECULE
10H
   42    38     1     0     0
SMALL
bcc


@<TRIPOS>ATOM
      1 CAA         0.5290   -0.3310    3.8940 c3        1 10H     -0.244000
      2 CAS         1.4450   -0.7450    2.8360 c3        1 10H      0.054000
      3 CAM         2.7360   -1.2990    3.4710 c3        1 10H     -0.170000
      4 CAI         3.7710   -1.5650    2.4720 c3        1 10H     -0.155000
      5 CAJ         4.0120   -0.4010    1.5980 c3        1 10H     -0.169000
      6 CAO         2.7180    0.1450    0.9790 c3        1 10H     -0.022000
      7 NAU         1.6980    0.3990    1.9660 n3        1 10H     -0.834000
      8 SAV         0.5090    1.4990    1.6750 s4        1 10H      2.069800
      9 OAC        -0.2720    1.7360    2.8370 o         1 10H     -0.544400
     10 OAD         1.0470    2.7800    1.4400 o         1 10H     -0.544400
     11 CAR        -0.5400    0.9420    0.2670 c1        1 10H     -0.348500
     12 CAH         0.0100    0.8290   -1.0040 c1        1 10H     -0.096500
     13 CAF        -0.8190    0.5660   -2.1070 c1        1 10H     -0.096500
     14 CAG        -1.9110    0.7930    0.4430 c1        1 10H     -0.089000
     15 CAE        -2.7280    0.5330   -0.6510 c1        1 10H     -0.089000
     16 CAQ        -2.1710    0.4210   -1.9330 c1        1 10H     -0.348500
     17 NAT        -3.0300    0.3460   -3.0790 n2        1 10H     -0.255000
     18 CAN        -3.0640    1.2360   -4.1140 c2        1 10H     -0.032000
     19 CAK        -3.5520    0.7230   -5.2810 c1        1 10H     -0.241000
     20 CAL        -3.8280   -0.6390   -5.2640 c2        1 10H     -0.153000
     21 CAP        -3.6600   -0.9620   -3.6780 c2        1 10H      0.309000
     22 OAB        -3.6170   -2.0340   -3.1920 o         1 10H     -0.305000
     23 H1          0.6930   -0.8740    4.7020 hc        1 10H      0.095000
     24 H2          0.6790    0.6390    4.1050 hc        1 10H      0.095000
     25 H3         -0.3740   -0.4590    3.6010 hc        1 10H      0.095000
     26 H4          1.0140   -1.4660    2.3030 h1        1 10H      0.079000
     27 H5          3.0720   -0.6550    4.1100 hc        1 10H      0.090500
     28 H6          2.5220   -2.1480    3.9500 hc        1 10H      0.090500
     29 H7          4.6170   -1.8000    2.9350 hc        1 10H      0.081000
     30 H8          3.5020   -2.2920    1.9480 hc        1 10H      0.081000
     31 H9          4.6360   -0.6720    0.8570 hc        1 10H      0.090500
     32 H10         4.4340    0.3110    2.1280 hc        1 10H      0.090500
     33 H11         2.3710   -0.5130    0.3240 h1        1 10H      0.093500
     34 H12         2.9300    1.0170    0.4950 h1        1 10H      0.093500
     35 H13         1.0040    0.9350   -1.1360 ha        1 10H      0.140500
     36 H14        -0.4480    0.4910   -2.9660 ha        1 10H      0.140500
     37 H15        -2.2830    0.8680    1.2970 ha        1 10H      0.168000
     38 H16        -3.6790    0.4300   -0.5300 ha        1 10H      0.168000
     39 H17        -2.4240    2.0050   -4.1330 h4        1 10H      0.175000
     40 H18        -3.5620    1.2180   -6.0740 ha        1 10H      0.165000
     41 H19        -4.7460   -0.8000   -5.6720 ha        1 10H      0.137500
     42 H20        -3.2420   -1.2060   -5.8170 ha        1 10H      0.137500
@<TRIPOS>BOND
     1    1    2 1   
     2    1   23 1   
     3    1   24 1   
     4    1   25 1   
     5    2    3 1   
     6    2    7 1   
     7    2   26 1   
     8    3    4 1   
     9    3   27 1   
    10    3   28 1   
    11    4    5 1   
    12    4   29 1   
    13    4   30 1   
    14    5    6 1   
    15    5   31 1   
    16    5   32 1   
    17    6    7 1   
    18    6   33 1   
    19    6   34 1   
    20    7    8 1   
    21    8    9 1   
    22    8   10 1   
    23   11   14 1   
    24   12   13 1   
    25   12   35 1   
    26   13   36 1   
    27   14   37 1   
    28   15   16 1   
    29   15   38 1   
    30   17   18 1   
    31   17   21 1   
    32   18   19 1   
    33   18   39 1   
    34   19   40 1   
    35   20   21 1   
    36   20   41 1   
    37   20   42 1   
    38   21   22 1   
@<TRIPOS>SUBSTRUCTURE
     1 10H         1 TEMP              0 ****  ****    0 ROOT
