@<TRIPOS>MOLECULE
10H
   42    44     1     0     0
SMALL
bcc


@<TRIPOS>ATOM
      1 CAA         0.0480   -0.2230    0.0180 c3        1 10H     -0.126100
      2 CAS         1.5490    0.0530   -0.0210 c3        1 10H      0.251500
      3 CAM         2.0850    0.0130    1.4240 c3        1 10H     -0.091400
      4 CAI         3.5810    0.2330    1.4580 c3        1 10H     -0.076400
      5 CAJ         3.9570    1.5010    0.7240 c3        1 10H     -0.090400
      6 CAO         3.3560    1.5130   -0.6830 c3        1 10H      0.214800
      7 NAU         1.9300    1.2760   -0.7100 n3        1 10H     -0.814500
      8 SAV         0.9310    2.3320   -1.4470 sy        1 10H      1.514200
      9 OAC        -0.2890    2.4710   -0.7490 o         1 10H     -0.656800
     10 OAD         1.6320    3.5370   -1.6950 o         1 10H     -0.656800
     11 CAR         0.6110    1.5990   -2.9340 ca        1 10H     -0.400500
     12 CAH        -0.6570    1.0910   -3.2370 ca        1 10H      0.008500
     13 CAF        -0.9440    0.5300   -4.4730 ca        1 10H     -0.194000
     14 CAG         1.5970    1.5300   -3.9250 ca        1 10H      0.008500
     15 CAE         1.3430    0.9720   -5.1700 ca        1 10H     -0.194000
     16 CAQ         0.0570    0.4610   -5.4720 ca        1 10H      0.140600
     17 NAT        -0.2160   -0.0940   -6.7270 n         1 10H     -0.317200
     18 CAN         0.5660    0.1380   -7.8900 c2        1 10H     -0.029400
     19 CAK         0.0850   -0.5470   -8.9620 c2        1 10H     -0.245200
     20 CAL        -1.1280   -1.3310   -8.5550 c3        1 10H     -0.120200
     21 CAP        -1.2810   -0.9830   -7.0670 c         1 10H      0.701500
     22 OAB        -2.1520   -1.3920   -6.2960 o         1 10H     -0.580500
     23 H1         -0.3850   -0.2480   -1.0120 hc        1 10H      0.055700
     24 H2         -0.4950    0.5510    0.6140 hc        1 10H      0.055700
     25 H3         -0.1140   -1.2200    0.4920 hc        1 10H      0.055700
     26 H4          2.0400   -0.8040   -0.5820 h1        1 10H      0.039700
     27 H5          1.8360   -0.9880    1.8610 hc        1 10H      0.051200
     28 H6          1.5680    0.7940    2.0400 hc        1 10H      0.051200
     29 H7          3.9290    0.2930    2.5220 hc        1 10H      0.041700
     30 H8          4.0990   -0.6420    0.9840 hc        1 10H      0.041700
     31 H9          5.0710    1.5790    0.6310 hc        1 10H      0.051200
     32 H10         3.5990    2.3940    1.2990 hc        1 10H      0.051200
     33 H11         3.8680    0.7130   -1.2940 h1        1 10H      0.054200
     34 H12         3.5770    2.5120   -1.1610 h1        1 10H      0.054200
     35 H13        -1.4570    1.1530   -2.4740 ha        1 10H      0.152500
     36 H14        -1.9560    0.1350   -4.6670 ha        1 10H      0.156000
     37 H15         2.6010    1.9370   -3.7130 ha        1 10H      0.152500
     38 H16         2.1580    0.9290   -5.9080 ha        1 10H      0.156000
     39 H17         1.4220    0.8190   -7.8400 h4        1 10H      0.175000
     40 H18         0.4770   -0.5520   -9.9750 ha        1 10H      0.165000
     41 H19        -2.0450   -1.0180   -9.1130 hc        1 10H      0.098200
     42 H20        -0.9850   -2.4330   -8.6710 hc        1 10H      0.098200
@<TRIPOS>BOND
     1    1    2 1   
     2    1   23 1   
     3    1   24 1   
     4    1   25 1   
     5    2    3 1   
     6    2    7 1   
     7    2   26 1   
     8    3    4 1   
     9    3   27 1   
    10    3   28 1   
    11    4    5 1   
    12    4   29 1   
    13    4   30 1   
    14    5    6 1   
    15    5   31 1   
    16    5   32 1   
    17    6    7 1   
    18    6   33 1   
    19    6   34 1   
    20    7    8 1   
    21    8    9 2   
    22    8   10 2   
    23    8   11 1   
    24   11   12 ar  
    25   11   14 ar  
    26   12   13 ar  
    27   12   35 1   
    28   13   16 ar  
    29   13   36 1   
    30   14   15 ar  
    31   14   37 1   
    32   15   16 ar  
    33   15   38 1   
    34   16   17 1   
    35   17   18 1   
    36   17   21 1   
    37   18   19 2   
    38   18   39 1   
    39   19   20 1   
    40   19   40 1   
    41   20   21 1   
    42   20   41 1   
    43   20   42 1   
    44   21   22 2   
@<TRIPOS>SUBSTRUCTURE
     1 10H         1 TEMP              0 ****  ****    0 ROOT
