@<TRIPOS>MOLECULE
10H
   42    44     1     0     0
SMALL
bcc


@<TRIPOS>ATOM
      1 CAA         0.0540   -0.2330    0.0180 c3        1 10H     -0.126100
      2 CAS         1.5550    0.0390   -0.0250 c3        1 10H      0.251500
      3 CAM         2.0960   -0.0130    1.4170 c3        1 10H     -0.091400
      4 CAI         3.5930    0.2020    1.4480 c3        1 10H     -0.076400
      5 CAJ         3.9710    1.4740    0.7210 c3        1 10H     -0.090400
      6 CAO         3.3640    1.4980   -0.6830 c3        1 10H      0.214800
      7 NAU         1.9370    1.2660   -0.7070 n3        1 10H     -0.814500
      8 SAV         0.9380    2.3290   -1.4330 sy        1 10H      1.514200
      9 OAC        -0.2790    2.4660   -0.7300 o         1 10H     -0.656800
     10 OAD         1.6420    3.5340   -1.6740 o         1 10H     -0.656800
     11 CAR         0.6120    1.6080   -2.9250 ca        1 10H     -0.400500
     12 CAH        -0.6580    1.1050   -3.2270 ca        1 10H      0.008500
     13 CAF        -0.9500    0.5530   -4.4660 ca        1 10H     -0.194000
     14 CAG         1.5940    1.5440   -3.9190 ca        1 10H      0.008500
     15 CAE         1.3360    0.9960   -5.1670 ca        1 10H     -0.194000
     16 CAQ         0.0480    0.4900   -5.4690 ca        1 10H      0.140600
     17 NAT        -0.2310   -0.0550   -6.7270 n         1 10H     -0.317200
     18 CAN         0.5480    0.1840   -7.8910 c2        1 10H     -0.029400
     19 CAK         0.0620   -0.4920   -8.9660 c2        1 10H     -0.245200
     20 CAL        -1.1520   -1.2760   -8.5610 c3        1 10H     -0.120200
     21 CAP        -1.2990   -0.9400   -7.0710 c         1 10H      0.701500
     22 OAB        -2.1680   -1.3520   -6.3000 o         1 10H     -0.580500
     23 H1         -0.4850    0.5380    0.6220 hc        1 10H      0.055700
     24 H2         -0.1100   -1.2330    0.4860 hc        1 10H      0.055700
     25 H3         -0.3840   -0.2490   -1.0100 hc        1 10H      0.055700
     26 H4          2.0410   -0.8160   -0.5940 h1        1 10H      0.039700
     27 H5          1.8470   -1.0170    1.8480 hc        1 10H      0.051200
     28 H6          1.5850    0.7640    2.0410 hc        1 10H      0.051200
     29 H7          3.9460    0.2530    2.5100 hc        1 10H      0.041700
     30 H8          4.1070   -0.6710    0.9650 hc        1 10H      0.041700
     31 H9          5.0840    1.5490    0.6240 hc        1 10H      0.051200
     32 H10         3.6170    2.3640    1.3030 hc        1 10H      0.051200
     33 H11         3.5860    2.4990   -1.1560 h1        1 10H      0.054200
     34 H12         3.8710    0.7000   -1.3020 h1        1 10H      0.054200
     35 H13        -1.4560    1.1630   -2.4610 ha        1 10H      0.152500
     36 H14        -1.9630    0.1620   -4.6590 ha        1 10H      0.156000
     37 H15         2.6000    1.9480   -3.7070 ha        1 10H      0.152500
     38 H16         2.1480    0.9560   -5.9080 ha        1 10H      0.156000
     39 H17         1.4060    0.8630   -7.8380 h4        1 10H      0.175000
     40 H18         0.4510   -0.4900   -9.9810 ha        1 10H      0.165000
     41 H19        -1.0110   -2.3780   -8.6870 hc        1 10H      0.098200
     42 H20        -2.0700   -0.9570   -9.1140 hc        1 10H      0.098200
@<TRIPOS>BOND
     1    1    2 1   
     2    1   23 1   
     3    1   24 1   
     4    1   25 1   
     5    2    3 1   
     6    2    7 1   
     7    2   26 1   
     8    3    4 1   
     9    3   27 1   
    10    3   28 1   
    11    4    5 1   
    12    4   29 1   
    13    4   30 1   
    14    5    6 1   
    15    5   31 1   
    16    5   32 1   
    17    6    7 1   
    18    6   33 1   
    19    6   34 1   
    20    7    8 1   
    21    8    9 2   
    22    8   10 2   
    23    8   11 1   
    24   11   12 ar  
    25   11   14 ar  
    26   12   13 ar  
    27   12   35 1   
    28   13   16 ar  
    29   13   36 1   
    30   14   15 ar  
    31   14   37 1   
    32   15   16 ar  
    33   15   38 1   
    34   16   17 1   
    35   17   18 1   
    36   17   21 1   
    37   18   19 2   
    38   18   39 1   
    39   19   20 1   
    40   19   40 1   
    41   20   21 1   
    42   20   41 1   
    43   20   42 1   
    44   21   22 2   
@<TRIPOS>SUBSTRUCTURE
     1 10H         1 TEMP              0 ****  ****    0 ROOT
