@<TRIPOS>MOLECULE
10J
   54    58     1     0     0
SMALL
bcc


@<TRIPOS>ATOM
      1 C1         -0.2890    0.2390   -0.0700 c3        1 10J      0.265500
      2 C2          1.2560    0.0750    0.0600 c3        1 10J     -0.147700
      3 N3          0.9870    0.5820    2.5090 n         1 10J     -0.429300
      4 C4         -0.4140    0.8510    2.3150 c2        1 10J      0.650800
      5 C5          1.8350    0.2910    1.4420 c         1 10J      0.721500
      6 N6         -0.8070    1.1310    0.9610 nh        1 10J     -0.769200
      7 N7          0.8080    1.6460   -1.7450 n         1 10J     -0.443800
      8 C8         -0.9550   -1.0990   -0.1380 cc        1 10J     -0.170400
      9 C9         -0.4390    0.9570   -1.4740 c3        1 10J      0.077000
     10 C10         0.7800    3.0130   -2.0610 c         1 10J      0.667700
     11 C11         1.8770    1.0810   -0.9390 c3        1 10J      0.088000
     12 C12        -1.9150   -1.5910    0.7230 cd        1 10J     -0.124000
     13 C13        -2.3380   -2.9140    0.3590 cd        1 10J     -0.068000
     14 S14        -0.6030   -2.2230   -1.3460 ss        1 10J      0.063200
     15 C15        -1.6680   -3.3550   -0.7710 cc        1 10J     -0.160100
     16 C16        -4.2500   -5.7960    1.8210 ca        1 10J     -0.018000
     17 C17         2.0620    3.7710   -2.0770 ca        1 10J     -0.142600
     18 C18        -3.3340   -3.6680    1.0940 ca        1 10J     -0.016000
     19 N19        -4.1470   -8.3790    1.8460 n1        1 10J     -0.362800
     20 C20        -4.1930   -7.2170    1.8350 cg        1 10J      0.232800
     21 N21        -1.3110    0.9200    3.2620 n2        1 10J     -0.864100
     22 C22        -3.2850   -5.0690    1.1130 ca        1 10J     -0.083000
     23 O23         3.0610    0.1730    1.6270 o         1 10J     -0.621500
     24 C24        -5.2690   -5.1300    2.5160 ca        1 10J     -0.090000
     25 O25        -0.2940    3.5520   -2.3880 o         1 10J     -0.580100
     26 C26         2.0690    5.0630   -1.5380 ca        1 10J     -0.089000
     27 C27        -4.3570   -3.0090    1.7930 ca        1 10J     -0.096000
     28 C28        -5.3140   -3.7370    2.4960 ca        1 10J     -0.133000
     29 C29         1.5230    0.7340    3.8370 c3        1 10J      0.064300
     30 C30         3.2400    5.8190   -1.5630 ca        1 10J     -0.137500
     31 C31         3.2210    3.2480   -2.6580 ca        1 10J     -0.089000
     32 C32         4.3870    4.0130   -2.6880 ca        1 10J     -0.137500
     33 C33         4.3990    5.2950   -2.1370 ca        1 10J     -0.106000
     34 H1          1.5390   -0.9710   -0.2420 hc        1 10J      0.101700
     35 H2         -0.5860    0.1690   -2.2650 h1        1 10J      0.081200
     36 H3         -1.3140    1.6610   -1.5030 h1        1 10J      0.081200
     37 H4          2.4590    1.8780   -0.3990 h1        1 10J      0.070200
     38 H5          2.5880    0.5350   -1.6200 h1        1 10J      0.070200
     39 H6         -2.3200   -1.0730    1.5980 ha        1 10J      0.171000
     40 H7         -1.8180   -4.3230   -1.2500 h4        1 10J      0.180000
     41 H8         -0.9870    0.8430    4.2000 hn        1 10J      0.407400
     42 H10        -2.4840   -5.5980    0.5740 ha        1 10J      0.146000
     43 H11        -6.0250   -5.7030    3.0720 ha        1 10J      0.147000
     44 H12         1.1440    5.4770   -1.1070 ha        1 10J      0.146500
     45 H13        -4.4070   -1.9090    1.7810 ha        1 10J      0.144000
     46 H14        -6.1130   -3.2090    3.0390 ha        1 10J      0.143000
     47 H15         1.2490    1.7390    4.2580 h1        1 10J      0.057700
     48 H16         2.6430    0.6490    3.8060 h1        1 10J      0.057700
     49 H17         1.1210   -0.0710    4.5080 h1        1 10J      0.057700
     50 H18         3.2470    6.8320   -1.1340 ha        1 10J      0.138500
     51 H19         3.2150    2.2410   -3.1020 ha        1 10J      0.146500
     52 H20         5.2980    3.6030   -3.1490 ha        1 10J      0.138500
     53 H21         5.3210    5.8940   -2.1590 ha        1 10J      0.136000
     54 H22        -1.7990    1.2620    0.8720 hn        1 10J      0.425800
@<TRIPOS>BOND
     1    1    2 1   
     2    1    6 1   
     3    1    8 1   
     4    1    9 1   
     5    2    5 1   
     6    2   11 1   
     7    2   34 1   
     8    3    4 1   
     9    3    5 1   
    10    3   29 1   
    11    4    6 1   
    12    4   21 2   
    13    5   23 2   
    14    6   54 1   
    15    7    9 1   
    16    7   10 1   
    17    7   11 1   
    18    8   12 2   
    19    8   14 1   
    20    9   35 1   
    21    9   36 1   
    22   10   17 1   
    23   10   25 2   
    24   11   37 1   
    25   11   38 1   
    26   12   13 1   
    27   12   39 1   
    28   13   15 2   
    29   13   18 1   
    30   14   15 1   
    31   15   40 1   
    32   16   20 1   
    33   16   22 ar  
    34   16   24 ar  
    35   17   26 ar  
    36   17   31 ar  
    37   18   22 ar  
    38   18   27 ar  
    39   19   20 3   
    40   21   41 1   
    41   22   42 1   
    42   24   28 ar  
    43   24   43 1   
    44   26   30 ar  
    45   26   44 1   
    46   27   28 ar  
    47   27   45 1   
    48   28   46 1   
    49   29   47 1   
    50   29   48 1   
    51   29   49 1   
    52   30   33 ar  
    53   30   50 1   
    54   31   32 ar  
    55   31   51 1   
    56   32   33 ar  
    57   32   52 1   
    58   33   53 1   
@<TRIPOS>SUBSTRUCTURE
     1 10J         1 TEMP              0 ****  ****    0 ROOT
