@<TRIPOS>MOLECULE
10J
   54    58     1     0     0
SMALL
bcc


@<TRIPOS>ATOM
      1 C1         -0.2870    0.2390   -0.0640 c3        1 10J      0.264500
      2 C2          1.2590    0.0740    0.0580 c3        1 10J     -0.147700
      3 N3          1.0020    0.5730    2.5090 n         1 10J     -0.429300
      4 C4         -0.4000    0.8420    2.3230 c2        1 10J      0.650800
      5 C5          1.8440    0.2850    1.4370 c         1 10J      0.721500
      6 N6         -0.7990    1.1270    0.9720 nh        1 10J     -0.769200
      7 N7          0.8020    1.6510   -1.7400 n         1 10J     -0.443800
      8 C8         -0.9540   -1.0990   -0.1330 cc        1 10J     -0.170400
      9 C9         -0.4440    0.9610   -1.4650 c3        1 10J      0.077000
     10 C10         0.7730    3.0190   -2.0510 c         1 10J      0.667700
     11 C11         1.8740    1.0840   -0.9410 c3        1 10J      0.088000
     12 C12        -1.9130   -1.5920    0.7290 cd        1 10J     -0.124000
     13 C13        -2.3370   -2.9140    0.3630 cd        1 10J     -0.068000
     14 S14        -0.6040   -2.2210   -1.3430 ss        1 10J      0.063200
     15 C15        -1.6700   -3.3530   -0.7690 cc        1 10J     -0.160100
     16 C16        -4.2490   -5.7970    1.8240 ca        1 10J     -0.018000
     17 C17         2.0540    3.7770   -2.0720 ca        1 10J     -0.142600
     18 C18        -3.3330   -3.6680    1.0990 ca        1 10J     -0.016000
     19 N19        -4.1480   -8.3800    1.8450 n1        1 10J     -0.362800
     20 C20        -4.1930   -7.2170    1.8360 cg        1 10J      0.232800
     21 N21        -1.2930    0.9080    3.2750 n2        1 10J     -0.864100
     22 C22        -3.2850   -5.0690    1.1150 ca        1 10J     -0.083000
     23 O23         3.0710    0.1670    1.6160 o         1 10J     -0.621500
     24 C24        -5.2670   -5.1300    2.5210 ca        1 10J     -0.090000
     25 O25        -0.3030    3.5590   -2.3720 o         1 10J     -0.580100
     26 C26         2.0640    5.0670   -1.5280 ca        1 10J     -0.089000
     27 C27        -4.3550   -3.0090    1.7990 ca        1 10J     -0.096000
     28 C28        -5.3110   -3.7380    2.5030 ca        1 10J     -0.133000
     29 C29         1.5450    0.7200    3.8350 c3        1 10J      0.064300
     30 C30         3.2360    5.8220   -1.5570 ca        1 10J     -0.137500
     31 C31         3.2110    3.2560   -2.6610 ca        1 10J     -0.089000
     32 C32         4.3760    4.0210   -2.6940 ca        1 10J     -0.137500
     33 C33         4.3910    5.3000   -2.1380 ca        1 10J     -0.106000
     34 H1          1.5400   -0.9710   -0.2500 hc        1 10J      0.101700
     35 H2         -0.5940    0.1750   -2.2580 h1        1 10J      0.081200
     36 H3         -1.3190    1.6650   -1.4870 h1        1 10J      0.081200
     37 H4          2.5820    0.5390   -1.6270 h1        1 10J      0.070200
     38 H5          2.4590    1.8790   -0.4020 h1        1 10J      0.070200
     39 H6         -2.3160   -1.0750    1.6050 ha        1 10J      0.171000
     40 H7         -1.8210   -4.3210   -1.2490 h4        1 10J      0.180000
     41 H8         -0.9650    0.8270    4.2110 hn        1 10J      0.407400
     42 H10        -2.4850   -5.5980    0.5750 ha        1 10J      0.146000
     43 H11        -6.0230   -5.7040    3.0770 ha        1 10J      0.147000
     44 H12         1.1410    5.4790   -1.0910 ha        1 10J      0.146500
     45 H13        -4.4040   -1.9090    1.7890 ha        1 10J      0.144000
     46 H14        -6.1090   -3.2100    3.0480 ha        1 10J      0.143000
     47 H15         1.2720    1.7230    4.2610 h1        1 10J      0.057700
     48 H16         1.1460   -0.0880    4.5060 h1        1 10J      0.057700
     49 H17         2.6650    0.6360    3.7990 h1        1 10J      0.057700
     50 H18         3.2440    6.8340   -1.1240 ha        1 10J      0.138500
     51 H19         3.2020    2.2500   -3.1070 ha        1 10J      0.146500
     52 H20         5.2850    3.6120   -3.1610 ha        1 10J      0.138500
     53 H21         5.3140    5.8990   -2.1630 ha        1 10J      0.136000
     54 H22        -1.7920    1.2590    0.8880 hn        1 10J      0.425800
@<TRIPOS>BOND
     1    1    2 1   
     2    1    6 1   
     3    1    8 1   
     4    1    9 1   
     5    2    5 1   
     6    2   11 1   
     7    2   34 1   
     8    3    4 1   
     9    3    5 1   
    10    3   29 1   
    11    4    6 1   
    12    4   21 2   
    13    5   23 2   
    14    6   54 1   
    15    7    9 1   
    16    7   10 1   
    17    7   11 1   
    18    8   12 2   
    19    8   14 1   
    20    9   35 1   
    21    9   36 1   
    22   10   17 1   
    23   10   25 2   
    24   11   37 1   
    25   11   38 1   
    26   12   13 1   
    27   12   39 1   
    28   13   15 2   
    29   13   18 1   
    30   14   15 1   
    31   15   40 1   
    32   16   20 1   
    33   16   22 ar  
    34   16   24 ar  
    35   17   26 ar  
    36   17   31 ar  
    37   18   22 ar  
    38   18   27 ar  
    39   19   20 3   
    40   21   41 1   
    41   22   42 1   
    42   24   28 ar  
    43   24   43 1   
    44   26   30 ar  
    45   26   44 1   
    46   27   28 ar  
    47   27   45 1   
    48   28   46 1   
    49   29   47 1   
    50   29   48 1   
    51   29   49 1   
    52   30   33 ar  
    53   30   50 1   
    54   31   32 ar  
    55   31   51 1   
    56   32   33 ar  
    57   32   52 1   
    58   33   53 1   
@<TRIPOS>SUBSTRUCTURE
     1 10J         1 TEMP              0 ****  ****    0 ROOT
