@<TRIPOS>MOLECULE
10J
   54    48     1     0     0
SMALL
bcc


@<TRIPOS>ATOM
      1 C1          0.6010   -1.5610    0.1330 c3        1 10J      0.088000
      2 C2          2.2430   -1.4370    0.1550 c3        1 10J     -0.157000
      3 N3          2.2320   -2.0760    2.6150 n         1 10J     -0.334000
      4 C4          0.7290   -2.8410    2.3050 c1        1 10J      0.203000
      5 C5          2.8870   -1.3230    1.4640 c2        1 10J      0.332000
      6 N6          0.0240   -2.5470    0.9380 n2        1 10J     -0.239000
      7 N7          1.4060   -0.6340   -1.8100 n         1 10J     -0.323000
      8 C8          0.0120   -0.2070    0.5440 c2        1 10J     -0.447000
      9 C9          0.3780   -1.7370   -1.1290 c3        1 10J     -0.026000
     10 C10         1.3760   -0.0660   -3.1360 c2        1 10J      0.342000
     11 C11         2.4350   -0.3610   -0.6250 c3        1 10J     -0.013000
     12 C12        -1.3790    0.1930    0.3590 c1        1 10J     -0.128000
     13 C13        -1.8410    1.0210    1.6520 c1        1 10J     -0.067000
     14 S14         0.4850    0.3350    1.9290 ss        1 10J      0.640000
     15 C15        -0.7160    1.0930    2.5750 c1        1 10J     -0.442000
     16 C16        -5.4730    1.3320    2.7090 c1        1 10J     -0.012000
     17 C17         2.4800    0.8970   -3.5820 c2        1 10J     -0.118000
     18 C18        -3.2270    1.5910    1.8930 c1        1 10J     -0.015000
     19 N19        -7.5740    0.0810    3.5830 n1        1 10J     -0.035000
     20 C20        -6.6710    0.6190    3.2080 c1        1 10J     -0.097000
     21 N21         0.1850   -3.6450    3.1870 n1        1 10J     -0.317000
     22 C22        -4.2170    0.7920    2.4190 c1        1 10J     -0.083000
     23 O23         4.0540   -0.9910    1.5400 o         1 10J     -0.334000
     24 C24        -5.7240    2.6750    2.4680 c1        1 10J     -0.090000
     25 O25         0.4940   -0.3990   -3.9270 o         1 10J     -0.339000
     26 C26         3.3850    0.4020   -4.5060 c2        1 10J     -0.098000
     27 C27        -3.4770    2.9430    1.6500 c1        1 10J     -0.118750
     28 C28        -4.7260    3.4810    1.9390 c1        1 10J     -0.118750
     29 C29         3.0180   -2.4650    3.7630 c3        1 10J     -0.091000
     30 C30         3.2700    0.7490   -5.8400 c1        1 10J     -0.135000
     31 C31         1.4620    1.7390   -3.9960 c1        1 10J     -0.088000
     32 C32         1.3510    2.0840   -5.3340 c1        1 10J     -0.118750
     33 C33         2.2540    1.5890   -6.2520 c1        1 10J     -0.118750
     34 H1          2.6200   -2.2280   -0.3070 hc        1 10J      0.154000
     35 H2          0.6120   -2.6410   -1.3980 h1        1 10J      0.122000
     36 H3         -0.5650   -1.5310   -1.3540 h1        1 10J      0.122000
     37 H4          3.3710   -0.3300   -0.9660 h1        1 10J      0.105500
     38 H5          2.2090    0.4600   -0.1490 h1        1 10J      0.105500
     39 H6         -1.9430   -0.0120   -0.4310 DU        1 10J      0.167000
     40 H7         -0.7130    1.5420    3.4500 DU        1 10J      0.167000
     41 H8          0.6050   -3.8050    3.9760 DU        1 10J      0.167000
     42 H10        -4.0420   -0.1490    2.5890 ha        1 10J      0.149000
     43 H11        -6.6170    3.0600    2.6750 ha        1 10J      0.146000
     44 H12         4.1110   -0.1990   -4.2130 ha        1 10J      0.143000
     45 H13        -2.7790    3.5070    1.2800 ha        1 10J      0.139250
     46 H14        -4.9050    4.4440    1.7660 ha        1 10J      0.139250
     47 H15         3.2610   -3.4140    3.6890 h1        1 10J      0.097000
     48 H16         3.8370   -1.9190    3.7990 h1        1 10J      0.097000
     49 H17         2.5000   -2.3260    4.5740 h1        1 10J      0.097000
     50 H18         3.8990    0.4030   -6.4840 ha        1 10J      0.139000
     51 H19         0.8320    2.0840   -3.3570 ha        1 10J      0.147000
     52 H20         0.6400    2.6720   -5.6250 ha        1 10J      0.139250
     53 H21         2.1730    1.8400   -7.2220 ha        1 10J      0.139250
     54 H22        -0.8420   -2.7810    0.8160 hn        1 10J      0.218000
@<TRIPOS>BOND
     1    1    2 1   
     2    1    6 1   
     3    1    8 1   
     4    1    9 1   
     5    2    5 1   
     6    2   11 1   
     7    2   34 1   
     8    3    4 1   
     9    3    5 1   
    10    3   29 1   
    11    4   21 1   
    12    5   23 1   
    13    6   54 1   
    14    7    9 1   
    15    7   10 1   
    16    7   11 1   
    17    8   12 1   
    18    8   14 1   
    19    9   35 1   
    20    9   36 1   
    21   10   17 1   
    22   10   25 1   
    23   11   37 1   
    24   11   38 1   
    25   12   13 1   
    26   13   15 1   
    27   14   15 1   
    28   16   20 1   
    29   16   24 1   
    30   17   26 1   
    31   17   31 1   
    32   18   22 1   
    33   19   20 1   
    34   22   42 1   
    35   24   43 1   
    36   26   30 1   
    37   26   44 1   
    38   27   28 1   
    39   27   45 1   
    40   28   46 1   
    41   29   47 1   
    42   29   48 1   
    43   29   49 1   
    44   30   50 1   
    45   31   51 1   
    46   32   33 1   
    47   32   52 1   
    48   33   53 1   
@<TRIPOS>SUBSTRUCTURE
     1 10J         1 TEMP              0 ****  ****    0 ROOT
