@<TRIPOS>MOLECULE
10J
   54    58     1     0     0
SMALL
bcc


@<TRIPOS>ATOM
      1 C1         -0.6220   -0.2780    0.2260 c3        1 10J      0.265500
      2 C2         -1.3460    0.6780   -0.7690 c3        1 10J     -0.147700
      3 N3         -0.9190    2.5290    0.8780 n         1 10J     -0.429300
      4 C4         -0.3740    1.5870    1.8200 c2        1 10J      0.650800
      5 C5         -1.4700    2.1220   -0.3360 c         1 10J      0.721500
      6 N6         -0.7320    0.2130    1.5950 nh        1 10J     -0.769200
      7 N7         -2.7930   -1.2390   -0.3670 n         1 10J     -0.443800
      8 C8          0.7760   -0.5520   -0.2330 cc        1 10J     -0.170400
      9 C9         -1.4710   -1.6090    0.1010 c3        1 10J      0.077000
     10 C10        -3.9180   -1.6610    0.3560 c         1 10J      0.667700
     11 C11        -2.7510    0.0690   -0.9980 c3        1 10J      0.088000
     12 C12         1.9420   -0.2950    0.4610 cd        1 10J     -0.124000
     13 C13         3.1070   -0.6880   -0.2800 cd        1 10J     -0.068000
     14 S14         1.1140   -1.2560   -1.7280 ss        1 10J      0.063200
     15 C15         2.7560   -1.2280   -1.5060 cc        1 10J     -0.160100
     16 C16         6.8280   -0.1880   -0.2090 ca        1 10J     -0.018000
     17 C17        -5.2440   -1.0670    0.0310 ca        1 10J     -0.142600
     18 C18         4.4610   -0.5280    0.2130 ca        1 10J     -0.016000
     19 N19         8.7710    0.1590   -1.8790 n1        1 10J     -0.362800
     20 C20         7.8960    0.0030   -1.1280 cg        1 10J      0.232800
     21 N21         0.3440    1.8890    2.8680 n2        1 10J     -0.864100
     22 C22         5.5200   -0.3400   -0.6860 ca        1 10J     -0.083000
     23 O23        -2.0330    2.9480   -1.0790 o         1 10J     -0.621500
     24 C24         7.0870   -0.2230    1.1680 ca        1 10J     -0.090000
     25 O25        -3.8070   -2.5690    1.2020 o         1 10J     -0.580100
     26 C26        -6.1000   -0.7470    1.0920 ca        1 10J     -0.089000
     27 C27         4.7290   -0.5620    1.5910 ca        1 10J     -0.096000
     28 C28         6.0320   -0.4100    2.0590 ca        1 10J     -0.133000
     29 C29        -0.9840    3.9130    1.2730 c3        1 10J      0.064300
     30 C30        -7.3630   -0.2180    0.8300 ca        1 10J     -0.137500
     31 C31        -5.6640   -0.8750   -1.2890 ca        1 10J     -0.089000
     32 C32        -6.9320   -0.3550   -1.5450 ca        1 10J     -0.137500
     33 C33        -7.7790   -0.0210   -0.4870 ca        1 10J     -0.106000
     34 H1         -0.7830    0.6870   -1.7440 hc        1 10J      0.101700
     35 H2         -0.9930   -2.2680   -0.6780 h1        1 10J      0.081200
     36 H3         -1.5200   -2.1770    1.0700 h1        1 10J      0.081200
     37 H4         -3.5540    0.7500   -0.6020 h1        1 10J      0.070200
     38 H5         -2.9220   -0.0610   -2.1030 h1        1 10J      0.070200
     39 H6          2.0110    0.1650    1.4520 ha        1 10J      0.171000
     40 H7          3.4600   -1.6080   -2.2470 h4        1 10J      0.180000
     41 H8          0.4720    2.8570    3.0650 hn        1 10J      0.407400
     42 H10         5.3220   -0.3050   -1.7680 ha        1 10J      0.146000
     43 H11         8.1150   -0.1040    1.5400 ha        1 10J      0.147000
     44 H12        -5.7710   -0.9260    2.1280 ha        1 10J      0.146500
     45 H13         3.9050   -0.7140    2.3050 ha        1 10J      0.144000
     46 H14         6.2310   -0.4390    3.1420 ha        1 10J      0.143000
     47 H15        -1.4880    4.0120    2.2710 h1        1 10J      0.057700
     48 H16         0.0520    4.3440    1.3360 h1        1 10J      0.057700
     49 H17        -1.5700    4.4980    0.5130 h1        1 10J      0.057700
     50 H18        -8.0330    0.0380    1.6640 ha        1 10J      0.138500
     51 H19        -5.0020   -1.1440   -2.1260 ha        1 10J      0.146500
     52 H20        -7.2630   -0.2080   -2.5830 ha        1 10J      0.138500
     53 H21        -8.7770    0.3930   -0.6930 ha        1 10J      0.136000
     54 H22        -0.2880   -0.4090    2.2470 hn        1 10J      0.425800
@<TRIPOS>BOND
     1    1    2 1   
     2    1    6 1   
     3    1    8 1   
     4    1    9 1   
     5    2    5 1   
     6    2   11 1   
     7    2   34 1   
     8    3    4 1   
     9    3    5 1   
    10    3   29 1   
    11    4    6 1   
    12    4   21 2   
    13    5   23 2   
    14    6   54 1   
    15    7    9 1   
    16    7   10 1   
    17    7   11 1   
    18    8   12 2   
    19    8   14 1   
    20    9   35 1   
    21    9   36 1   
    22   10   17 1   
    23   10   25 2   
    24   11   37 1   
    25   11   38 1   
    26   12   13 1   
    27   12   39 1   
    28   13   15 2   
    29   13   18 1   
    30   14   15 1   
    31   15   40 1   
    32   16   20 1   
    33   16   22 ar  
    34   16   24 ar  
    35   17   26 ar  
    36   17   31 ar  
    37   18   22 ar  
    38   18   27 ar  
    39   19   20 3   
    40   21   41 1   
    41   22   42 1   
    42   24   28 ar  
    43   24   43 1   
    44   26   30 ar  
    45   26   44 1   
    46   27   28 ar  
    47   27   45 1   
    48   28   46 1   
    49   29   47 1   
    50   29   48 1   
    51   29   49 1   
    52   30   33 ar  
    53   30   50 1   
    54   31   32 ar  
    55   31   51 1   
    56   32   33 ar  
    57   32   52 1   
    58   33   53 1   
@<TRIPOS>SUBSTRUCTURE
     1 10J         1 TEMP              0 ****  ****    0 ROOT
