@<TRIPOS>MOLECULE
10J
   54    58     1     0     0
SMALL
bcc


@<TRIPOS>ATOM
      1 C1         -0.2910    0.2420   -0.0640 c3        1 10J      0.265500
      2 C2          1.2540    0.0720    0.0480 c3        1 10J     -0.147700
      3 N3          1.0140    0.5620    2.5020 n         1 10J     -0.429300
      4 C4         -0.3880    0.8370    2.3260 c2        1 10J      0.650800
      5 C5          1.8490    0.2760    1.4240 c         1 10J      0.721500
      6 N6         -0.7950    1.1280    0.9790 nu        1 10J     -0.769200
      7 N7          0.7930    1.6570   -1.7410 n         1 10J     -0.443800
      8 C8         -0.9620   -1.0930   -0.1350 cc        1 10J     -0.170400
      9 C9         -0.4540    0.9710   -1.4610 c3        1 10J      0.077000
     10 C10         0.7670    3.0260   -2.0470 c         1 10J      0.667700
     11 C11         1.8680    1.0830   -0.9510 c3        1 10J      0.088000
     12 C12        -1.9140   -1.5890    0.7340 cd        1 10J     -0.124000
     13 C13        -2.3460   -2.9080    0.3650 cd        1 10J     -0.068000
     14 S14        -0.6280   -2.2090   -1.3550 ss        1 10J      0.063200
     15 C15        -1.6910   -3.3420   -0.7760 cc        1 10J     -0.160100
     16 C16        -4.2490   -5.7940    1.8280 ca        1 10J     -0.018000
     17 C17         2.0510    3.7800   -2.0720 ca        1 10J     -0.142600
     18 C18        -3.3350   -3.6630    1.1060 ca        1 10J     -0.016000
     19 N19        -4.1550   -8.3780    1.8330 n1        1 10J     -0.362800
     20 C20        -4.1970   -7.2150    1.8310 cg        1 10J      0.232800
     21 N21        -1.2740    0.9030    3.2830 n2        1 10J     -0.864100
     22 C22        -3.2910   -5.0650    1.1140 ca        1 10J     -0.083000
     23 O23         3.0770    0.1520    1.5950 o         1 10J     -0.621500
     24 C24        -5.2580   -5.1300    2.5400 ca        1 10J     -0.090000
     25 O25        -0.3090    3.5720   -2.3580 o         1 10J     -0.580100
     26 C26         2.0690    5.0680   -1.5230 ca        1 10J     -0.089000
     27 C27        -4.3480   -3.0060    1.8220 ca        1 10J     -0.096000
     28 C28        -5.2990   -3.7370    2.5310 ca        1 10J     -0.133000
     29 C29         1.5660    0.7030    3.8250 c3        1 10J      0.064300
     30 C30         3.2430    5.8190   -1.5550 ca        1 10J     -0.137500
     31 C31         3.2020    3.2570   -2.6690 ca        1 10J     -0.089000
     32 C32         4.3700    4.0180   -2.7060 ca        1 10J     -0.137500
     33 C33         4.3930    5.2950   -2.1460 ca        1 10J     -0.106000
     34 H1          1.5310   -0.9740   -0.2650 hc        1 10J      0.101700
     35 H2         -1.3270    1.6780   -1.4750 h1        1 10J      0.081200
     36 H3         -0.6120    0.1890   -2.2570 h1        1 10J      0.081200
     37 H4          2.4590    1.8730   -0.4120 h1        1 10J      0.070200
     38 H5          2.5690    0.5380   -1.6440 h1        1 10J      0.070200
     39 H6         -2.3070   -1.0760    1.6180 ha        1 10J      0.171000
     40 H7         -1.8500   -4.3060   -1.2610 h4        1 10J      0.180000
     41 H8         -0.9400    0.8180    4.2170 hn        1 10J      0.407400
     42 H10        -2.4980   -5.5920    0.5620 ha        1 10J      0.146000
     43 H11        -6.0100   -5.7050    3.1000 ha        1 10J      0.147000
     44 H12         1.1500    5.4820   -1.0790 ha        1 10J      0.146500
     45 H13        -4.3940   -1.9060    1.8190 ha        1 10J      0.144000
     46 H14        -6.0890   -3.2110    3.0880 ha        1 10J      0.143000
     47 H15         1.1680   -0.1060    4.4960 h1        1 10J      0.057700
     48 H16         2.6850    0.6150    3.7820 h1        1 10J      0.057700
     49 H17         1.3000    1.7050    4.2560 h1        1 10J      0.057700
     50 H18         3.2580    6.8290   -1.1190 ha        1 10J      0.138500
     51 H19         3.1870    2.2530   -3.1200 ha        1 10J      0.146500
     52 H20         5.2740    3.6080   -3.1800 ha        1 10J      0.138500
     53 H21         5.3170    5.8910   -2.1730 ha        1 10J      0.136000
     54 H22        -1.7880    1.2630    0.9010 hn        1 10J      0.425800
@<TRIPOS>BOND
     1    1    2 1   
     2    1    6 1   
     3    1    8 1   
     4    1    9 1   
     5    2    5 1   
     6    2   11 1   
     7    2   34 1   
     8    3    4 1   
     9    3    5 1   
    10    3   29 1   
    11    4    6 1   
    12    4   21 2   
    13    5   23 2   
    14    6   54 1   
    15    7    9 1   
    16    7   10 1   
    17    7   11 1   
    18    8   12 2   
    19    8   14 1   
    20    9   35 1   
    21    9   36 1   
    22   10   17 1   
    23   10   25 2   
    24   11   37 1   
    25   11   38 1   
    26   12   13 1   
    27   12   39 1   
    28   13   15 2   
    29   13   18 1   
    30   14   15 1   
    31   15   40 1   
    32   16   20 1   
    33   16   22 ar  
    34   16   24 ar  
    35   17   26 ar  
    36   17   31 ar  
    37   18   22 ar  
    38   18   27 ar  
    39   19   20 3   
    40   21   41 1   
    41   22   42 1   
    42   24   28 ar  
    43   24   43 1   
    44   26   30 ar  
    45   26   44 1   
    46   27   28 ar  
    47   27   45 1   
    48   28   46 1   
    49   29   47 1   
    50   29   48 1   
    51   29   49 1   
    52   30   33 ar  
    53   30   50 1   
    54   31   32 ar  
    55   31   51 1   
    56   32   33 ar  
    57   32   52 1   
    58   33   53 1   
@<TRIPOS>SUBSTRUCTURE
     1 10J         1 TEMP              0 ****  ****    0 ROOT
