@<TRIPOS>MOLECULE
10K
   40    43     1     0     0
SMALL
bcc


@<TRIPOS>ATOM
      1 O           0.9100    2.2390    0.9430 o         1 10K     -0.576100
      2 S          -2.1190    0.2830   -6.9130 ss        1 10K      0.034200
      3 C1         -2.5930   -1.0290   -7.8210 cc        1 10K     -0.166100
      4 N1          0.2410    0.1470    0.2270 ns        1 10K     -0.457100
      5 C2         -2.1250   -2.2140   -7.2950 cd        1 10K     -0.156000
      6 N2         -0.7940   -1.5850    1.6760 na        1 10K     -0.042600
      7 C3         -1.3570   -1.9970   -6.1120 cd        1 10K     -0.141000
      8 N3         -1.3470   -1.6940    2.8860 nc        1 10K     -0.518800
      9 C4         -1.2760   -0.6520   -5.7880 cc        1 10K     -0.077100
     10 C5         -0.5800   -0.0820   -4.6600 ca        1 10K      0.012000
     11 C6         -0.9430    1.1810   -4.1640 ca        1 10K     -0.122500
     12 C7         -0.2720    1.7340   -3.0780 ca        1 10K     -0.121000
     13 C8          0.7720    1.0370   -2.4590 ca        1 10K     -0.105300
     14 C9          1.1390   -0.2210   -2.9530 ca        1 10K     -0.121000
     15 C10         0.4730   -0.7750   -4.0420 ca        1 10K     -0.122500
     16 C11         1.4980    1.6360   -1.3100 c3        1 10K     -0.109100
     17 C12         0.8540    1.3810    0.0450 c         1 10K      0.673100
     18 C13        -0.3500   -0.2530    1.4230 cc        1 10K      0.020300
     19 C14        -1.1980   -0.4910    3.5130 cd        1 10K      0.357600
     20 C15        -0.5680    0.4620    2.6190 cd        1 10K     -0.294300
     21 C16        -1.6160   -0.2200    4.8880 cx        1 10K     -0.156000
     22 C17        -2.1410    1.1520    5.2410 cx        1 10K     -0.123900
     23 C18        -0.7940    0.7220    5.7360 cx        1 10K     -0.123900
     24 HN1         0.1890   -0.4710   -0.5520 hn        1 10K      0.327500
     25 H2         -2.3080   -3.2050   -7.7150 ha        1 10K      0.156000
     26 H3         -0.9030   -2.8080   -5.5390 ha        1 10K      0.154000
     27 H6         -1.7670    1.7370   -4.6380 ha        1 10K      0.140000
     28 H7         -0.5660    2.7270   -2.7010 ha        1 10K      0.139000
     29 H9          1.9700   -0.7720   -2.4860 ha        1 10K      0.139000
     30 H10         0.7780   -1.7590   -4.4280 ha        1 10K      0.140000
     31 H11         1.5650    2.7520   -1.4340 hc        1 10K      0.088700
     32 H11A        2.5480    1.2370   -1.2570 hc        1 10K      0.088700
     33 H15        -0.3090    1.4960    2.8240 ha        1 10K      0.191000
     34 H16        -2.0790   -1.0930    5.3930 hc        1 10K      0.095700
     35 H17        -2.1980    1.9190    4.4490 hc        1 10K      0.074200
     36 H17A       -2.9830    1.2240    5.9520 hc        1 10K      0.074200
     37 H18        -0.6610    0.4830    6.8060 hc        1 10K      0.074200
     38 H18A        0.1080    1.1840    5.2970 hc        1 10K      0.074200
     39 HN2        -1.0230   -2.2580    0.9810 hn        1 10K      0.307700
     40 H1         -3.2010   -0.9340   -8.7200 h4        1 10K      0.174000
@<TRIPOS>BOND
     1    1   17 2   
     2    2    3 1   
     3    2    9 1   
     4    3    5 2   
     5    3   40 1   
     6    4   17 1   
     7    4   18 1   
     8    4   24 1   
     9    5    7 1   
    10    5   25 1   
    11    6    8 1   
    12    6   18 1   
    13    6   39 1   
    14    7    9 2   
    15    7   26 1   
    16    8   19 2   
    17    9   10 1   
    18   10   11 ar  
    19   10   15 ar  
    20   11   12 ar  
    21   11   27 1   
    22   12   13 ar  
    23   12   28 1   
    24   13   14 ar  
    25   13   16 1   
    26   14   15 ar  
    27   14   29 1   
    28   15   30 1   
    29   16   17 1   
    30   16   31 1   
    31   16   32 1   
    32   18   20 2   
    33   19   20 1   
    34   19   21 1   
    35   20   33 1   
    36   21   22 1   
    37   21   23 1   
    38   21   34 1   
    39   22   23 1   
    40   22   35 1   
    41   22   36 1   
    42   23   37 1   
    43   23   38 1   
@<TRIPOS>SUBSTRUCTURE
     1 10K         1 TEMP              0 ****  ****    0 ROOT
