@<TRIPOS>MOLECULE
10K
   40    43     1     0     0
SMALL
bcc


@<TRIPOS>ATOM
      1 O           2.8600    0.3760    0.6960 o         1 10K     -0.610100
      2 S          -2.2700    0.4620   -6.5280 ss        1 10K      0.029200
      3 C1         -3.1850   -0.7030   -7.2890 cc        1 10K     -0.165100
      4 N1          0.6700    0.8660    0.1780 n         1 10K     -0.449100
      5 C2         -2.9400   -1.9620   -6.7830 cd        1 10K     -0.156000
      6 N2          0.8440    0.4060    2.6300 na        1 10K     -0.008600
      7 C3         -1.9650   -1.9280   -5.7400 cd        1 10K     -0.139000
      8 N3          0.0430    0.2690    3.6810 nc        1 10K     -0.516800
      9 C4         -1.5120   -0.6410   -5.4980 cc        1 10K     -0.077100
     10 C5         -0.5300   -0.2500   -4.5170 ca        1 10K      0.013000
     11 C6         -0.5150    1.0580   -4.0050 ca        1 10K     -0.121500
     12 C7          0.4300    1.4360   -3.0580 ca        1 10K     -0.120000
     13 C8          1.3830    0.5170   -2.5990 ca        1 10K     -0.108300
     14 C9          1.3750   -0.7860   -3.1100 ca        1 10K     -0.120000
     15 C10         0.4290   -1.1670   -4.0580 ca        1 10K     -0.121500
     16 C11         2.4040    0.9270   -1.6020 c3        1 10K     -0.106100
     17 C12         2.0020    0.6820   -0.1560 c         1 10K      0.669100
     18 C13         0.1230    0.6630    1.4450 cc        1 10K      0.021300
     19 C14        -1.2400    0.4530    3.2400 cd        1 10K      0.352600
     20 C15        -1.2440    0.7070    1.8170 cd        1 10K     -0.333300
     21 C16        -2.4410    0.4030    4.0680 cx        1 10K     -0.157000
     22 C17        -2.4210    0.9200    5.4870 cx        1 10K     -0.119400
     23 C18        -2.5350   -0.5510    5.2340 cx        1 10K     -0.119400
     24 HN1         0.0070    1.0380   -0.5460 hn        1 10K      0.342500
     25 H2         -3.4200   -2.8820   -7.1220 ha        1 10K      0.156000
     26 H3         -1.6360   -2.8200   -5.2020 ha        1 10K      0.156000
     27 H6         -1.2600    1.7890   -4.3560 ha        1 10K      0.140500
     28 H7          0.4340    2.4670   -2.6730 ha        1 10K      0.139000
     29 H9          2.1230   -1.5150   -2.7620 ha        1 10K      0.139000
     30 H10         0.4370   -2.1930   -4.4560 ha        1 10K      0.140500
     31 H11         3.3630    0.3640   -1.7740 hc        1 10K      0.089200
     32 H11A        2.6320    2.0230   -1.7010 hc        1 10K      0.089200
     33 H15        -2.1040    0.8870    1.1870 ha        1 10K      0.164000
     34 H16        -3.3570    0.5780    3.4670 hc        1 10K      0.083700
     35 H17        -3.3020    1.4760    5.8540 hc        1 10K      0.074700
     36 H17A       -1.4770    1.3220    5.8960 hc        1 10K      0.074700
     37 H18        -3.4990   -1.0580    5.4190 hc        1 10K      0.074700
     38 H18A       -1.6740   -1.2030    5.4630 hc        1 10K      0.074700
     39 HN2         1.8300    0.2590    2.6950 hn        1 10K      0.348700
     40 H1         -3.8860   -0.4710   -8.0900 h4        1 10K      0.174000
@<TRIPOS>BOND
     1    1   17 2   
     2    2    3 1   
     3    2    9 1   
     4    3    5 2   
     5    3   40 1   
     6    4   17 1   
     7    4   18 1   
     8    4   24 1   
     9    5    7 1   
    10    5   25 1   
    11    6    8 1   
    12    6   18 1   
    13    6   39 1   
    14    7    9 2   
    15    7   26 1   
    16    8   19 2   
    17    9   10 1   
    18   10   11 ar  
    19   10   15 ar  
    20   11   12 ar  
    21   11   27 1   
    22   12   13 ar  
    23   12   28 1   
    24   13   14 ar  
    25   13   16 1   
    26   14   15 ar  
    27   14   29 1   
    28   15   30 1   
    29   16   17 1   
    30   16   31 1   
    31   16   32 1   
    32   18   20 2   
    33   19   20 1   
    34   19   21 1   
    35   20   33 1   
    36   21   22 1   
    37   21   23 1   
    38   21   34 1   
    39   22   23 1   
    40   22   35 1   
    41   22   36 1   
    42   23   37 1   
    43   23   38 1   
@<TRIPOS>SUBSTRUCTURE
     1 10K         1 TEMP              0 ****  ****    0 ROOT
