@<TRIPOS>MOLECULE
10K
   41    44     1     0     0
SMALL
bcc


@<TRIPOS>ATOM
      1 O           2.4650    2.0750    0.5400 o         1 10K     -0.428100
      2 S          -1.0780    0.1240   -7.1130 ss        1 10K      0.079200
      3 C1         -2.4220   -0.5940   -7.7660 cc        1 10K     -0.143100
      4 N1          0.2850    1.4430    0.0180 n4        1 10K     -0.519200
      5 C2         -3.0880   -1.3810   -6.8470 cd        1 10K     -0.158000
      6 N2          0.3920    1.6980    2.5400 na        1 10K      0.029400
      7 C3         -2.4390   -1.3670   -5.5800 cd        1 10K     -0.110000
      8 N3         -0.1960    1.2120    3.6150 nc        1 10K     -0.431800
      9 C4         -1.3040   -0.5620   -5.5890 cc        1 10K     -0.140100
     10 C5         -0.4180   -0.3300   -4.4810 ca        1 10K      0.077000
     11 C6          0.4950    0.7410   -4.5110 ca        1 10K     -0.131500
     12 C7          1.3570    0.9700   -3.4450 ca        1 10K     -0.110000
     13 C8          1.3220    0.1420   -2.3160 ca        1 10K     -0.205300
     14 C9          0.4260   -0.9360   -2.2840 ca        1 10K     -0.110000
     15 C10        -0.4340   -1.1680   -3.3510 ca        1 10K     -0.131500
     16 C11         2.2750    0.3570   -1.2000 c3        1 10K     -0.087100
     17 C12         1.7970    1.3420   -0.1710 c         1 10K      0.564100
     18 C13        -0.1320    1.1180    1.3610 cc        1 10K     -0.143700
     19 C14        -1.1530    0.3120    3.2060 cd        1 10K      0.376600
     20 C15        -1.1470    0.2190    1.7650 cd        1 10K     -0.202300
     21 C16        -2.0460   -0.4390    4.0810 cx        1 10K     -0.202000
     22 C17        -2.5860    0.1840    5.3490 cx        1 10K     -0.099900
     23 C18        -1.5760   -0.9140    5.4380 cx        1 10K     -0.099900
     24 HN1        -0.0180    2.4020   -0.2050 hn        1 10K      0.476800
     25 H3         -2.8110   -1.9240   -4.7170 ha        1 10K      0.154000
     26 H6          0.5350    1.4000   -5.3950 ha        1 10K      0.158500
     27 H7          2.0820    1.7980   -3.5010 ha        1 10K      0.141500
     28 H9          0.4260   -1.6290   -1.4280 ha        1 10K      0.141500
     29 H10        -1.1190   -2.0300   -3.3230 ha        1 10K      0.158500
     30 H11         3.2610    0.7460   -1.5880 hc        1 10K      0.129700
     31 H11A        2.4850   -0.6100   -0.6560 hc        1 10K      0.129700
     32 H15        -1.7900   -0.4020    1.1480 ha        1 10K      0.190000
     33 H16        -2.7200   -1.1050    3.5020 hc        1 10K      0.098700
     34 H17        -2.2850    1.2150    5.6120 hc        1 10K      0.088450
     35 H17A       -3.6380   -0.0210    5.6190 hc        1 10K      0.088450
     36 H18        -0.5490   -0.6760    5.7660 hc        1 10K      0.088450
     37 H18A       -1.8950   -1.9180    5.7730 hc        1 10K      0.088450
     38 HN2         1.1750    2.3180    2.6100 hn        1 10K      0.358700
     39 H1         -2.7250   -0.4520   -8.8050 h4        1 10K      0.189000
     40 H12        -0.1870    0.7860   -0.6260 hn        1 10K      0.476800
     41 H2         -3.9990   -1.9510   -7.0500 ha        1 10K      0.170000
@<TRIPOS>BOND
     1    1   17 2   
     2    2    3 1   
     3    2    9 1   
     4    3    5 2   
     5    3   39 1   
     6    4   17 1   
     7    4   18 1   
     8    4   24 1   
     9    4   40 1   
    10    5    7 1   
    11    5   41 1   
    12    6    8 1   
    13    6   18 1   
    14    6   38 1   
    15    7    9 2   
    16    7   25 1   
    17    8   19 2   
    18    9   10 1   
    19   10   11 ar  
    20   10   15 ar  
    21   11   12 ar  
    22   11   26 1   
    23   12   13 ar  
    24   12   27 1   
    25   13   14 ar  
    26   13   16 1   
    27   14   15 ar  
    28   14   28 1   
    29   15   29 1   
    30   16   17 1   
    31   16   30 1   
    32   16   31 1   
    33   18   20 2   
    34   19   20 1   
    35   19   21 1   
    36   20   32 1   
    37   21   22 1   
    38   21   23 1   
    39   21   33 1   
    40   22   23 1   
    41   22   34 1   
    42   22   35 1   
    43   23   36 1   
    44   23   37 1   
@<TRIPOS>SUBSTRUCTURE
     1 10K         1 TEMP              0 ****  ****    0 ROOT
