@<TRIPOS>MOLECULE
10K
   40    43     1     0     0
SMALL
bcc


@<TRIPOS>ATOM
      1 O           2.4610   -0.7540   -2.2320 o         1 10K     -0.576100
      2 S          -5.8080    0.4780   -0.0340 ss        1 10K      0.034200
      3 C1         -6.7810    0.5800    1.3120 cc        1 10K     -0.166100
      4 N1          1.6430   -0.5440   -0.0820 n         1 10K     -0.457100
      5 C2         -6.1740    0.0430    2.4270 cd        1 10K     -0.156000
      6 N2          2.8850    0.4670    1.8170 na        1 10K     -0.042600
      7 C3         -4.8720   -0.4570    2.1270 cd        1 10K     -0.141000
      8 N3          3.9750    1.2070    2.0340 nc        1 10K     -0.518800
      9 C4         -4.5440   -0.2770    0.7920 cc        1 10K     -0.077100
     10 C5         -3.3110   -0.6640    0.1520 ca        1 10K      0.012000
     11 C6         -2.8940   -0.0340   -1.0320 ca        1 10K     -0.122500
     12 C7         -1.7060   -0.4060   -1.6530 ca        1 10K     -0.121000
     13 C8         -0.9050   -1.4140   -1.1030 ca        1 10K     -0.105300
     14 C9         -1.3180   -2.0470    0.0750 ca        1 10K     -0.121000
     15 C10        -2.5080   -1.6790    0.6960 ca        1 10K     -0.122500
     16 C11         0.3540   -1.8230   -1.7760 c3        1 10K     -0.109100
     17 C12         1.5710   -0.9900   -1.3970 c         1 10K      0.673100
     18 C13         2.7130    0.1870    0.4290 cc        1 10K      0.020300
     19 C14         4.6150    1.3530    0.8380 cd        1 10K      0.357600
     20 C15         3.8460    0.7210   -0.2180 cd        1 10K     -0.294300
     21 C16         5.8900    2.0470    0.6630 cx        1 10K     -0.156000
     22 C17         6.1370    2.8250   -0.6080 cx        1 10K     -0.123900
     23 C18         6.8700    1.5410   -0.3680 cx        1 10K     -0.123900
     24 HN1         0.8700   -0.7270    0.5190 hn        1 10K      0.327500
     25 H2         -6.6160   -0.0030    3.4250 ha        1 10K      0.156000
     26 H3         -4.2220   -0.9160    2.8750 ha        1 10K      0.154000
     27 H6         -3.5130    0.7650   -1.4710 ha        1 10K      0.140000
     28 H7         -1.3940    0.0950   -2.5820 ha        1 10K      0.139000
     29 H9         -0.7060   -2.8530    0.5080 ha        1 10K      0.139000
     30 H10        -2.8280   -2.1930    1.6150 ha        1 10K      0.140000
     31 H11         0.6000   -2.8930   -1.5350 hc        1 10K      0.088700
     32 H11A        0.2400   -1.7430   -2.8920 hc        1 10K      0.088700
     33 H15         4.0920    0.6590   -1.2740 ha        1 10K      0.191000
     34 H16         6.3040    2.4600    1.6070 hc        1 10K      0.095700
     35 H17         5.3450    2.8510   -1.3780 hc        1 10K      0.074200
     36 H17A        6.6830    3.7820   -0.5390 hc        1 10K      0.074200
     37 H18         7.9470    1.5680   -0.1250 hc        1 10K      0.074200
     38 H18A        6.6010    0.6520   -0.9670 hc        1 10K      0.074200
     39 HN2         2.1620    0.4650    2.4990 hn        1 10K      0.307700
     40 H1         -7.7760    1.0230    1.2880 h4        1 10K      0.174000
@<TRIPOS>BOND
     1    1   17 2   
     2    2    3 1   
     3    2    9 1   
     4    3    5 2   
     5    3   40 1   
     6    4   17 1   
     7    4   18 1   
     8    4   24 1   
     9    5    7 1   
    10    5   25 1   
    11    6    8 1   
    12    6   18 1   
    13    6   39 1   
    14    7    9 2   
    15    7   26 1   
    16    8   19 2   
    17    9   10 1   
    18   10   11 ar  
    19   10   15 ar  
    20   11   12 ar  
    21   11   27 1   
    22   12   13 ar  
    23   12   28 1   
    24   13   14 ar  
    25   13   16 1   
    26   14   15 ar  
    27   14   29 1   
    28   15   30 1   
    29   16   17 1   
    30   16   31 1   
    31   16   32 1   
    32   18   20 2   
    33   19   20 1   
    34   19   21 1   
    35   20   33 1   
    36   21   22 1   
    37   21   23 1   
    38   21   34 1   
    39   22   23 1   
    40   22   35 1   
    41   22   36 1   
    42   23   37 1   
    43   23   38 1   
@<TRIPOS>SUBSTRUCTURE
     1 10K         1 TEMP              0 ****  ****    0 ROOT
