@<TRIPOS>MOLECULE
10L
   18    19     1     0     0
SMALL
bcc


@<TRIPOS>ATOM
      1 N3         -0.0510    0.0320   -0.0520 n4        1 10L     -0.688000
      2 C3          1.4050   -0.0090   -0.0430 ca        1 10L     -0.115400
      3 C2          2.1120   -0.0150    1.1720 ca        1 10L     -0.037200
      4 C4          2.1350   -0.0280   -1.2460 ca        1 10L     -0.050000
      5 C5          3.5290   -0.0330   -1.2360 ca        1 10L     -0.146000
      6 C6          4.2580   -0.0120   -0.0420 ca        1 10L      0.016000
      7 C1          3.5630   -0.0040    1.1560 ca        1 10L     -0.198900
      8 C1'         3.9210    0.0380    2.5780 cc        1 10L      0.396800
      9 N1'         2.8120    0.0480    3.3290 nd        1 10L     -0.467100
     10 N9          1.7290    0.0720    2.5190 na        1 10L     -0.024100
     11 H31N       -0.4280   -0.8190    0.3800 hn        1 10L      0.461800
     12 H32N       -0.3770    0.8530    0.4720 hn        1 10L      0.461800
     13 H4          1.6120   -0.0370   -2.2190 ha        1 10L      0.157000
     14 H9          0.8600   -0.2260    2.9010 hn        1 10L      0.322700
     15 H5          4.0680   -0.0480   -2.1990 ha        1 10L      0.177000
     16 H6          5.3610   -0.0000   -0.0570 ha        1 10L      0.180000
     17 H1'         4.9300    0.0610    3.0020 h4        1 10L      0.089800
     18 H33        -0.3920    0.0940   -1.0190 hn        1 10L      0.461800
@<TRIPOS>BOND
     1    1    2 1   
     2    1   11 1   
     3    1   12 1   
     4    1   18 1   
     5    2    3 ar  
     6    2    4 ar  
     7    3    7 ar  
     8    3   10 1   
     9    4    5 ar  
    10    4   13 1   
    11    5    6 ar  
    12    5   15 1   
    13    6    7 ar  
    14    6   16 1   
    15    7    8 1   
    16    8    9 2   
    17    8   17 1   
    18    9   10 1   
    19   10   14 1   
@<TRIPOS>SUBSTRUCTURE
     1 10L         1 TEMP              0 ****  ****    0 ROOT
