@<TRIPOS>MOLECULE
10L
   17    12     1     0     0
SMALL
bcc


@<TRIPOS>ATOM
      1 N3         -2.4570   -0.0000   -0.4350 n3        1 10L     -0.307000
      2 C3         -1.0390   -0.0000   -0.4350 c2        1 10L     -0.026000
      3 C2         -0.2000   -0.0000    0.6950 c1        1 10L      0.017000
      4 C4         -0.4880   -0.0000   -1.7060 c1        1 10L     -0.134000
      5 C5          0.8870   -0.0000   -1.8650 c1        1 10L     -0.109000
      6 C6          1.7120   -0.0000   -0.7530 c1        1 10L     -0.109000
      7 C1          1.1530   -0.0000    0.5390 c1        1 10L     -0.130000
      8 C1'         1.7270   -0.0000    1.7980 c1        1 10L     -0.164000
      9 N1'         0.7290   -0.0000    2.7130 n2        1 10L     -0.042000
     10 N9         -0.4700   -0.0000    2.0370 n1        1 10L     -0.183000
     11 H31N       -2.9130    0.7900   -0.4420 hn        1 10L      0.158000
     12 H32N       -2.9130   -0.7900   -0.4420 hn        1 10L      0.158000
     13 H4         -1.0700   -0.0000   -2.4900 ha        1 10L      0.129000
     14 H9         -1.2990   -0.0000    2.4170 DU        1 10L      0.235000
     15 H5          1.2750   -0.0000   -2.7610 ha        1 10L      0.136000
     16 H6          2.6820   -0.0000   -0.8650 ha        1 10L      0.136000
     17 H1'         2.6840   -0.0000    1.9930 DU        1 10L      0.235000
@<TRIPOS>BOND
     1    1    2 1   
     2    1   11 1   
     3    1   12 1   
     4    2    3 1   
     5    2    4 1   
     6    3    7 1   
     7    4   13 1   
     8    5    6 1   
     9    5   15 1   
    10    6   16 1   
    11    8    9 1   
    12    9   10 1   
@<TRIPOS>SUBSTRUCTURE
     1 10L         1 TEMP              0 ****  ****    0 ROOT
