@<TRIPOS>MOLECULE
10L
   17    18     1     0     0
SMALL
bcc


@<TRIPOS>ATOM
      1 N3         -1.6600    2.0650    0.1280 nh        1 10L     -0.805200
      2 C3         -1.2000    0.7440    0.0330 ca        1 10L      0.124600
      3 C2          0.1850    0.4570    0.0190 ca        1 10L     -0.110200
      4 C4         -2.0590   -0.3700    0.0420 ca        1 10L     -0.168000
      5 C5         -1.5710   -1.6830    0.0220 ca        1 10L     -0.120000
      6 C6         -0.2110   -1.9660   -0.0150 ca        1 10L     -0.104000
      7 C1          0.6760   -0.8950   -0.0120 ca        1 10L     -0.178900
      8 C1'         2.1300   -0.7330   -0.0400 cc        1 10L      0.353800
      9 N1'         2.4510    0.5700   -0.0140 nd        1 10L     -0.519100
     10 N9          1.3220    1.3050   -0.0630 na        1 10L     -0.003100
     11 H31N       -1.1340    2.7050   -0.4280 hn        1 10L      0.383300
     12 H32N       -2.6410    2.1500   -0.0380 hn        1 10L      0.383300
     13 H4         -3.1490   -0.2140    0.0700 ha        1 10L      0.133000
     14 H9          1.3420    2.1920    0.3940 hn        1 10L      0.302700
     15 H5         -2.2960   -2.5120    0.0310 ha        1 10L      0.133000
     16 H6          0.1550   -3.0010   -0.0470 ha        1 10L      0.140000
     17 H1'         2.8770   -1.5270   -0.0800 h4        1 10L      0.054800
@<TRIPOS>BOND
     1    1    2 1   
     2    1   11 1   
     3    1   12 1   
     4    2    3 ar  
     5    2    4 ar  
     6    3    7 ar  
     7    3   10 1   
     8    4    5 ar  
     9    4   13 1   
    10    5    6 ar  
    11    5   15 1   
    12    6    7 ar  
    13    6   16 1   
    14    7    8 1   
    15    8    9 2   
    16    8   17 1   
    17    9   10 1   
    18   10   14 1   
@<TRIPOS>SUBSTRUCTURE
     1 10L         1 TEMP              0 ****  ****    0 ROOT
