@<TRIPOS>MOLECULE
10L
   17    18     1     0     0
SMALL
bcc


@<TRIPOS>ATOM
      1 N3         -0.0620   -0.1360    0.0680 nv        1 10L     -0.805200
      2 C3          1.3370   -0.0550    0.0110 ca        1 10L      0.124600
      3 C2          2.1100    0.0090    1.1950 ca        1 10L     -0.110200
      4 C4          2.0610   -0.1260   -1.1930 ca        1 10L     -0.168000
      5 C5          3.4620   -0.1190   -1.2180 ca        1 10L     -0.120000
      6 C6          4.2210   -0.0330   -0.0580 ca        1 10L     -0.104000
      7 C1          3.5470    0.0270    1.1570 ca        1 10L     -0.178900
      8 C1'         3.9280    0.1180    2.5680 cc        1 10L      0.353800
      9 N1'         2.8320    0.1380    3.3420 nd        1 10L     -0.519100
     10 N9          1.7350    0.1580    2.5570 na        1 10L     -0.003100
     11 H31N       -0.4970   -0.0080   -0.8210 hn        1 10L      0.383300
     12 H32N       -0.4610    0.4580    0.7650 hn        1 10L      0.383300
     13 H4          1.5180   -0.1950   -2.1480 ha        1 10L      0.133000
     14 H9          0.9130   -0.2760    2.9200 hn        1 10L      0.302700
     15 H5          3.9690   -0.1780   -2.1940 ha        1 10L      0.133000
     16 H6          5.3190   -0.0120   -0.0950 ha        1 10L      0.140000
     17 H1'         4.9390    0.1690    2.9710 h4        1 10L      0.054800
@<TRIPOS>BOND
     1    1    2 1   
     2    1   11 1   
     3    1   12 1   
     4    2    3 ar  
     5    2    4 ar  
     6    3    7 ar  
     7    3   10 1   
     8    4    5 ar  
     9    4   13 1   
    10    5    6 ar  
    11    5   15 1   
    12    6    7 ar  
    13    6   16 1   
    14    7    8 1   
    15    8    9 2   
    16    8   17 1   
    17    9   10 1   
    18   10   14 1   
@<TRIPOS>SUBSTRUCTURE
     1 10L         1 TEMP              0 ****  ****    0 ROOT
