@<TRIPOS>MOLECULE
10L
   17    18     1     0     0
SMALL
bcc


@<TRIPOS>ATOM
      1 N3         -0.0620   -0.0970    0.0590 nh        1 10L     -0.805200
      2 C3          1.3380   -0.0440    0.0040 ca        1 10L      0.124600
      3 C2          2.1090    0.0270    1.1890 ca        1 10L     -0.110200
      4 C4          2.0630   -0.1500   -1.1960 ca        1 10L     -0.168000
      5 C5          3.4650   -0.1700   -1.2170 ca        1 10L     -0.120000
      6 C6          4.2220   -0.0770   -0.0560 ca        1 10L     -0.104000
      7 C1          3.5460    0.0170    1.1560 ca        1 10L     -0.178900
      8 C1'         3.9240    0.1260    2.5660 cc        1 10L      0.353800
      9 N1'         2.8270    0.1800    3.3360 nd        1 10L     -0.519100
     10 N9          1.7330    0.2070    2.5470 na        1 10L     -0.003100
     11 H31N       -0.4920    0.0230   -0.8340 hn        1 10L      0.383300
     12 H32N       -0.4520    0.5160    0.7440 hn        1 10L      0.383300
     13 H4          1.5220   -0.2260   -2.1520 ha        1 10L      0.133000
     14 H9          0.9020   -0.2050    2.9150 hn        1 10L      0.302700
     15 H5          3.9730   -0.2560   -2.1900 ha        1 10L      0.133000
     16 H6          5.3200   -0.0780   -0.0910 ha        1 10L      0.140000
     17 H1'         4.9360    0.1650    2.9710 h4        1 10L      0.054800
@<TRIPOS>BOND
     1    1    2 1   
     2    1   11 1   
     3    1   12 1   
     4    2    3 ar  
     5    2    4 ar  
     6    3    7 ar  
     7    3   10 1   
     8    4    5 ar  
     9    4   13 1   
    10    5    6 ar  
    11    5   15 1   
    12    6    7 ar  
    13    6   16 1   
    14    7    8 1   
    15    8    9 2   
    16    8   17 1   
    17    9   10 1   
    18   10   14 1   
@<TRIPOS>SUBSTRUCTURE
     1 10L         1 TEMP              0 ****  ****    0 ROOT
