@<TRIPOS>MOLECULE
10M
   75    76     1     0     0
SMALL
bcc


@<TRIPOS>ATOM
      1 O10        -0.6460    3.7950   -0.0880 oh        1 10M     -0.604800
      2 C22        -0.9420    2.4710   -0.5020 c3        1 10M      0.091100
      3 C21        -2.3500    2.1790    0.0560 c3        1 10M      0.124100
      4 O9         -3.3050    2.9550   -0.6460 oh        1 10M     -0.603800
      5 C14        -2.7080    0.6970   -0.1500 c3        1 10M      0.128100
      6 O3         -3.9020    0.3750    0.5660 os        1 10M     -0.458600
      7 C15        -5.1030    0.6630   -0.1380 c3        1 10M      0.298900
      8 C20        -6.2600    0.5420    0.8710 c3        1 10M      0.094100
      9 O8         -6.0260    1.3120    2.0310 oh        1 10M     -0.592800
     10 C19        -6.5190   -0.9230    1.2520 c3        1 10M      0.074100
     11 O7         -7.7450   -1.0570    1.9520 oh        1 10M     -0.607800
     12 C18        -6.6360   -1.7860   -0.0150 c3        1 10M      0.125100
     13 O6         -6.7640   -3.1560    0.3180 oh        1 10M     -0.595800
     14 C16        -5.3420   -1.6230   -0.8270 c3        1 10M      0.136100
     15 C17        -5.3820   -2.4230   -2.1290 c3        1 10M      0.136400
     16 O5         -4.0320   -2.6920   -2.4770 oh        1 10M     -0.603800
     17 O4         -5.1890   -0.2510   -1.2060 os        1 10M     -0.425600
     18 C12        -1.5960   -0.1760    0.4550 c3        1 10M      0.091100
     19 C13        -1.8320   -1.6680    0.1940 c3        1 10M      0.138400
     20 O2         -0.7110   -2.4330    0.5770 oh        1 10M     -0.595800
     21 O1         -0.3480    0.1340   -0.1710 os        1 10M     -0.404600
     22 C11         0.0770    1.4710    0.0480 c3        1 10M      0.184200
     23 S           1.5990    1.6680   -0.8570 ss        1 10M     -0.285200
     24 C10         2.7730    0.8620    0.2000 c3        1 10M     -0.004300
     25 C9          4.1100    0.9230   -0.4930 c3        1 10M     -0.073400
     26 C8          5.1850    0.2710    0.3520 c3        1 10M     -0.077400
     27 C7          6.5300    0.3270   -0.3410 c3        1 10M     -0.079400
     28 C6          7.6070   -0.3240    0.5010 c3        1 10M     -0.079400
     29 C5          8.9520   -0.2690   -0.1910 c3        1 10M     -0.079400
     30 C4         10.0290   -0.9180    0.6500 c3        1 10M     -0.079400
     31 C3         11.3740   -0.8640   -0.0410 c3        1 10M     -0.079400
     32 C2         12.4530   -1.5140    0.7990 c3        1 10M     -0.080400
     33 C1         13.7940   -1.4610    0.1140 c3        1 10M     -0.093100
     34 HO10        0.2430    3.9980   -0.4090 ho        1 10M      0.424000
     35 H22        -0.9660    2.4150   -1.6270 h1        1 10M      0.076700
     36 H21        -2.3840    2.4370    1.1510 h1        1 10M      0.061700
     37 HO9        -3.0410    3.8790   -0.5400 ho        1 10M      0.425000
     38 H14        -2.8420    0.4770   -1.2450 h1        1 10M      0.096700
     39 H15        -5.0750    1.6810   -0.6240 h2        1 10M      0.124700
     40 H20        -7.1880    0.9870    0.4120 h1        1 10M      0.099700
     41 HO8        -5.1420    1.0900    2.3560 ho        1 10M      0.420000
     42 H19        -5.6780   -1.3030    1.8980 h1        1 10M      0.062700
     43 HO7        -7.7440   -0.3830    2.6450 ho        1 10M      0.424000
     44 H18        -7.5270   -1.4580   -0.6170 h1        1 10M      0.058700
     45 HO6        -7.4890   -3.2160    0.9570 ho        1 10M      0.425000
     46 H16        -4.4570   -1.9420   -0.2090 h1        1 10M      0.082700
     47 H17        -5.9340   -3.3850   -1.9510 h1        1 10M      0.048700
     48 H17A       -5.8840   -1.8300   -2.9380 h1        1 10M      0.048700
     49 HO5        -4.0550   -3.1560   -3.3220 ho        1 10M      0.404000
     50 H12        -1.5170    0.0150    1.5600 h1        1 10M      0.059700
     51 H13        -2.6690   -2.0230    0.8540 h1        1 10M      0.069700
     52 H13A       -2.0900   -1.8430   -0.8850 h1        1 10M      0.069700
     53 HO2         0.0250   -2.1610    0.0130 ho        1 10M      0.411000
     54 H11         0.2420    1.6430    1.1440 h2        1 10M      0.070700
     55 H10         2.8160    1.3750    1.1910 h1        1 10M      0.068200
     56 H10A        2.4630   -0.1970    0.3740 h1        1 10M      0.068200
     57 H9          4.0470    0.4030   -1.4860 hc        1 10M      0.056200
     58 H9A         4.3870    1.9930   -0.6930 hc        1 10M      0.056200
     59 H8          5.2510    0.7900    1.3450 hc        1 10M      0.043200
     60 H8A         4.9090   -0.7970    0.5540 hc        1 10M      0.043200
     61 H7          6.4630   -0.1920   -1.3330 hc        1 10M      0.041700
     62 H7A         6.8050    1.3950   -0.5440 hc        1 10M      0.041700
     63 H6          7.6730    0.1950    1.4940 hc        1 10M      0.040200
     64 H6A         7.3320   -1.3920    0.7040 hc        1 10M      0.040200
     65 H5          8.8860   -0.7870   -1.1840 hc        1 10M      0.040200
     66 H5A         9.2270    0.8000   -0.3950 hc        1 10M      0.040200
     67 H4         10.0950   -0.4000    1.6430 hc        1 10M      0.039700
     68 H4A         9.7540   -1.9870    0.8540 hc        1 10M      0.039700
     69 H3         11.3090   -1.3820   -1.0340 hc        1 10M      0.039700
     70 H3A        11.6500    0.2050   -0.2450 hc        1 10M      0.039700
     71 H2         12.5160   -0.9940    1.7920 hc        1 10M      0.038700
     72 H2A        12.1750   -2.5810    1.0030 hc        1 10M      0.038700
     73 H1         13.7580   -1.9950   -0.8660 hc        1 10M      0.032700
     74 H1A        14.1000   -0.4040   -0.0750 hc        1 10M      0.032700
     75 H1B        14.5740   -1.9450    0.7500 hc        1 10M      0.032700
@<TRIPOS>BOND
     1    1    2 1   
     2    1   34 1   
     3    2    3 1   
     4    2   22 1   
     5    2   35 1   
     6    3    4 1   
     7    3    5 1   
     8    3   36 1   
     9    4   37 1   
    10    5    6 1   
    11    5   18 1   
    12    5   38 1   
    13    6    7 1   
    14    7    8 1   
    15    7   17 1   
    16    7   39 1   
    17    8    9 1   
    18    8   10 1   
    19    8   40 1   
    20    9   41 1   
    21   10   11 1   
    22   10   12 1   
    23   10   42 1   
    24   11   43 1   
    25   12   13 1   
    26   12   14 1   
    27   12   44 1   
    28   13   45 1   
    29   14   15 1   
    30   14   17 1   
    31   14   46 1   
    32   15   16 1   
    33   15   47 1   
    34   15   48 1   
    35   16   49 1   
    36   18   19 1   
    37   18   21 1   
    38   18   50 1   
    39   19   20 1   
    40   19   51 1   
    41   19   52 1   
    42   20   53 1   
    43   21   22 1   
    44   22   23 1   
    45   22   54 1   
    46   23   24 1   
    47   24   25 1   
    48   24   55 1   
    49   24   56 1   
    50   25   26 1   
    51   25   57 1   
    52   25   58 1   
    53   26   27 1   
    54   26   59 1   
    55   26   60 1   
    56   27   28 1   
    57   27   61 1   
    58   27   62 1   
    59   28   29 1   
    60   28   63 1   
    61   28   64 1   
    62   29   30 1   
    63   29   65 1   
    64   29   66 1   
    65   30   31 1   
    66   30   67 1   
    67   30   68 1   
    68   31   32 1   
    69   31   69 1   
    70   31   70 1   
    71   32   33 1   
    72   32   71 1   
    73   32   72 1   
    74   33   73 1   
    75   33   74 1   
    76   33   75 1   
@<TRIPOS>SUBSTRUCTURE
     1 10M         1 TEMP              0 ****  ****    0 ROOT
