@<TRIPOS>MOLECULE
10M
   75    76     1     0     0
SMALL
bcc


@<TRIPOS>ATOM
      1 O10        -0.4900   -1.1000    0.7810 oh        1 10M     -0.579800
      2 C22         0.9490   -1.1050    0.7480 c3        1 10M      0.089100
      3 C21         1.4620   -1.1080    2.1410 c3        1 10M      0.088100
      4 O9          1.1160   -2.3760    2.7670 oh        1 10M     -0.602800
      5 C14         2.9320   -0.9320    2.1970 c3        1 10M      0.133100
      6 O3          3.3330   -0.7650    3.5810 os        1 10M     -0.457600
      7 C15         3.3100   -1.9980    4.2200 c3        1 10M      0.297900
      8 C20         2.6330   -1.8410    5.5660 c3        1 10M      0.103100
      9 O8          1.3660   -1.1790    5.3770 oh        1 10M     -0.576800
     10 C19         3.4490   -1.0500    6.5180 c3        1 10M      0.068100
     11 O7          2.8220   -1.1000    7.8300 oh        1 10M     -0.588800
     12 C18         4.8430   -1.5670    6.6320 c3        1 10M      0.088100
     13 O6          5.6120   -0.6520    7.4240 oh        1 10M     -0.607800
     14 C16         5.5120   -1.7270    5.2770 c3        1 10M      0.099100
     15 C17         6.8290   -2.4160    5.4650 c3        1 10M      0.145400
     16 O5          7.7710   -1.4980    5.9770 oh        1 10M     -0.597800
     17 O4          4.7000   -2.5050    4.3390 os        1 10M     -0.425600
     18 C12         3.3980    0.2720    1.4030 c3        1 10M      0.089100
     19 C13         4.9000    0.2730    1.3590 c3        1 10M      0.142400
     20 O2          5.3470    1.2660    0.4490 oh        1 10M     -0.592800
     21 O1          2.8820    0.2730    0.0260 os        1 10M     -0.408600
     22 C11         1.4250    0.0990   -0.0380 c3        1 10M      0.182200
     23 S           0.9480   -0.0950   -1.7240 ss        1 10M     -0.241200
     24 C10        -0.0560    1.3140   -2.2350 c3        1 10M     -0.013300
     25 C9         -0.7340    0.9970   -3.5680 c3        1 10M     -0.073400
     26 C8         -1.9070    1.9670   -3.7950 c3        1 10M     -0.076400
     27 C7         -2.8200    1.4140   -4.9040 c3        1 10M     -0.079400
     28 C6         -4.1600    2.1320   -4.8670 c3        1 10M     -0.079400
     29 C5         -5.1540    1.4260   -5.8390 c3        1 10M     -0.079400
     30 C4         -6.5640    2.0010   -5.6360 c3        1 10M     -0.079400
     31 C3         -7.5620    1.2350   -6.5230 c3        1 10M     -0.079400
     32 C2         -8.9800    1.7420   -6.2510 c3        1 10M     -0.080400
     33 C1         -9.9640    0.9980   -7.1420 c3        1 10M     -0.093100
     34 HO10       -0.7750   -0.3770    1.2180 ho        1 10M      0.404000
     35 H22         1.2530   -1.9210    0.2950 h1        1 10M      0.117700
     36 H21         1.0350   -0.3810    2.6390 h1        1 10M      0.046700
     37 HO9         0.3060   -2.6280    2.4980 ho        1 10M      0.425000
     38 H14         3.3620   -1.7350    1.8360 h1        1 10M      0.091700
     39 H15         2.7930   -2.6230    3.6810 h2        1 10M      0.128700
     40 H20         2.4750   -2.7250    5.9440 h1        1 10M      0.090700
     41 HO8         0.8160   -1.3950    6.0420 ho        1 10M      0.419000
     42 H19         3.4790   -0.1200    6.2150 h1        1 10M      0.100700
     43 HO7         2.9770   -1.8910    8.2030 ho        1 10M      0.409000
     44 H18         4.8230   -2.4360    7.0800 h1        1 10M      0.048700
     45 HO6         5.6910   -0.9700    8.2510 ho        1 10M      0.430000
     46 H16         5.6710   -0.8390    4.8960 h1        1 10M      0.072700
     47 H17         6.7210   -3.1590    6.0960 h1        1 10M      0.057200
     48 H17A        7.1430   -2.7610    4.6060 h1        1 10M      0.057200
     49 HO5         8.5890   -1.8350    5.8920 ho        1 10M      0.420000
     50 H12         3.0960    1.0820    1.8530 h1        1 10M      0.062700
     51 H13         5.2540    0.4670    2.2540 h1        1 10M      0.064700
     52 H13A        5.2200   -0.6070    1.0650 h1        1 10M      0.064700
     53 HO2         6.2330    1.3490    0.5100 ho        1 10M      0.410000
     54 H11         0.9960    0.9010    0.3210 h2        1 10M      0.055700
     55 H10         0.5160    2.1020   -2.3390 h1        1 10M      0.066200
     56 H10A       -0.7340    1.4930   -1.5590 h1        1 10M      0.066200
     57 H9         -0.0870    1.0930   -4.2930 hc        1 10M      0.056700
     58 H9A        -1.0680    0.0810   -3.5520 hc        1 10M      0.056700
     59 H8         -1.5610    2.8410   -4.0630 hc        1 10M      0.041700
     60 H8A        -2.4200    2.0600   -2.9650 hc        1 10M      0.041700
     61 H7         -2.4000    1.5570   -5.7710 hc        1 10M      0.042200
     62 H7A        -2.9590    0.4590   -4.7640 hc        1 10M      0.042200
     63 H6         -4.5180    2.1050   -3.9590 hc        1 10M      0.040200
     64 H6A        -4.0380    3.0690   -5.1440 hc        1 10M      0.040200
     65 H5         -4.8690    1.5780   -6.7640 hc        1 10M      0.040200
     66 H5A        -5.1640    0.4650   -5.6540 hc        1 10M      0.040200
     67 H4         -6.5680    2.9420   -5.8800 hc        1 10M      0.039700
     68 H4A        -6.8220    1.9060   -4.6990 hc        1 10M      0.039700
     69 H3         -7.3390    1.3800   -7.4650 hc        1 10M      0.039700
     70 H3A        -7.5130    0.2740   -6.3170 hc        1 10M      0.039700
     71 H2         -9.0260    2.7020   -6.4430 hc        1 10M      0.038700
     72 H2A        -9.2070    1.5860   -5.3130 hc        1 10M      0.038700
     73 H1         -9.7730    1.2060   -8.0870 hc        1 10M      0.032700
     74 H1A        -9.8730    0.0340   -6.9950 hc        1 10M      0.032700
     75 H1B       -10.8810    1.2790   -6.9230 hc        1 10M      0.032700
@<TRIPOS>BOND
     1    1    2 1   
     2    1   34 1   
     3    2    3 1   
     4    2   22 1   
     5    2   35 1   
     6    3    4 1   
     7    3    5 1   
     8    3   36 1   
     9    4   37 1   
    10    5    6 1   
    11    5   18 1   
    12    5   38 1   
    13    6    7 1   
    14    7    8 1   
    15    7   17 1   
    16    7   39 1   
    17    8    9 1   
    18    8   10 1   
    19    8   40 1   
    20    9   41 1   
    21   10   11 1   
    22   10   12 1   
    23   10   42 1   
    24   11   43 1   
    25   12   13 1   
    26   12   14 1   
    27   12   44 1   
    28   13   45 1   
    29   14   15 1   
    30   14   17 1   
    31   14   46 1   
    32   15   16 1   
    33   15   47 1   
    34   15   48 1   
    35   16   49 1   
    36   18   19 1   
    37   18   21 1   
    38   18   50 1   
    39   19   20 1   
    40   19   51 1   
    41   19   52 1   
    42   20   53 1   
    43   21   22 1   
    44   22   23 1   
    45   22   54 1   
    46   23   24 1   
    47   24   25 1   
    48   24   55 1   
    49   24   56 1   
    50   25   26 1   
    51   25   57 1   
    52   25   58 1   
    53   26   27 1   
    54   26   59 1   
    55   26   60 1   
    56   27   28 1   
    57   27   61 1   
    58   27   62 1   
    59   28   29 1   
    60   28   63 1   
    61   28   64 1   
    62   29   30 1   
    63   29   65 1   
    64   29   66 1   
    65   30   31 1   
    66   30   67 1   
    67   30   68 1   
    68   31   32 1   
    69   31   69 1   
    70   31   70 1   
    71   32   33 1   
    72   32   71 1   
    73   32   72 1   
    74   33   73 1   
    75   33   74 1   
    76   33   75 1   
@<TRIPOS>SUBSTRUCTURE
     1 10M         1 TEMP              0 ****  ****    0 ROOT
