@<TRIPOS>MOLECULE
10N
   51    54     1     0     0
SMALL
bcc


@<TRIPOS>ATOM
      1 N1         -0.0400   -0.6040    0.1670 nb        1 10N     -0.706000
      2 C2          1.2740   -0.4370    0.2390 ca        1 10N      0.493200
      3 C3          2.0090    0.0760    1.3550 ca        1 10N     -0.288300
      4 C4          1.3190    0.4530    2.5360 ca        1 10N      0.324600
      5 N5          1.8870    0.9600    3.6770 nh        1 10N     -0.765600
      6 C6          3.3010    0.9450    3.9370 c3        1 10N      0.264100
      7 C7          3.6460    1.2040    5.3750 ca        1 10N     -0.189600
      8 C8          4.3360    0.2180    6.0950 ca        1 10N     -0.074000
      9 C9          4.6810    0.4450    7.4230 ca        1 10N     -0.238300
     10 C10         4.3050    1.6700    8.0060 ca        1 10N      0.417200
     11 N11         3.6490    2.6370    7.3530 nb        1 10N     -0.692000
     12 C12         3.3220    2.4190    6.0400 ca        1 10N      0.628200
     13 N13         2.6350    3.4650    5.3600 nh        1 10N     -0.794200
     14 S14         1.0570    3.7940    5.6630 s6        1 10N      1.464900
     15 O15         0.5990    4.7870    4.7740 o         1 10N     -0.655300
     16 O16         0.3260    2.5810    5.6800 o         1 10N     -0.655300
     17 C17         1.0360    4.4350    7.2310 c3        1 10N     -0.369300
     18 C18         3.4640    4.3470    4.5830 c3        1 10N      0.202100
     19 C19        -0.0990    0.3110    2.4930 ca        1 10N     -0.284100
     20 C20        -0.7240   -0.2180    1.3000 ca        1 10N      0.470800
     21 N21        -2.0990   -0.2540    1.5180 na        1 10N     -0.267100
     22 C22        -2.3600    0.2480    2.8100 cc        1 10N     -0.031300
     23 C23        -1.1520    0.6010    3.4260 cd        1 10N     -0.128200
     24 C24        -3.7000    0.3530    3.3600 ca        1 10N     -0.028800
     25 C25        -4.8250    0.4980    2.5350 ca        1 10N     -0.118500
     26 C26        -6.0960    0.6030    3.0960 ca        1 10N     -0.127500
     27 C27        -6.2600    0.5690    4.4800 ca        1 10N     -0.127000
     28 C28        -5.1440    0.4320    5.3060 ca        1 10N     -0.127500
     29 C29        -3.8700    0.3230    4.7530 ca        1 10N     -0.118500
     30 C30         3.4050    0.2000    1.1900 cg        1 10N      0.262800
     31 N31         4.5500    0.2890    0.9870 n1        1 10N     -0.414800
     32 H1          1.8360   -0.7340   -0.6690 h4        1 10N      0.028100
     33 H2          1.2750    1.0930    4.4580 hn        1 10N      0.464800
     34 H3          3.7970    1.7370    3.2980 h1        1 10N      0.064200
     35 H4          3.7340   -0.0570    3.6370 h1        1 10N      0.064200
     36 H5          4.6020   -0.7330    5.6050 ha        1 10N      0.153000
     37 H6          5.2250   -0.3080    8.0090 ha        1 10N      0.155000
     38 H7          4.5450    1.8930    9.0630 h4        1 10N      0.031100
     39 H8          1.9180    5.0720    7.4880 h1        1 10N      0.123367
     40 H9          0.1350    5.0830    7.3790 h1        1 10N      0.123367
     41 H10         0.9910    3.6430    8.0200 h1        1 10N      0.123367
     42 H11         4.1080    4.9820    5.2500 h1        1 10N      0.057367
     43 H12         2.8070    5.0120    3.9560 h1        1 10N      0.057367
     44 H13         4.1330    3.7570    3.9010 h1        1 10N      0.057367
     45 H14        -2.7770   -0.5810    0.8800 hn        1 10N      0.310700
     46 H15        -1.0310    1.0460    4.4150 ha        1 10N      0.186000
     47 H16        -4.7160    0.5460    1.4420 ha        1 10N      0.136000
     48 H17        -6.9730    0.7180    2.4420 ha        1 10N      0.133500
     49 H18        -7.2640    0.6530    4.9190 ha        1 10N      0.133000
     50 H19        -5.2680    0.4090    6.3990 ha        1 10N      0.133500
     51 H20        -2.9910    0.2150    5.4060 ha        1 10N      0.136000
@<TRIPOS>BOND
     1    1    2 ar  
     2    1   20 ar  
     3    2    3 ar  
     4    2   32 1   
     5    3    4 ar  
     6    3   30 1   
     7    4    5 1   
     8    4   19 ar  
     9    5    6 1   
    10    5   33 1   
    11    6    7 1   
    12    6   34 1   
    13    6   35 1   
    14    7    8 ar  
    15    7   12 ar  
    16    8    9 ar  
    17    8   36 1   
    18    9   10 ar  
    19    9   37 1   
    20   10   11 ar  
    21   10   38 1   
    22   11   12 ar  
    23   12   13 1   
    24   13   14 1   
    25   13   18 1   
    26   14   15 2   
    27   14   16 2   
    28   14   17 1   
    29   17   39 1   
    30   17   40 1   
    31   17   41 1   
    32   18   42 1   
    33   18   43 1   
    34   18   44 1   
    35   19   20 ar  
    36   19   23 1   
    37   20   21 1   
    38   21   22 1   
    39   21   45 1   
    40   22   23 2   
    41   22   24 1   
    42   23   46 1   
    43   24   25 ar  
    44   24   29 ar  
    45   25   26 ar  
    46   25   47 1   
    47   26   27 ar  
    48   26   48 1   
    49   27   28 ar  
    50   27   49 1   
    51   28   29 ar  
    52   28   50 1   
    53   29   51 1   
    54   30   31 3   
@<TRIPOS>SUBSTRUCTURE
     1 10N         1 TEMP              0 ****  ****    0 ROOT
