@<TRIPOS>MOLECULE
10N
   51    54     1     0     0
SMALL
bcc


@<TRIPOS>ATOM
      1 N1         -0.1440   -0.2190   -0.0070 nb        1 10N     -0.705000
      2 C2          1.1720   -0.0590    0.0550 ca        1 10N      0.492200
      3 C3          1.9280    0.3500    1.1990 ca        1 10N     -0.287300
      4 C4          1.2610    0.6190    2.4220 ca        1 10N      0.323600
      5 N5          1.8510    1.0270    3.5910 nu        1 10N     -0.764600
      6 C6          3.2680    0.9730    3.8290 c3        1 10N      0.263100
      7 C7          3.6330    1.0930    5.2790 ca        1 10N     -0.189600
      8 C8          4.3150    0.0360    5.8980 ca        1 10N     -0.073000
      9 C9          4.6770    0.1350    7.2370 ca        1 10N     -0.238300
     10 C10         4.3270    1.3080    7.9340 ca        1 10N      0.417200
     11 N11         3.6790    2.3400    7.3800 nb        1 10N     -0.692000
     12 C12         3.3350    2.2480    6.0560 ca        1 10N      0.627200
     13 N13         2.6590    3.3620    5.4820 nh        1 10N     -0.793200
     14 S14         1.0910    3.6900    5.8340 s6        1 10N      1.463900
     15 O15         0.6440    4.7760    5.0540 o         1 10N     -0.656300
     16 O16         0.3310    2.4990    5.7380 o         1 10N     -0.656300
     17 C17         1.0980    4.1720    7.4580 c3        1 10N     -0.369300
     18 C18         3.4950    4.2970    4.7790 c3        1 10N      0.202100
     19 C19        -0.1580    0.4800    2.3930 ca        1 10N     -0.283100
     20 C20        -0.8060    0.0600    1.1690 ca        1 10N      0.470800
     21 N21        -2.1760   -0.0110    1.4140 na        1 10N     -0.267100
     22 C22        -2.4110    0.3820    2.7480 cc        1 10N     -0.031300
     23 C23        -1.1920    0.6820    3.3690 cd        1 10N     -0.127200
     24 C24        -3.7400    0.4430    3.3290 ca        1 10N     -0.031800
     25 C25        -4.7810   -0.3800    2.8730 ca        1 10N     -0.118500
     26 C26        -6.0430   -0.3010    3.4570 ca        1 10N     -0.128000
     27 C27        -6.2810    0.5930    4.5010 ca        1 10N     -0.127000
     28 C28        -5.2490    1.4100    4.9620 ca        1 10N     -0.128000
     29 C29        -3.9850    1.3390    4.3810 ca        1 10N     -0.118500
     30 C30         3.3220    0.4870    1.0210 cg        1 10N      0.262800
     31 N31         4.4630    0.5930    0.8080 n1        1 10N     -0.414800
     32 H1          1.7150   -0.2700   -0.8870 h4        1 10N      0.028100
     33 H2          1.2510    1.0940    4.3910 hn        1 10N      0.464800
     34 H3          3.7650    1.8150    3.2590 h1        1 10N      0.064200
     35 H4          3.6850   -0.0020    3.4310 h1        1 10N      0.064200
     36 H5          4.5600   -0.8700    5.3210 ha        1 10N      0.153000
     37 H6          5.2150   -0.6750    7.7460 ha        1 10N      0.155000
     38 H7          4.5810    1.4290    9.0040 h4        1 10N      0.031100
     39 H8          1.0340    3.3070    8.1650 h1        1 10N      0.123700
     40 H9          0.2170    4.8270    7.6780 h1        1 10N      0.123700
     41 H10         2.0000    4.7540    7.7720 h1        1 10N      0.123700
     42 H11         4.1460    3.7610    4.0380 h1        1 10N      0.057700
     43 H12         4.1570    4.8590    5.4920 h1        1 10N      0.057700
     44 H13         2.8430    5.0270    4.2230 h1        1 10N      0.057700
     45 H14        -2.8710   -0.2200    0.7460 hn        1 10N      0.310700
     46 H15        -1.0500    1.0240    4.3960 ha        1 10N      0.186000
     47 H16        -4.6080   -1.1030    2.0620 ha        1 10N      0.138000
     48 H17        -6.8540   -0.9500    3.0940 ha        1 10N      0.133500
     49 H18        -7.2790    0.6520    4.9590 ha        1 10N      0.133000
     50 H19        -5.4320    2.1150    5.7860 ha        1 10N      0.133500
     51 H20        -3.1710    1.9880    4.7440 ha        1 10N      0.138000
@<TRIPOS>BOND
     1    1    2 ar  
     2    1   20 ar  
     3    2    3 ar  
     4    2   32 1   
     5    3    4 ar  
     6    3   30 1   
     7    4    5 1   
     8    4   19 ar  
     9    5    6 1   
    10    5   33 1   
    11    6    7 1   
    12    6   34 1   
    13    6   35 1   
    14    7    8 ar  
    15    7   12 ar  
    16    8    9 ar  
    17    8   36 1   
    18    9   10 ar  
    19    9   37 1   
    20   10   11 ar  
    21   10   38 1   
    22   11   12 ar  
    23   12   13 1   
    24   13   14 1   
    25   13   18 1   
    26   14   15 2   
    27   14   16 2   
    28   14   17 1   
    29   17   39 1   
    30   17   40 1   
    31   17   41 1   
    32   18   42 1   
    33   18   43 1   
    34   18   44 1   
    35   19   20 ar  
    36   19   23 1   
    37   20   21 1   
    38   21   22 1   
    39   21   45 1   
    40   22   23 2   
    41   22   24 1   
    42   23   46 1   
    43   24   25 ar  
    44   24   29 ar  
    45   25   26 ar  
    46   25   47 1   
    47   26   27 ar  
    48   26   48 1   
    49   27   28 ar  
    50   27   49 1   
    51   28   29 ar  
    52   28   50 1   
    53   29   51 1   
    54   30   31 3   
@<TRIPOS>SUBSTRUCTURE
     1 10N         1 TEMP              0 ****  ****    0 ROOT
