@<TRIPOS>MOLECULE
10N
   51    38     1     0     0
SMALL
bcc


@<TRIPOS>ATOM
      1 N1         -3.9360   -2.0200   -1.0370 n1        1 10N     -0.182000
      2 C2         -4.0290   -1.7330    0.2980 c1        1 10N      0.033000
      3 C3         -2.8760   -1.3630    1.0240 c1        1 10N     -0.207000
      4 C4         -1.6750   -1.2920    0.3960 c1        1 10N      0.017500
      5 N5         -0.8590   -1.0150    1.5770 n2        1 10N     -0.320000
      6 C6         -0.4180    0.3530    1.8610 c3        1 10N      0.024000
      7 C7          0.9310    0.3090    2.5580 c1        1 10N     -0.145000
      8 C8          1.4820   -0.9070    2.9120 c1        1 10N     -0.073000
      9 C9          2.7440   -0.9580    3.4560 c1        1 10N     -0.118667
     10 C10         3.4650    0.2120    3.6490 c1        1 10N     -0.118667
     11 N11         2.9190    1.4190    3.2980 n1        1 10N     -0.180000
     12 C12         1.6490    1.4730    2.7510 c1        1 10N      0.119000
     13 N13         1.0410    2.7820    2.4160 n3        1 10N     -0.771000
     14 S14         0.2300    3.6650    3.6070 s4        1 10N      2.032800
     15 O15        -1.0940    4.0480    3.1650 o         1 10N     -0.531900
     16 O16        -0.0830    2.8400    4.7510 o         1 10N     -0.531900
     17 C17         1.2020    5.1060    4.0880 c2        1 10N     -0.947000
     18 C18         1.3030    3.3840    1.1360 c3        1 10N     -0.078000
     19 C19        -1.5850   -1.5890   -0.9820 c1        1 10N      0.017500
     20 C20        -2.7120   -1.9490   -1.6800 c1        1 10N      0.086000
     21 N21        -2.3550   -2.1520   -2.9960 n1        1 10N     -0.183000
     22 C22        -1.0190   -1.9200   -3.1110 c1        1 10N     -0.001000
     23 C23        -0.5350   -1.5700   -1.8630 c1        1 10N     -0.165000
     24 C24        -0.3160   -1.9920   -4.4690 c1        1 10N     -0.028000
     25 C25         0.2520   -3.1900   -4.8930 c1        1 10N     -0.118667
     26 C26         1.0120   -3.2260   -6.0610 c1        1 10N     -0.118667
     27 C27         1.2030   -2.0690   -6.8010 c1        1 10N     -0.118667
     28 C28         0.6340   -0.8680   -6.3780 c1        1 10N     -0.118667
     29 C29        -0.1250   -0.8300   -5.2130 c1        1 10N     -0.111000
     30 C30        -3.4240   -1.2430    2.4860 c1        1 10N     -0.084000
     31 N31        -3.8390   -1.1530    3.5940 n1        1 10N     -0.057000
     32 H1         -4.8980   -1.7860    0.7500 ha        1 10N      0.171000
     33 H2         -0.6200   -1.7210    2.1640 hn        1 10N      0.247000
     34 H3         -0.3390    0.8520    1.0240 h1        1 10N      0.113500
     35 H4         -1.0690    0.7900    2.4410 h1        1 10N      0.113500
     36 H5          0.9600   -1.7530    2.7720 ha        1 10N      0.159000
     37 H6          3.1360   -1.8230    3.7070 ha        1 10N      0.143833
     38 H7          4.4060    0.1740    4.0540 ha        1 10N      0.143833
     39 H8          1.5230    5.5580    3.2960 ha        1 10N      0.160000
     40 H9          0.6380    5.7230    4.6120 ha        1 10N      0.160000
     41 H10         1.9960    4.8090    4.6530 ha        1 10N      0.160000
     42 H11         0.5060    3.2870    0.5560 h1        1 10N      0.092000
     43 H12         1.5040    4.3330    1.2570 h1        1 10N      0.092000
     44 H13         2.0860    2.9280    0.7080 h1        1 10N      0.092000
     45 H14        -2.9370   -2.4070   -3.6960 DU        1 10N      0.212000
     46 H15         0.4010   -1.3460   -1.6460 DU        1 10N      0.212000
     47 H16         0.1190   -4.0050   -4.3720 ha        1 10N      0.143833
     48 H17         1.4180   -4.0820   -6.3630 ha        1 10N      0.143833
     49 H18         1.7260   -2.0940   -7.6040 ha        1 10N      0.143833
     50 H19         0.7780    0.0030   -6.9350 ha        1 10N      0.143833
     51 H20        -0.5210    0.0070   -4.9170 ha        1 10N      0.137000
@<TRIPOS>BOND
     1    1   20 1   
     2    2    3 1   
     3    2   32 1   
     4    3   30 1   
     5    4   19 1   
     6    5    6 1   
     7    5   33 1   
     8    6    7 1   
     9    6   34 1   
    10    6   35 1   
    11    7    8 1   
    12    8   36 1   
    13    9   10 1   
    14    9   37 1   
    15   10   38 1   
    16   11   12 1   
    17   12   13 1   
    18   13   14 1   
    19   13   18 1   
    20   14   15 1   
    21   14   16 1   
    22   17   39 1   
    23   17   40 1   
    24   17   41 1   
    25   18   42 1   
    26   18   43 1   
    27   18   44 1   
    28   21   22 1   
    29   22   23 1   
    30   24   29 1   
    31   25   26 1   
    32   25   47 1   
    33   26   48 1   
    34   27   28 1   
    35   27   49 1   
    36   28   50 1   
    37   29   51 1   
    38   30   31 1   
@<TRIPOS>SUBSTRUCTURE
     1 10N         1 TEMP              0 ****  ****    0 ROOT
