@<TRIPOS>MOLECULE
10N
   53    55     1     0     0
SMALL
bcc


@<TRIPOS>ATOM
      1 N1         -0.6530    1.1060   -0.0160 nb        1 10N     -0.595000
      2 C2          0.5310    1.6730    0.2500 ca        1 10N      0.471200
      3 C3          1.1450    1.7080    1.5300 ca        1 10N     -0.140300
      4 C4          0.4800    1.1090    2.6250 ca        1 10N      0.007600
      5 N5          1.0960    1.0850    3.9550 n4        1 10N     -0.626400
      6 C6          1.0400    2.4260    4.6330 c3        1 10N      0.164100
      7 C7          1.7170    2.4170    5.9620 ca        1 10N     -0.277600
      8 C8          1.0010    1.8780    7.0510 ca        1 10N     -0.055000
      9 C9          1.5400    1.9160    8.3290 ca        1 10N     -0.202300
     10 C10         2.8000    2.5310    8.5010 ca        1 10N      0.482200
     11 N11         3.5030    3.0630    7.4940 nb        1 10N     -0.737000
     12 C12         2.9850    2.9980    6.2270 ca        1 10N      0.575200
     13 N13         3.8250    3.6210    5.2290 nh        1 10N     -0.908900
     14 S14         4.8360    5.6120    6.3380 s4        1 10N      1.655500
     15 O15         5.3030    5.9800    5.1270 o         1 10N     -0.400900
     16 O16         3.6350    5.9910    6.8160 o         1 10N     -0.400900
     17 C17         5.8970    4.9940    7.3580 c3        1 10N     -0.555800
     18 C18         4.8760    2.7490    4.7230 c3        1 10N      0.113100
     19 C19        -0.7600    0.5070    2.4200 ca        1 10N     -0.157100
     20 C20        -1.2880    0.5330    1.0370 ca        1 10N      0.479800
     21 N21        -2.5160   -0.1330    1.0520 na        1 10N     -0.259100
     22 C22        -2.7770   -0.5730    2.3570 cc        1 10N      0.151700
     23 C23        -1.7220   -0.1910    3.2120 cd        1 10N     -0.262200
     24 C24        -3.9770   -1.3060    2.7120 ca        1 10N     -0.119800
     25 C25        -4.6110   -2.1540    1.7900 ca        1 10N     -0.089500
     26 C26        -5.7580   -2.8520    2.1610 ca        1 10N     -0.121500
     27 C27        -6.2830   -2.7090    3.4470 ca        1 10N     -0.072000
     28 C28        -5.6550   -1.8670    4.3670 ca        1 10N     -0.121500
     29 C29        -4.5060   -1.1690    4.0060 ca        1 10N     -0.089500
     30 C30         2.4020    2.3330    1.7010 cg        1 10N      0.219800
     31 N31         3.4320    2.8550    1.8530 n1        1 10N     -0.342800
     32 H1          1.0400    2.1360   -0.6220 h4        1 10N      0.077100
     33 H2          0.6010    0.3910    4.5340 hn        1 10N      0.459800
     34 H3         -0.0550    2.6860    4.7660 hx        1 10N      0.122200
     35 H4          1.4720    3.1840    3.9200 hx        1 10N      0.122200
     36 H5          0.0010    1.4410    6.8880 ha        1 10N      0.163000
     37 H6          1.0030    1.4970    9.1970 ha        1 10N      0.197000
     38 H7          3.2640    2.6070    9.5070 h4        1 10N      0.068100
     39 H8          5.5770    4.9870    8.4460 h1        1 10N      0.207367
     40 H9          6.9070    5.5150    7.3740 h1        1 10N      0.207367
     41 H10         6.1910    3.9120    7.1850 h1        1 10N      0.207367
     42 H11         5.4560    3.3140    3.9400 h1        1 10N      0.079367
     43 H12         4.4730    1.8110    4.2570 h1        1 10N      0.079367
     44 H13         5.5590    2.4510    5.5620 h1        1 10N      0.079367
     45 H14        -3.1070   -0.2650    0.2630 hn        1 10N      0.349700
     46 H15        -1.6700   -0.4190    4.2720 ha        1 10N      0.165000
     47 H16        -4.2040   -2.2930    0.7760 ha        1 10N      0.134500
     48 H17        -6.2510   -3.5200    1.4360 ha        1 10N      0.159500
     49 H18        -7.1930   -3.2610    3.7350 ha        1 10N      0.163000
     50 H19        -6.0720   -1.7520    5.3800 ha        1 10N      0.159500
     51 H20        -4.0200   -0.4980    4.7300 ha        1 10N      0.134500
     52 H52         2.0750    0.7870    3.8590 hn        1 10N      0.459800
     53 H131        3.2650    3.9770    4.4700 hn        1 10N      0.418800
@<TRIPOS>BOND
     1    1    2 ar  
     2    1   20 ar  
     3    2    3 ar  
     4    2   32 1   
     5    3    4 ar  
     6    3   30 1   
     7    4    5 1   
     8    4   19 ar  
     9    5    6 1   
    10    5   33 1   
    11    5   52 1   
    12    6    7 1   
    13    6   34 1   
    14    6   35 1   
    15    7    8 ar  
    16    7   12 ar  
    17    8    9 ar  
    18    8   36 1   
    19    9   10 ar  
    20    9   37 1   
    21   10   11 ar  
    22   10   38 1   
    23   11   12 ar  
    24   12   13 1   
    25   13   18 1   
    26   13   53 1   
    27   14   15 1   
    28   14   16 1   
    29   14   17 1   
    30   17   39 1   
    31   17   40 1   
    32   17   41 1   
    33   18   42 1   
    34   18   43 1   
    35   18   44 1   
    36   19   20 ar  
    37   19   23 1   
    38   20   21 1   
    39   21   22 1   
    40   21   45 1   
    41   22   23 2   
    42   22   24 1   
    43   23   46 1   
    44   24   25 ar  
    45   24   29 ar  
    46   25   26 ar  
    47   25   47 1   
    48   26   27 ar  
    49   26   48 1   
    50   27   28 ar  
    51   27   49 1   
    52   28   29 ar  
    53   28   50 1   
    54   29   51 1   
    55   30   31 3   
@<TRIPOS>SUBSTRUCTURE
     1 10N         1 TEMP              0 ****  ****    0 ROOT
