@<TRIPOS>MOLECULE
10N
   51    54     1     0     0
SMALL
bcc


@<TRIPOS>ATOM
      1 N1          2.9120    3.2620    1.3090 nb        1 10N     -0.695000
      2 C2          1.9110    4.1290    1.2110 ca        1 10N      0.482200
      3 C3          0.6610    3.8800    0.5750 ca        1 10N     -0.271300
      4 C4          0.4030    2.6280   -0.0500 ca        1 10N      0.278600
      5 N5         -0.7770    2.4370   -0.7660 nh        1 10N     -0.723600
      6 C6         -1.4930    1.1920   -0.7700 c3        1 10N      0.229100
      7 C7         -2.2790    0.8220    0.4570 ca        1 10N     -0.191600
      8 C8         -2.3120    1.6200    1.6080 ca        1 10N     -0.091000
      9 C9         -3.0470    1.2110    2.7170 ca        1 10N     -0.225300
     10 C10        -3.7360   -0.0140    2.6460 ca        1 10N      0.402200
     11 N11        -3.7320   -0.8070    1.5670 nb        1 10N     -0.679000
     12 C12        -3.0140   -0.4020    0.4750 ca        1 10N      0.602200
     13 N13        -3.0360   -1.2470   -0.6740 nh        1 10N     -0.799200
     14 S14        -1.9930   -2.4980   -0.8570 s6        1 10N      1.462900
     15 O15        -2.3600   -3.2610   -1.9860 o         1 10N     -0.658800
     16 O16        -0.6630   -2.0170   -0.8590 o         1 10N     -0.658800
     17 C17        -2.2040   -3.4410    0.5320 c3        1 10N     -0.371300
     18 C18        -4.1760   -1.0700   -1.5320 c3        1 10N      0.203100
     19 C19         1.4450    1.6700    0.0250 ca        1 10N     -0.243100
     20 C20         2.6740    2.0450    0.7180 ca        1 10N      0.462800
     21 N21         3.5520    0.9650    0.6590 na        1 10N     -0.270100
     22 C22         2.9280   -0.0790   -0.0500 cc        1 10N     -0.014300
     23 C23         1.6490    0.3270   -0.4490 cd        1 10N     -0.133200
     24 C24         3.5590   -1.3630   -0.2990 ca        1 10N     -0.040800
     25 C25         4.9530   -1.5190   -0.2710 ca        1 10N     -0.117000
     26 C26         5.5240   -2.7650   -0.5210 ca        1 10N     -0.130500
     27 C27         4.7160   -3.8640   -0.8070 ca        1 10N     -0.124000
     28 C28         3.3300   -3.7140   -0.8430 ca        1 10N     -0.130500
     29 C29         2.7490   -2.4730   -0.5900 ca        1 10N     -0.117000
     30 C30        -0.3050    4.9130    0.5860 cg        1 10N      0.244800
     31 N31        -1.0920    5.7720    0.6080 n1        1 10N     -0.389800
     32 H1          2.0900    5.1170    1.6780 h4        1 10N      0.031100
     33 H2         -1.3870    3.2320   -0.7520 hn        1 10N      0.411800
     34 H3         -2.2190    1.2530   -1.6380 h1        1 10N      0.091200
     35 H4         -0.7730    0.3500   -0.9880 h1        1 10N      0.091200
     36 H5         -1.7560    2.5710    1.6510 ha        1 10N      0.153000
     37 H6         -3.0900    1.8230    3.6280 ha        1 10N      0.155000
     38 H7         -4.3280   -0.3840    3.5030 h4        1 10N      0.030100
     39 H8         -3.2710   -3.5840    0.8390 h1        1 10N      0.124700
     40 H9         -1.7900   -4.4700    0.3740 h1        1 10N      0.124700
     41 H10        -1.6800   -3.0250    1.4280 h1        1 10N      0.124700
     42 H11        -4.2130   -0.0110   -1.9060 h1        1 10N      0.056367
     43 H12        -4.0910   -1.7640   -2.4140 h1        1 10N      0.056367
     44 H13        -5.1330   -1.2890   -0.9860 h1        1 10N      0.056367
     45 H14         4.4530    0.9330    1.0600 hn        1 10N      0.312700
     46 H15         0.9600   -0.2960   -1.0200 ha        1 10N      0.190000
     47 H16         5.6110   -0.6620   -0.0670 ha        1 10N      0.148000
     48 H17         6.6180   -2.8780   -0.4980 ha        1 10N      0.134000
     49 H18         5.1700   -4.8460   -1.0060 ha        1 10N      0.133000
     50 H19         2.6890   -4.5770   -1.0750 ha        1 10N      0.134000
     51 H20         1.6500   -2.3580   -0.6230 ha        1 10N      0.148000
@<TRIPOS>BOND
     1    1    2 ar  
     2    1   20 ar  
     3    2    3 ar  
     4    2   32 1   
     5    3    4 ar  
     6    3   30 1   
     7    4    5 1   
     8    4   19 ar  
     9    5    6 1   
    10    5   33 1   
    11    6    7 1   
    12    6   34 1   
    13    6   35 1   
    14    7    8 ar  
    15    7   12 ar  
    16    8    9 ar  
    17    8   36 1   
    18    9   10 ar  
    19    9   37 1   
    20   10   11 ar  
    21   10   38 1   
    22   11   12 ar  
    23   12   13 1   
    24   13   14 1   
    25   13   18 1   
    26   14   15 2   
    27   14   16 2   
    28   14   17 1   
    29   17   39 1   
    30   17   40 1   
    31   17   41 1   
    32   18   42 1   
    33   18   43 1   
    34   18   44 1   
    35   19   20 ar  
    36   19   23 1   
    37   20   21 1   
    38   21   22 1   
    39   21   45 1   
    40   22   23 2   
    41   22   24 1   
    42   23   46 1   
    43   24   25 ar  
    44   24   29 ar  
    45   25   26 ar  
    46   25   47 1   
    47   26   27 ar  
    48   26   48 1   
    49   27   28 ar  
    50   27   49 1   
    51   28   29 ar  
    52   28   50 1   
    53   29   51 1   
    54   30   31 3   
@<TRIPOS>SUBSTRUCTURE
     1 10N         1 TEMP              0 ****  ****    0 ROOT
