@<TRIPOS>MOLECULE
10O
   55    59     1     0     0
SMALL
bcc


@<TRIPOS>ATOM
      1 C1          0.1770   -0.0110    0.4250 c3        1 10O      0.274500
      2 C2          1.7310    0.0170    0.4050 c3        1 10O     -0.146700
      3 N1          1.6240    0.7710    2.8000 n         1 10O     -0.429300
      4 C3          0.1890    0.8820    2.7160 c2        1 10O      0.647800
      5 C4          2.4030    0.4520    1.6900 c         1 10O      0.720500
      6 N2         -0.3430    0.9620    1.3830 nh        1 10O     -0.761200
      7 C5         -0.3590   -1.3930    0.6350 cc        1 10O     -0.179400
      8 N3          0.9230    1.2200   -1.5490 nh        1 10O     -0.735300
      9 C6         -0.1990    0.4460   -1.0410 c3        1 10O      0.205800
     10 C7          2.1130    0.9790   -0.7430 c3        1 10O      0.203800
     11 C8         -1.7060   -1.6910    0.7370 cd        1 10O     -0.123000
     12 C9         -1.9330   -3.0940    0.9240 cd        1 10O     -0.067000
     13 S1          0.5720   -2.7850    0.7680 ss        1 10O      0.081200
     14 C10        -0.7340   -3.7890    0.9500 cc        1 10O     -0.164100
     15 C11         1.1010    1.3530   -2.9460 ca        1 10O      0.666200
     16 N4         -5.2110   -7.9430   -0.1270 n1        1 10O     -0.361800
     17 N5         -0.6250    0.9760    3.7320 n2        1 10O     -0.855100
     18 C12        -3.2500   -3.6820    1.0650 ca        1 10O     -0.016000
     19 C13        -5.0120   -6.8650    0.2630 cg        1 10O      0.232800
     20 O1          3.6460    0.4830    1.7610 o         1 10O     -0.621500
     21 N6          0.0860    0.9650   -3.7840 nb        1 10O     -0.785000
     22 C14        -3.4960   -4.9810    0.5990 ca        1 10O     -0.083000
     23 C15         2.2540    1.1540    4.0380 c3        1 10O      0.064300
     24 C16        -4.7690   -5.5480    0.7390 ca        1 10O     -0.017000
     25 C17        -4.2910   -2.9620    1.6730 ca        1 10O     -0.097000
     26 C18         2.2860    1.9750   -3.4390 ca        1 10O     -0.322300
     27 C19        -5.5550   -3.5310    1.8110 ca        1 10O     -0.133000
     28 C20         0.2480    1.2170   -5.1030 ca        1 10O      0.659600
     29 C21        -5.8030   -4.8220    1.3470 ca        1 10O     -0.090000
     30 C22         2.4100    2.2050   -4.8080 ca        1 10O     -0.041000
     31 C23         1.3920    1.8310   -5.6760 ca        1 10O     -0.296300
     32 O2         -0.7250    0.8670   -6.0180 os        1 10O     -0.448100
     33 C24        -1.9190    0.2620   -5.5240 c3        1 10O      0.126700
     34 H1          2.1260   -1.0110    0.1680 hc        1 10O      0.092700
     35 H2         -1.1130    1.0970   -1.0580 h1        1 10O      0.072700
     36 H3         -0.4080   -0.4750   -1.6520 h1        1 10O      0.072700
     37 H4          2.4560    1.9680   -0.3300 h1        1 10O      0.069200
     38 H5          2.9580    0.5350   -1.3390 h1        1 10O      0.069200
     39 H6         -2.5190   -0.9630    0.6740 ha        1 10O      0.158000
     40 H7         -0.6390   -4.8670    1.0840 h4        1 10O      0.180000
     41 H8         -0.2150    1.0380    4.6370 hn        1 10O      0.406400
     42 H10        -2.6880   -5.5530    0.1170 ha        1 10O      0.146000
     43 H11         2.0060    0.4080    4.8400 h1        1 10O      0.058033
     44 H12         3.3700    1.1800    3.9050 h1        1 10O      0.058033
     45 H13         1.9050    2.1720    4.3580 h1        1 10O      0.058033
     46 H14        -4.1020   -1.9460    2.0510 ha        1 10O      0.143000
     47 H15         3.0820    2.2930   -2.7540 ha        1 10O      0.148000
     48 H16        -6.3630   -2.9590    2.2910 ha        1 10O      0.143000
     49 H17        -6.8020   -5.2690    1.4560 ha        1 10O      0.147000
     50 H18         3.3180    2.6870   -5.2000 ha        1 10O      0.141000
     51 H19         1.4440    1.9930   -6.7580 ha        1 10O      0.160000
     52 H20        -1.6920   -0.7090   -5.0240 h1        1 10O      0.048367
     53 H21        -2.5210    0.1000   -6.4550 h1        1 10O      0.048367
     54 H22        -2.4500    0.9500   -4.8230 h1        1 10O      0.048367
     55 H23        -1.3480    0.9810    1.3780 hn        1 10O      0.420800
@<TRIPOS>BOND
     1    1    2 1   
     2    1    6 1   
     3    1    7 1   
     4    1    9 1   
     5    2    5 1   
     6    2   10 1   
     7    2   34 1   
     8    3    4 1   
     9    3    5 1   
    10    3   23 1   
    11    4    6 1   
    12    4   17 2   
    13    5   20 2   
    14    6   55 1   
    15    7   11 2   
    16    7   13 1   
    17    8    9 1   
    18    8   10 1   
    19    8   15 1   
    20    9   35 1   
    21    9   36 1   
    22   10   37 1   
    23   10   38 1   
    24   11   12 1   
    25   11   39 1   
    26   12   14 2   
    27   12   18 1   
    28   13   14 1   
    29   14   40 1   
    30   15   21 ar  
    31   15   26 ar  
    32   16   19 3   
    33   17   41 1   
    34   18   22 ar  
    35   18   25 ar  
    36   19   24 1   
    37   21   28 ar  
    38   22   24 ar  
    39   22   42 1   
    40   23   43 1   
    41   23   44 1   
    42   23   45 1   
    43   24   29 ar  
    44   25   27 ar  
    45   25   46 1   
    46   26   30 ar  
    47   26   47 1   
    48   27   29 ar  
    49   27   48 1   
    50   28   31 ar  
    51   28   32 1   
    52   29   49 1   
    53   30   31 ar  
    54   30   50 1   
    55   31   51 1   
    56   32   33 1   
    57   33   52 1   
    58   33   53 1   
    59   33   54 1   
@<TRIPOS>SUBSTRUCTURE
     1 10O         1 TEMP              0 ****  ****    0 ROOT
