@<TRIPOS>MOLECULE
10O
   55    48     1     0     0
SMALL
bcc


@<TRIPOS>ATOM
      1 C1          0.4600    1.2440   -0.1230 c3        1 10O     -0.440000
      2 C2          1.6550    1.4230   -0.8530 c3        1 10O     -0.102000
      3 N1          2.7590    1.2630    1.1700 n         1 10O     -0.312000
      4 C3          1.6590    0.9490    1.8800 c1        1 10O      0.174000
      5 C4          2.6290    1.6140   -0.3090 c2        1 10O      0.333000
      6 N2          0.5420    0.9320    1.3120 n2        1 10O     -0.269000
      7 C5         -0.4410    2.5960   -0.2940 c2        1 10O     -0.859000
      8 N3          0.3510    0.2570   -1.5160 n3        1 10O     -0.226000
      9 C6         -0.1040    0.3400   -0.6810 c3        1 10O     -0.026000
     10 C7          1.7270    0.8020   -1.2860 c3        1 10O     -0.050000
     11 C8         -1.4760    2.0080    0.5500 c1        1 10O      0.006000
     12 C9         -0.9100    0.6420    1.1640 c1        1 10O     -0.097000
     13 S1          0.7980    1.6580   -0.2570 ss        1 10O      1.145000
     14 C10         0.4460    0.4490    0.6730 c1        1 10O      0.045000
     15 C11         0.4380   -1.1400   -1.8800 c1        1 10O      0.140000
     16 N4         -5.6260    0.4080    4.9490 n1        1 10O     -0.034000
     17 N5          1.7580    0.6590    3.1810 n1        1 10O     -0.286000
     18 C12        -1.6120   -0.2220    2.2130 c1        1 10O     -0.054000
     19 C13        -4.6690    0.0170    4.4560 c1        1 10O     -0.097000
     20 O1          3.5560    2.1730   -0.8900 o         1 10O     -0.340000
     21 N6         -0.3350   -0.5140   -2.8230 n1        1 10O     -0.258000
     22 C14        -2.8320    0.1870    2.7410 c2        1 10O     -0.081000
     23 C15         4.0150    1.4270    1.8370 c3        1 10O     -0.100000
     24 C16        -3.3950   -0.5030    3.8000 c1        1 10O     -0.013000
     25 C17        -0.9560   -1.3280    2.7520 c1        1 10O     -0.090000
     26 C18         0.8830   -2.4430   -2.0970 c1        1 10O     -0.256000
     27 C19        -1.5200   -2.0190    3.8120 c1        1 10O     -0.108000
     28 C20        -0.6710   -1.1680   -3.9800 c1        1 10O      0.161000
     29 C21        -2.7370   -1.6110    4.3380 c1        1 10O     -0.108000
     30 C22         0.5470   -3.0980   -3.2550 c1        1 10O     -0.042000
     31 C23        -0.2280   -2.4690   -4.1980 c2        1 10O     -0.230000
     32 O2         -1.9490   -0.6830   -4.3970 o         1 10O     -0.206000
     33 C24        -1.9470   -0.0810   -5.7110 c3        1 10O     -0.063000
     34 H1          1.5100    2.1950   -1.4650 hc        1 10O      0.120000
     35 H2         -0.0190   -0.4990   -0.1540 h1        1 10O      0.102000
     36 H3         -1.0830    0.5700   -0.8300 h1        1 10O      0.102000
     37 H4          2.1410    1.0410   -2.1500 h1        1 10O      0.104000
     38 H5          2.2840    0.1270   -0.8210 h1        1 10O      0.104000
     39 H6         -2.3620    2.3840    0.7120 DU        1 10O      0.141667
     40 H7          1.0450   -0.3170    0.8900 DU        1 10O      0.141667
     41 H8          2.5790    0.6730    3.5940 DU        1 10O      0.141667
     42 H10        -3.2790    0.9750    2.3800 ha        1 10O      0.150000
     43 H11         3.9180    1.1780    2.7810 h1        1 10O      0.094667
     44 H12         4.2990    2.3630    1.7750 h1        1 10O      0.094667
     45 H13         4.6880    0.8520    1.4150 h1        1 10O      0.094667
     46 H14        -0.0980   -1.6170    2.3810 ha        1 10O      0.146000
     47 H15         1.4420   -2.8950   -1.4170 ha        1 10O      0.146000
     48 H16        -1.0570   -2.8010    4.1920 ha        1 10O      0.145500
     49 H17        -3.1340   -2.1000    5.0850 ha        1 10O      0.145500
     50 H18         0.8570   -4.0080   -3.4080 ha        1 10O      0.141000
     51 H19        -0.4690   -2.9360   -5.0240 ha        1 10O      0.160000
     52 H20        -2.3580   -0.7020   -6.3600 h1        1 10O      0.088000
     53 H21        -1.0230    0.1100   -5.9820 h1        1 10O      0.088000
     54 H22        -2.4650    0.7650   -5.6880 h1        1 10O      0.088000
     55 H23        -0.2300    0.8730    1.8170 hn        1 10O      0.204000
@<TRIPOS>BOND
     1    1    2 1   
     2    1    6 1   
     3    1    7 1   
     4    1    9 1   
     5    2    5 1   
     6    2   10 1   
     7    2   34 1   
     8    3    4 1   
     9    3    5 1   
    10    3   23 1   
    11    4   17 1   
    12    5   20 1   
    13    6   55 1   
    14    7   11 1   
    15    7   13 1   
    16    8    9 1   
    17    8   10 1   
    18    8   15 1   
    19    9   35 1   
    20    9   36 1   
    21   10   37 1   
    22   10   38 1   
    23   11   12 1   
    24   12   14 1   
    25   13   14 1   
    26   15   26 1   
    27   16   19 1   
    28   18   22 1   
    29   18   25 1   
    30   21   28 1   
    31   22   24 1   
    32   22   42 1   
    33   23   43 1   
    34   23   44 1   
    35   23   45 1   
    36   25   46 1   
    37   26   47 1   
    38   27   29 1   
    39   27   48 1   
    40   28   31 1   
    41   29   49 1   
    42   30   31 1   
    43   30   50 1   
    44   31   51 1   
    45   32   33 1   
    46   33   52 1   
    47   33   53 1   
    48   33   54 1   
@<TRIPOS>SUBSTRUCTURE
     1 10O         1 TEMP              0 ****  ****    0 ROOT
