@<TRIPOS>MOLECULE
10O
   55    59     1     0     0
SMALL
bcc


@<TRIPOS>ATOM
      1 C1         -0.1420   -0.0060    0.0080 c3        1 10O      0.277500
      2 C2          1.3940   -0.1830    0.1940 c3        1 10O     -0.145700
      3 N1          1.0510    0.4340    2.6070 n         1 10O     -0.428300
      4 C3         -0.3320    0.7390    2.3500 c2        1 10O      0.652800
      5 C4          1.9270    0.0620    1.5890 c         1 10O      0.724500
      6 N2         -0.6730    0.9510    0.9710 nh        1 10O     -0.765200
      7 C5         -0.8260   -1.3380    0.0080 cc        1 10O     -0.173400
      8 N3          1.0220    1.2760   -1.7170 nh        1 10O     -0.736300
      9 C6         -0.2460    0.6180   -1.4420 c3        1 10O      0.202800
     10 C7          2.0510    0.7980   -0.8010 c3        1 10O      0.201800
     11 C8         -1.8330   -1.7520    0.8580 cd        1 10O     -0.124000
     12 C9         -2.2580   -3.0950    0.5760 cd        1 10O     -0.069000
     13 S1         -0.4360   -2.5560   -1.0930 ss        1 10O      0.065200
     14 C10        -1.5440   -3.6280   -0.4840 cc        1 10O     -0.160100
     15 C11         1.4030    1.5220   -3.0550 ca        1 10O      0.666200
     16 N4         -4.2250   -8.4100    2.3730 n1        1 10O     -0.361800
     17 N5         -1.2560    0.8970    3.2590 n2        1 10O     -0.867100
     18 C12        -3.2980   -3.7780    1.3190 ca        1 10O     -0.016000
     19 C13        -4.2500   -7.2510    2.2760 cg        1 10O      0.232800
     20 O1          3.1390   -0.0990    1.8280 o         1 10O     -0.621500
     21 N6          0.4710    1.3660   -4.0500 nb        1 10O     -0.786000
     22 C14        -3.2750   -5.1740    1.4420 ca        1 10O     -0.083000
     23 C15         1.5450    0.6320    3.9450 c3        1 10O      0.064300
     24 C16        -4.2810   -5.8340    2.1570 ca        1 10O     -0.018000
     25 C17        -4.3390   -3.0550    1.9230 ca        1 10O     -0.096000
     26 C18         2.7140    2.0160   -3.3240 ca        1 10O     -0.321300
     27 C19        -5.3380   -3.7160    2.6340 ca        1 10O     -0.133000
     28 C20         0.8420    1.7240   -5.3000 ca        1 10O      0.659600
     29 C21        -5.3170   -5.1040    2.7560 ca        1 10O     -0.090000
     30 C22         3.0510    2.3620   -4.6310 ca        1 10O     -0.041000
     31 C23         2.1220    2.2250   -5.6540 ca        1 10O     -0.296300
     32 O2         -0.0350    1.6080   -6.3610 os        1 10O     -0.448100
     33 C24        -1.3560    1.1440   -6.0890 c3        1 10O      0.126700
     34 H1          1.6770   -1.2390   -0.0760 hc        1 10O      0.098700
     35 H2         -0.4720   -0.2130   -2.1700 h1        1 10O      0.071200
     36 H3         -1.0650    1.3830   -1.5170 h1        1 10O      0.071200
     37 H4          2.4710    1.6910   -0.2590 h1        1 10O      0.068200
     38 H5          2.8980    0.2830   -1.3340 h1        1 10O      0.068200
     39 H6         -2.2690   -1.1640    1.6710 ha        1 10O      0.171000
     40 H7         -1.6850   -4.6290   -0.8940 h4        1 10O      0.180000
     41 H8         -0.9650    0.8670    4.2110 hn        1 10O      0.407400
     42 H10        -2.4600   -5.7530    0.9790 ha        1 10O      0.146000
     43 H11         1.2970    1.6670    4.3050 h1        1 10O      0.058033
     44 H12         2.6620    0.5030    3.9620 h1        1 10O      0.058033
     45 H13         1.0870   -0.1220    4.6400 h1        1 10O      0.058033
     46 H14        -4.3690   -1.9580    1.8290 ha        1 10O      0.143000
     47 H15         3.4440    2.1470   -2.5150 ha        1 10O      0.148000
     48 H16        -6.1490   -3.1390    3.1020 ha        1 10O      0.143000
     49 H17        -6.1070   -5.6250    3.3180 ha        1 10O      0.147000
     50 H18         4.0580    2.7480   -4.8510 ha        1 10O      0.141000
     51 H19         2.3400    2.4860   -6.6950 ha        1 10O      0.160000
     52 H20        -1.8420    1.1660   -7.0980 h1        1 10O      0.048367
     53 H21        -1.3330    0.1050   -5.6820 h1        1 10O      0.048367
     54 H22        -1.8780    1.8320   -5.3810 h1        1 10O      0.048367
     55 H23        -1.6570    1.1030    0.8390 hn        1 10O      0.424800
@<TRIPOS>BOND
     1    1    2 1   
     2    1    6 1   
     3    1    7 1   
     4    1    9 1   
     5    2    5 1   
     6    2   10 1   
     7    2   34 1   
     8    3    4 1   
     9    3    5 1   
    10    3   23 1   
    11    4    6 1   
    12    4   17 2   
    13    5   20 2   
    14    6   55 1   
    15    7   11 2   
    16    7   13 1   
    17    8    9 1   
    18    8   10 1   
    19    8   15 1   
    20    9   35 1   
    21    9   36 1   
    22   10   37 1   
    23   10   38 1   
    24   11   12 1   
    25   11   39 1   
    26   12   14 2   
    27   12   18 1   
    28   13   14 1   
    29   14   40 1   
    30   15   21 ar  
    31   15   26 ar  
    32   16   19 3   
    33   17   41 1   
    34   18   22 ar  
    35   18   25 ar  
    36   19   24 1   
    37   21   28 ar  
    38   22   24 ar  
    39   22   42 1   
    40   23   43 1   
    41   23   44 1   
    42   23   45 1   
    43   24   29 ar  
    44   25   27 ar  
    45   25   46 1   
    46   26   30 ar  
    47   26   47 1   
    48   27   29 ar  
    49   27   48 1   
    50   28   31 ar  
    51   28   32 1   
    52   29   49 1   
    53   30   31 ar  
    54   30   50 1   
    55   31   51 1   
    56   32   33 1   
    57   33   52 1   
    58   33   53 1   
    59   33   54 1   
@<TRIPOS>SUBSTRUCTURE
     1 10O         1 TEMP              0 ****  ****    0 ROOT
