@<TRIPOS>MOLECULE
10O
   55    59     1     0     0
SMALL
bcc


@<TRIPOS>ATOM
      1 C1         -0.7910    0.7830    0.4090 c3        1 10O      0.277500
      2 C2         -1.4590    1.5290   -0.7840 c3        1 10O     -0.145700
      3 N1         -0.4870    3.6490    0.1530 n         1 10O     -0.428300
      4 C3         -0.0250    2.9420    1.3190 c2        1 10O      0.652800
      5 C4         -1.2400    3.0250   -0.8390 c         1 10O      0.724500
      6 N2         -0.6470    1.6690    1.5570 nh        1 10O     -0.765200
      7 C5          0.4770    0.1190   -0.0330 cc        1 10O     -0.173400
      8 N3         -3.1450    0.1390    0.2850 nh        1 10O     -0.736300
      9 C6         -1.8540   -0.3360    0.7580 c3        1 10O      0.202800
     10 C7         -2.9690    1.2200   -0.6770 c3        1 10O      0.201800
     11 C8          1.7410    0.3200    0.4870 cd        1 10O     -0.124000
     12 C9          2.7300   -0.4830   -0.1760 cd        1 10O     -0.069000
     13 S1          0.5180   -1.0180   -1.2780 ss        1 10O      0.065200
     14 C10         2.1540   -1.2560   -1.1710 cc        1 10O     -0.160100
     15 C11        -4.1810   -0.7890    0.0400 ca        1 10O      0.666200
     16 N4          8.2360   -1.2600   -2.2810 n1        1 10O     -0.361800
     17 N5          0.8440    3.3910    2.1840 n2        1 10O     -0.867100
     18 C12         4.1370   -0.4650    0.1680 ca        1 10O     -0.016000
     19 C13         7.4380   -1.0240   -1.4680 cg        1 10O      0.232800
     20 O1         -1.7080    3.6860   -1.7850 o         1 10O     -0.621500
     21 N6         -4.0350   -2.0800    0.4830 nb        1 10O     -0.786000
     22 C14         5.1040   -0.7490   -0.8070 ca        1 10O     -0.083000
     23 C15        -0.2430    5.0670    0.0870 c3        1 10O      0.064300
     24 C16         6.4640   -0.7350   -0.4730 ca        1 10O     -0.018000
     25 C17         4.5510   -0.1680    1.4760 ca        1 10O     -0.096000
     26 C18        -5.3870   -0.3390   -0.5760 ca        1 10O     -0.321300
     27 C19         5.9050   -0.1550    1.8030 ca        1 10O     -0.133000
     28 C20        -5.0950   -2.9050    0.3320 ca        1 10O      0.659600
     29 C21         6.8680   -0.4370    0.8360 ca        1 10O     -0.090000
     30 C22        -6.4470   -1.2310   -0.7190 ca        1 10O     -0.041000
     31 C23        -6.3290   -2.5390   -0.2670 ca        1 10O     -0.296300
     32 O2         -5.0400   -4.2180    0.7570 os        1 10O     -0.448100
     33 C24        -3.8470   -4.6620    1.4020 c3        1 10O      0.126700
     34 H1         -1.0570    1.1110   -1.7500 hc        1 10O      0.098700
     35 H2         -1.5350   -1.2950    0.2600 h1        1 10O      0.071200
     36 H3         -1.9280   -0.5200    1.8630 h1        1 10O      0.071200
     37 H4         -3.5300    2.1180   -0.2940 h1        1 10O      0.068200
     38 H5         -3.3730    0.9630   -1.6950 h1        1 10O      0.068200
     39 H6          2.0010    1.0100    1.2950 ha        1 10O      0.171000
     40 H7          2.6930   -1.9550   -1.8120 h4        1 10O      0.180000
     41 H8          1.1650    4.3250    2.0610 hn        1 10O      0.407400
     42 H10         4.7940   -0.9760   -1.8380 ha        1 10O      0.146000
     43 H11        -0.6070    5.5710    1.0230 h1        1 10O      0.058033
     44 H12         0.8570    5.2630   -0.0350 h1        1 10O      0.058033
     45 H13        -0.7850    5.5060   -0.7930 h1        1 10O      0.058033
     46 H14         3.7990    0.0520    2.2500 ha        1 10O      0.143000
     47 H15        -5.4930    0.7000   -0.9140 ha        1 10O      0.148000
     48 H16         6.2170    0.0790    2.8320 ha        1 10O      0.143000
     49 H17         7.9370   -0.4260    1.0960 ha        1 10O      0.147000
     50 H18        -7.3840   -0.8940   -1.1890 ha        1 10O      0.141000
     51 H19        -7.1360   -3.2740   -0.3540 ha        1 10O      0.160000
     52 H20        -2.9760   -4.5970    0.7070 h1        1 10O      0.048367
     53 H21        -3.6550   -4.0700    2.3280 h1        1 10O      0.048367
     54 H22        -4.0790   -5.7290    1.6510 h1        1 10O      0.048367
     55 H23        -0.2510    1.1910    2.3470 hn        1 10O      0.424800
@<TRIPOS>BOND
     1    1    2 1   
     2    1    6 1   
     3    1    7 1   
     4    1    9 1   
     5    2    5 1   
     6    2   10 1   
     7    2   34 1   
     8    3    4 1   
     9    3    5 1   
    10    3   23 1   
    11    4    6 1   
    12    4   17 2   
    13    5   20 2   
    14    6   55 1   
    15    7   11 2   
    16    7   13 1   
    17    8    9 1   
    18    8   10 1   
    19    8   15 1   
    20    9   35 1   
    21    9   36 1   
    22   10   37 1   
    23   10   38 1   
    24   11   12 1   
    25   11   39 1   
    26   12   14 2   
    27   12   18 1   
    28   13   14 1   
    29   14   40 1   
    30   15   21 ar  
    31   15   26 ar  
    32   16   19 3   
    33   17   41 1   
    34   18   22 ar  
    35   18   25 ar  
    36   19   24 1   
    37   21   28 ar  
    38   22   24 ar  
    39   22   42 1   
    40   23   43 1   
    41   23   44 1   
    42   23   45 1   
    43   24   29 ar  
    44   25   27 ar  
    45   25   46 1   
    46   26   30 ar  
    47   26   47 1   
    48   27   29 ar  
    49   27   48 1   
    50   28   31 ar  
    51   28   32 1   
    52   29   49 1   
    53   30   31 ar  
    54   30   50 1   
    55   31   51 1   
    56   32   33 1   
    57   33   52 1   
    58   33   53 1   
    59   33   54 1   
@<TRIPOS>SUBSTRUCTURE
     1 10O         1 TEMP              0 ****  ****    0 ROOT
