@<TRIPOS>MOLECULE
10O
   55    59     1     0     0
SMALL
bcc


@<TRIPOS>ATOM
      1 C1          0.1720   -0.0040    0.4260 c3        1 10O      0.274500
      2 C2          1.7260    0.0320    0.4110 c3        1 10O     -0.146700
      3 N1          1.6070    0.7950    2.8030 n         1 10O     -0.429300
      4 C3          0.1720    0.8990    2.7140 c2        1 10O      0.647800
      5 C4          2.3920    0.4760    1.6970 c         1 10O      0.720500
      6 N2         -0.3570    0.9700    1.3790 nu        1 10O     -0.761200
      7 C5         -0.3570   -1.3880    0.6410 cc        1 10O     -0.179400
      8 N3          0.9170    1.2240   -1.5500 nh        1 10O     -0.735300
      9 C6         -0.2020    0.4450   -1.0420 c3        1 10O      0.205800
     10 C7          2.1060    0.9910   -0.7400 c3        1 10O      0.203800
     11 C8         -1.7030   -1.6930    0.7370 cd        1 10O     -0.123000
     12 C9         -1.9240   -3.0960    0.9290 cd        1 10O     -0.067000
     13 S1          0.5810   -2.7740    0.7850 ss        1 10O      0.082200
     14 C10        -0.7210   -3.7840    0.9650 cc        1 10O     -0.164100
     15 C11         1.0980    1.3520   -2.9470 ca        1 10O      0.666200
     16 N4         -5.1670   -7.9700   -0.1140 n1        1 10O     -0.361800
     17 N5         -0.6460    0.9920    3.7270 n2        1 10O     -0.855100
     18 C12        -3.2380   -3.6910    1.0660 ca        1 10O     -0.016000
     19 C13        -4.9770   -6.8890    0.2710 cg        1 10O      0.232800
     20 O1          3.6340    0.5140    1.7700 o         1 10O     -0.621500
     21 N6          0.0870    0.9550   -3.7870 nb        1 10O     -0.785000
     22 C14        -3.4740   -4.9940    0.6050 ca        1 10O     -0.083000
     23 C15         2.2320    1.1860    4.0410 c3        1 10O      0.064300
     24 C16        -4.7450   -5.5670    0.7410 ca        1 10O     -0.017000
     25 C17        -4.2870   -2.9740    1.6630 ca        1 10O     -0.097000
     26 C18         2.2810    1.9780   -3.4390 ca        1 10O     -0.322300
     27 C19        -5.5480   -3.5490    1.7960 ca        1 10O     -0.133000
     28 C20         0.2530    1.2030   -5.1060 ca        1 10O      0.659600
     29 C21        -5.7860   -4.8430    1.3380 ca        1 10O     -0.090000
     30 C22         2.4080    2.2030   -4.8080 ca        1 10O     -0.041000
     31 C23         1.3950    1.8210   -5.6780 ca        1 10O     -0.296300
     32 O2         -0.7160    0.8450   -6.0220 os        1 10O     -0.448100
     33 C24        -1.9090    0.2360   -5.5300 c3        1 10O      0.126700
     34 H1          2.1270   -0.9950    0.1800 hc        1 10O      0.092700
     35 H2         -0.4050   -0.4790   -1.6500 h1        1 10O      0.072700
     36 H3         -1.1200    1.0920   -1.0640 h1        1 10O      0.072700
     37 H4          2.9550    0.5490   -1.3310 h1        1 10O      0.069200
     38 H5          2.4430    1.9840   -0.3300 h1        1 10O      0.069200
     39 H6         -2.5200   -0.9700    0.6640 ha        1 10O      0.158000
     40 H7         -0.6210   -4.8610    1.1060 h4        1 10O      0.180000
     41 H8         -0.2390    1.0590    4.6330 hn        1 10O      0.406400
     42 H10        -2.6600   -5.5640    0.1320 ha        1 10O      0.146000
     43 H11         1.9850    0.4420    4.8450 h1        1 10O      0.058033
     44 H12         3.3470    1.2180    3.9110 h1        1 10O      0.058033
     45 H13         1.8760    2.2040    4.3560 h1        1 10O      0.058033
     46 H14        -4.1060   -1.9540    2.0360 ha        1 10O      0.143000
     47 H15         3.0740    2.3030   -2.7530 ha        1 10O      0.148000
     48 H16        -6.3620   -2.9790    2.2680 ha        1 10O      0.143000
     49 H17        -6.7840   -5.2960    1.4440 ha        1 10O      0.147000
     50 H18         3.3160    2.6880   -5.2000 ha        1 10O      0.141000
     51 H19         1.4500    1.9790   -6.7610 ha        1 10O      0.160000
     52 H20        -1.6780   -0.7330   -5.0250 h1        1 10O      0.048367
     53 H21        -2.4450    0.9230   -4.8330 h1        1 10O      0.048367
     54 H22        -2.5070    0.0670   -6.4620 h1        1 10O      0.048367
     55 H23        -1.3620    0.9830    1.3710 hn        1 10O      0.420800
@<TRIPOS>BOND
     1    1    2 1   
     2    1    6 1   
     3    1    7 1   
     4    1    9 1   
     5    2    5 1   
     6    2   10 1   
     7    2   34 1   
     8    3    4 1   
     9    3    5 1   
    10    3   23 1   
    11    4    6 1   
    12    4   17 2   
    13    5   20 2   
    14    6   55 1   
    15    7   11 2   
    16    7   13 1   
    17    8    9 1   
    18    8   10 1   
    19    8   15 1   
    20    9   35 1   
    21    9   36 1   
    22   10   37 1   
    23   10   38 1   
    24   11   12 1   
    25   11   39 1   
    26   12   14 2   
    27   12   18 1   
    28   13   14 1   
    29   14   40 1   
    30   15   21 ar  
    31   15   26 ar  
    32   16   19 3   
    33   17   41 1   
    34   18   22 ar  
    35   18   25 ar  
    36   19   24 1   
    37   21   28 ar  
    38   22   24 ar  
    39   22   42 1   
    40   23   43 1   
    41   23   44 1   
    42   23   45 1   
    43   24   29 ar  
    44   25   27 ar  
    45   25   46 1   
    46   26   30 ar  
    47   26   47 1   
    48   27   29 ar  
    49   27   48 1   
    50   28   31 ar  
    51   28   32 1   
    52   29   49 1   
    53   30   31 ar  
    54   30   50 1   
    55   31   51 1   
    56   32   33 1   
    57   33   52 1   
    58   33   53 1   
    59   33   54 1   
@<TRIPOS>SUBSTRUCTURE
     1 10O         1 TEMP              0 ****  ****    0 ROOT
