@<TRIPOS>MOLECULE
10P
   54    52     1     0     0
SMALL
bcc


@<TRIPOS>ATOM
      1 N22        -1.6020   -3.2580    0.9740 n3        1 10P     -0.336000
      2 C3         -0.8150   -2.5090    1.8560 c3        1 10P     -0.035000
      3 C4         -0.2820   -1.2480    1.1290 c2        1 10P      0.311000
      4 O24        -1.0440   -0.3430    0.8470 o         1 10P     -0.410000
      5 C2         -1.6430   -2.0940    3.0320 c3        1 10P     -0.150000
      6 C1         -2.6110   -3.2190    3.3950 c2        1 10P     -0.096000
      7 C5         -2.2150   -4.2140    4.2910 c1        1 10P     -0.122000
      8 C9         -3.9380   -3.1760    2.9370 c2        1 10P     -0.138000
      9 C6         -3.1340   -5.1620    4.7300 c1        1 10P     -0.100000
     10 C8         -4.8610   -4.1300    3.3790 c1        1 10P     -0.122000
     11 C7         -4.4640   -5.1190    4.2710 c1        1 10P     -0.100000
     12 N23         1.1470   -1.1700    0.7240 n         1 10P     -0.310000
     13 C10         1.7390   -0.1730    0.0510 c3        1 10P      0.016000
     14 C11         0.7750    0.4340   -0.8560 c2        1 10P      0.310000
     15 O25        -0.2020   -0.1670   -1.1730 o         1 10P     -0.415000
     16 C14         2.9840   -0.9310   -0.7040 c3        1 10P     -0.165000
     17 C15         3.4280   -1.8140    0.1080 c3        1 10P     -0.176000
     18 C16         2.2320   -2.2040    0.9910 c3        1 10P     -0.024000
     19 C12         0.1190    2.3240   -2.3630 c3        1 10P      0.017000
     20 C13         0.5500    3.7660   -2.6680 c2        1 10P     -0.109000
     21 C17         1.2240    4.0550   -3.8490 c2        1 10P      0.010000
     22 C18         2.2050    5.7770   -5.3930 c3        1 10P     -0.132000
     23 C19         1.1500    6.3750   -3.3290 c1        1 10P     -0.100000
     24 C20         0.4720    6.0870   -2.1420 c1        1 10P     -0.100000
     25 C21         0.1770    4.7900   -1.8200 c1        1 10P     -0.012000
     26 N26         0.9590    1.7800   -1.2960 n         1 10P     -0.380000
     27 N27         1.5190    5.3620   -4.1710 n2        1 10P     -0.032000
     28 HN22       -1.1670   -4.0050    0.7470 hn        1 10P      0.159500
     29 HN2A       -1.7670   -2.7800    0.2480 hn        1 10P      0.159500
     30 H3         -0.0630   -3.0520    2.1620 h1        1 10P      0.124000
     31 H2         -1.0440   -1.9040    3.8110 hc        1 10P      0.109000
     32 H2A        -2.1490   -1.2910    2.8060 hc        1 10P      0.109000
     33 H5         -1.2740   -4.2450    4.6160 ha        1 10P      0.133000
     34 H9         -4.2250   -2.4580    2.2900 ha        1 10P      0.125000
     35 H6         -2.8470   -5.8800    5.3760 ha        1 10P      0.170750
     36 H8         -5.7830   -4.1000    3.0600 ha        1 10P      0.139000
     37 H7         -5.1210   -5.7970    4.5850 ha        1 10P      0.170750
     38 H10         2.0490    0.6070    0.5560 h1        1 10P      0.129000
     39 H14         2.6710   -1.3550   -1.5110 hc        1 10P      0.115000
     40 H14A        3.6810   -0.2940   -0.9140 hc        1 10P      0.115000
     41 H15         3.7500   -2.5870   -0.3800 hc        1 10P      0.104500
     42 H15A        4.1460   -1.4370    0.6600 hc        1 10P      0.104500
     43 H16         1.9170   -3.0820    0.7510 h1        1 10P      0.107000
     44 H16A        2.4860   -2.1860    1.9200 h1        1 10P      0.107000
     45 H12        -0.8100    2.3170   -2.0790 h1        1 10P      0.124000
     46 H12A        0.2210    1.7650   -3.1830 h1        1 10P      0.124000
     47 H17         1.4780    3.3140   -4.4770 h4        1 10P      0.250000
     48 H18         3.0380    6.2900   -5.1530 h1        1 10P      0.140000
     49 H18A        1.6080    6.3510   -5.9260 h1        1 10P      0.140000
     50 H18B        2.4530    4.9710   -5.9250 h1        1 10P      0.140000
     51 H19         1.3600    7.3040   -3.5590 ha        1 10P      0.170750
     52 H20         0.2100    6.8090   -1.5430 ha        1 10P      0.170750
     53 H21        -0.2930    4.5900   -0.9980 ha        1 10P      0.187000
     54 HN26        1.6080    2.3180   -0.8910 hn        1 10P      0.274000
@<TRIPOS>BOND
     1    1    2 1   
     2    1   28 1   
     3    1   29 1   
     4    2    3 1   
     5    2    5 1   
     6    2   30 1   
     7    3    4 1   
     8    3   12 1   
     9    5    6 1   
    10    5   31 1   
    11    5   32 1   
    12    6    7 1   
    13    6    8 1   
    14    7   33 1   
    15    8   10 1   
    16    8   34 1   
    17    9   11 1   
    18    9   35 1   
    19   10   36 1   
    20   11   37 1   
    21   12   13 1   
    22   12   18 1   
    23   13   14 1   
    24   13   16 1   
    25   13   38 1   
    26   14   15 1   
    27   14   26 1   
    28   16   17 1   
    29   16   39 1   
    30   16   40 1   
    31   17   18 1   
    32   17   41 1   
    33   17   42 1   
    34   18   43 1   
    35   18   44 1   
    36   19   20 1   
    37   19   26 1   
    38   19   45 1   
    39   19   46 1   
    40   20   21 1   
    41   20   25 1   
    42   21   27 1   
    43   21   47 1   
    44   22   27 1   
    45   22   48 1   
    46   22   49 1   
    47   22   50 1   
    48   23   24 1   
    49   23   51 1   
    50   24   52 1   
    51   25   53 1   
    52   26   54 1   
@<TRIPOS>SUBSTRUCTURE
     1 10P         1 TEMP              0 ****  ****    0 ROOT
