@<TRIPOS>MOLECULE
10P
   54    56     1     0     0
SMALL
bcc


@<TRIPOS>ATOM
      1 N22         2.5820   -2.7040    0.2770 n3        1 10P     -0.889800
      2 C3          2.5480   -1.2620    0.2940 c3        1 10P      0.127500
      3 C4          1.1290   -0.6910    0.5490 c         1 10P      0.614100
      4 O24         0.2890   -1.3400    1.2150 o         1 10P     -0.653100
      5 C2          3.4850   -0.6530    1.3620 c3        1 10P     -0.028100
      6 C1          4.7620   -0.1810    0.7630 ca        1 10P     -0.104300
      7 C5          5.1530    1.1560    0.9050 ca        1 10P     -0.126000
      8 C9          5.5980   -1.0730    0.0800 ca        1 10P     -0.126000
      9 C6          6.3640    1.5940    0.3690 ca        1 10P     -0.126500
     10 C8          6.8060   -0.6310   -0.4560 ca        1 10P     -0.126500
     11 C7          7.1910    0.7020   -0.3130 ca        1 10P     -0.120000
     12 N23         0.7610    0.5160   -0.0200 n         1 10P     -0.458800
     13 C10        -0.4390    1.2260    0.4010 c3        1 10P      0.041700
     14 C11        -1.7040    0.7960   -0.3740 c         1 10P      0.666100
     15 O25        -2.4640    1.6250   -0.9190 o         1 10P     -0.652100
     16 C14        -0.1680    2.7350    0.2080 c3        1 10P     -0.087400
     17 C15         1.1500    2.8440   -0.5490 c3        1 10P     -0.092400
     18 C16         1.7120    1.4190   -0.6530 c3        1 10P      0.074000
     19 C12        -3.0920   -1.0670   -1.1850 c3        1 10P      0.140300
     20 C13        -4.4580   -0.9480   -0.5490 ca        1 10P     -0.116300
     21 C17        -5.0730    0.3190   -0.5100 ca        1 10P     -0.014300
     22 C19        -6.9820   -0.5990    0.5480 ca        1 10P     -0.046300
     23 C20        -6.4080   -1.8710    0.5300 ca        1 10P     -0.136000
     24 C21        -5.1310   -2.0510   -0.0200 ca        1 10P     -0.012000
     25 N26        -2.0200   -0.5470   -0.3940 n         1 10P     -0.571900
     26 N27        -6.3140    0.4840    0.0320 na        1 10P      0.035900
     27 HN22        2.3570   -3.0860    1.1760 hn        1 10P      0.365300
     28 HN2A        1.9480   -3.0670   -0.4070 hn        1 10P      0.365300
     29 H3          2.8890   -0.9220   -0.7310 h1        1 10P      0.089700
     30 H2          3.7160   -1.4110    2.1600 hc        1 10P      0.063700
     31 H2A         2.9630    0.1990    1.8730 hc        1 10P      0.063700
     32 H5          4.5120    1.8630    1.4520 ha        1 10P      0.138000
     33 H9          5.2970   -2.1270   -0.0290 ha        1 10P      0.138000
     34 H6          6.6680    2.6440    0.4900 ha        1 10P      0.138500
     35 H8          7.4590   -1.3380   -0.9890 ha        1 10P      0.138500
     36 H7          8.1470    1.0480   -0.7330 ha        1 10P      0.140000
     37 H10        -0.6540    0.9960    1.4880 h1        1 10P      0.089700
     38 H14        -0.9990    3.2260   -0.3570 hc        1 10P      0.076700
     39 H14A       -0.0940    3.2240    1.2110 hc        1 10P      0.076700
     40 H15         0.9900    3.2710   -1.5700 hc        1 10P      0.066700
     41 H15A        1.8690    3.5090   -0.0100 hc        1 10P      0.066700
     42 H16         1.8350    1.1150   -1.7300 h1        1 10P      0.065700
     43 H16A        2.7200    1.3510   -0.1520 h1        1 10P      0.065700
     44 H12        -2.8900   -2.1580   -1.3940 h1        1 10P      0.084700
     45 H12A       -3.1310   -0.5140   -2.1720 h1        1 10P      0.084700
     46 H17        -4.5440    1.2170   -0.9160 h4        1 10P      0.249000
     47 H18        -7.8520    1.7890   -0.5940 h1        1 10P      0.101033
     48 H18A       -7.2430    2.0380    1.1210 h1        1 10P      0.101033
     49 H18B       -6.2220    2.5790   -0.3010 h1        1 10P      0.101033
     50 H19        -7.9880   -0.4140    0.9760 h4        1 10P      0.206000
     51 H20        -6.9690   -2.7210    0.9550 ha        1 10P      0.197000
     52 H21        -4.6690   -3.0540   -0.0330 ha        1 10P      0.188000
     53 HN26       -1.4680   -1.1930    0.1300 hn        1 10P      0.360500
     54 C18        -6.9420    1.7980    0.0660 c3        1 10P     -0.033400
@<TRIPOS>BOND
     1    1    2 1   
     2    1   27 1   
     3    1   28 1   
     4    2    3 1   
     5    2    5 1   
     6    2   29 1   
     7    3    4 2   
     8    3   12 1   
     9    5    6 1   
    10    5   30 1   
    11    5   31 1   
    12    6    7 ar  
    13    6    8 ar  
    14    7    9 ar  
    15    7   32 1   
    16    8   10 ar  
    17    8   33 1   
    18    9   11 ar  
    19    9   34 1   
    20   10   11 ar  
    21   10   35 1   
    22   11   36 1   
    23   12   13 1   
    24   12   18 1   
    25   13   14 1   
    26   13   16 1   
    27   13   37 1   
    28   14   15 2   
    29   14   25 1   
    30   16   17 1   
    31   16   38 1   
    32   16   39 1   
    33   17   18 1   
    34   17   40 1   
    35   17   41 1   
    36   18   42 1   
    37   18   43 1   
    38   19   20 1   
    39   19   25 1   
    40   19   44 1   
    41   19   45 1   
    42   20   21 ar  
    43   20   24 ar  
    44   21   26 2   
    45   21   46 1   
    46   22   23 ar  
    47   22   26 1   
    48   22   50 1   
    49   23   24 ar  
    50   23   51 1   
    51   24   52 1   
    52   25   53 1   
    53   26   54 1   
    54   47   54 1   
    55   48   54 1   
    56   49   54 1   
@<TRIPOS>SUBSTRUCTURE
     1 10P         1 TEMP              0 ****  ****    0 ROOT
