@<TRIPOS>MOLECULE
10Q
   52    56     1     0     0
SMALL
bcc


@<TRIPOS>ATOM
      1 C1         -0.1520    0.1170    0.0320 c3        1 10Q      0.276500
      2 C2          1.3850   -0.1230    0.1050 c3        1 10Q     -0.148700
      3 N1          1.2000    0.2720    2.5790 n         1 10Q     -0.429300
      4 C3         -0.1700    0.6850    2.4280 c2        1 10Q      0.652800
      5 C4          1.9900   -0.0960    1.4910 c         1 10Q      0.724500
      6 N2         -0.5750    1.0240    1.0910 nh        1 10Q     -0.765200
      7 C5         -0.8910   -1.1840   -0.0170 cc        1 10Q     -0.174400
      8 N3          0.9610    1.4940   -1.6610 nh        1 10Q     -0.734300
      9 C6         -0.3110    0.8460   -1.3630 c3        1 10Q      0.198800
     10 C7          2.0010    0.9930   -0.7680 c3        1 10Q      0.198800
     11 C8         -1.9070   -1.5880    0.8270 cd        1 10Q     -0.122000
     12 C9         -2.3950   -2.8970    0.4940 cd        1 10Q     -0.069000
     13 S1         -0.5650   -2.3700   -1.1700 ss        1 10Q      0.066200
     14 C10        -1.7150   -3.4160   -0.5960 cc        1 10Q     -0.159100
     15 C11         1.2930    1.7770   -2.9990 ca        1 10Q      0.677200
     16 N4         -4.5800   -8.1910    2.0880 n1        1 10Q     -0.361800
     17 N5         -1.0320    0.8310    3.4000 n2        1 10Q     -0.867100
     18 C12        -3.4570   -3.5640    1.2200 ca        1 10Q     -0.016000
     19 C13         2.5110    2.4650   -3.3180 ca        1 10Q     -0.177300
     20 C14        -4.5540   -7.0290    2.0400 cg        1 10Q      0.232800
     21 O1          3.1790   -0.4240    1.6560 o         1 10Q     -0.614500
     22 C15         2.7680    2.8100   -4.6560 ca        1 10Q     -0.027000
     23 C16        -3.4950   -4.9650    1.2830 ca        1 10Q     -0.083000
     24 C17         1.7700    0.3040    3.9020 c3        1 10Q      0.064300
     25 C18        -4.5230   -5.6090    1.9810 ca        1 10Q     -0.017000
     26 N6          0.3830    1.4780   -3.9900 nb        1 10Q     -0.729000
     27 C19        -4.4590   -2.8230    1.8640 ca        1 10Q     -0.096000
     28 C20         0.6620    1.8370   -5.2450 ca        1 10Q      0.456200
     29 C21        -5.4800   -3.4690    2.5580 ca        1 10Q     -0.133000
     30 C22         1.8420    2.4970   -5.6410 ca        1 10Q     -0.293300
     31 C23        -5.5200   -4.8600    2.6220 ca        1 10Q     -0.090000
     32 C24         3.4560    2.8570   -2.3380 cg        1 10Q      0.240800
     33 N7          4.2530    3.2220   -1.5720 n1        1 10Q     -0.363800
     34 H1          1.6240   -1.1300   -0.3370 hc        1 10Q      0.098700
     35 H2         -0.6000    0.0710   -2.1280 h1        1 10Q      0.075700
     36 H3         -1.1090    1.6350   -1.3390 h1        1 10Q      0.075700
     37 H4          2.3330    1.8490   -0.1150 h1        1 10Q      0.079200
     38 H5          2.8930    0.5960   -1.3250 h1        1 10Q      0.079200
     39 H6         -2.3080   -1.0160    1.6700 ha        1 10Q      0.171000
     40 H7         -1.9050   -4.3910   -1.0460 h4        1 10Q      0.180000
     41 H8         -0.6930    0.7080    4.3280 hn        1 10Q      0.408400
     42 H10         3.7030    3.3350   -4.9100 ha        1 10Q      0.152000
     43 H11        -2.7100   -5.5580    0.7880 ha        1 10Q      0.146000
     44 H12         1.2920   -0.4810    4.5480 h1        1 10Q      0.059033
     45 H13         2.8740    0.0980    3.8450 h1        1 10Q      0.059033
     46 H14         1.6160    1.3130    4.3690 h1        1 10Q      0.059033
     47 H15        -4.4410   -1.7230    1.8170 ha        1 10Q      0.143000
     48 H16        -0.1130    1.5710   -5.9900 h4        1 10Q      0.028100
     49 H17        -6.2610   -2.8770    3.0590 ha        1 10Q      0.143000
     50 H18         2.0130    2.7550   -6.6930 ha        1 10Q      0.154000
     51 H19        -6.3270   -5.3690    3.1700 ha        1 10Q      0.147000
     52 H20        -1.5550    1.2360    1.0310 hn        1 10Q      0.423800
@<TRIPOS>BOND
     1    1    2 1   
     2    1    6 1   
     3    1    7 1   
     4    1    9 1   
     5    2    5 1   
     6    2   10 1   
     7    2   34 1   
     8    3    4 1   
     9    3    5 1   
    10    3   24 1   
    11    4    6 1   
    12    4   17 2   
    13    5   21 2   
    14    6   52 1   
    15    7   11 2   
    16    7   13 1   
    17    8    9 1   
    18    8   10 1   
    19    8   15 1   
    20    9   35 1   
    21    9   36 1   
    22   10   37 1   
    23   10   38 1   
    24   11   12 1   
    25   11   39 1   
    26   12   14 2   
    27   12   18 1   
    28   13   14 1   
    29   14   40 1   
    30   15   19 ar  
    31   15   26 ar  
    32   16   20 3   
    33   17   41 1   
    34   18   23 ar  
    35   18   27 ar  
    36   19   22 ar  
    37   19   32 1   
    38   20   25 1   
    39   22   30 ar  
    40   22   42 1   
    41   23   25 ar  
    42   23   43 1   
    43   24   44 1   
    44   24   45 1   
    45   24   46 1   
    46   25   31 ar  
    47   26   28 ar  
    48   27   29 ar  
    49   27   47 1   
    50   28   30 ar  
    51   28   48 1   
    52   29   31 ar  
    53   29   49 1   
    54   30   50 1   
    55   31   51 1   
    56   32   33 3   
@<TRIPOS>SUBSTRUCTURE
     1 10Q         1 TEMP              0 ****  ****    0 ROOT
