@<TRIPOS>MOLECULE
10Q
   52    56     1     0     0
SMALL
bcc


@<TRIPOS>ATOM
      1 C1         -0.8270    0.3620    0.4610 c3        1 10Q      0.276500
      2 C2         -1.5810    0.8970   -0.7920 c3        1 10Q     -0.148700
      3 N1         -0.7760    3.1870   -0.1420 n         1 10Q     -0.429300
      4 C3         -0.2740    2.6750    1.1060 c2        1 10Q      0.652800
      5 C4         -1.4330    2.3770   -1.0670 c         1 10Q      0.724500
      6 N2         -0.7750    1.3860    1.4980 nh        1 10Q     -0.765200
      7 C5          0.5010   -0.2130    0.0780 cc        1 10Q     -0.174400
      8 N3         -3.1150   -0.5140    0.4600 nh        1 10Q     -0.734300
      9 C6         -1.7710   -0.8110    0.9450 c3        1 10Q      0.198800
     10 C7         -3.0640    0.5470   -0.5400 c3        1 10Q      0.198800
     11 C8          1.7320    0.1330    0.5990 cd        1 10Q     -0.122000
     12 C9          2.7990   -0.6220    0.0040 cd        1 10Q     -0.069000
     13 S1          0.6630   -1.4200   -1.0890 ss        1 10Q      0.066200
     14 C10         2.3120   -1.5060   -0.9450 cc        1 10Q     -0.159100
     15 C11        -4.0330   -1.5660    0.2900 ca        1 10Q      0.677200
     16 N4          8.3890   -1.0470   -1.9760 n1        1 10Q     -0.361800
     17 N5          0.5340    3.3050    1.9160 n2        1 10Q     -0.867100
     18 C12         4.1940   -0.4570    0.3630 ca        1 10Q     -0.016000
     19 C13        -5.3790   -1.2980   -0.1300 ca        1 10Q     -0.177300
     20 C14         7.5600   -0.8290   -1.1900 cg        1 10Q      0.232800
     21 O1         -1.8750    2.8590   -2.1260 o         1 10Q     -0.614500
     22 C15        -6.2940   -2.3620   -0.2040 ca        1 10Q     -0.027000
     23 C16         5.1990   -0.7180   -0.5780 ca        1 10Q     -0.083000
     24 C17        -0.6350    4.5980   -0.3960 c3        1 10Q      0.064300
     25 C18         6.5460   -0.5620   -0.2290 ca        1 10Q     -0.017000
     26 N6         -3.6530   -2.8460    0.6310 nb        1 10Q     -0.729000
     27 C19         4.5550   -0.0390    1.6540 ca        1 10Q     -0.096000
     28 C20        -4.5600   -3.8240    0.5590 ca        1 10Q      0.456200
     29 C21         5.8970    0.1140    1.9950 ca        1 10Q     -0.133000
     30 C22        -5.8920   -3.6450    0.1400 ca        1 10Q     -0.293300
     31 C23         6.8990   -0.1450    1.0620 ca        1 10Q     -0.090000
     32 C24        -5.8480    0.0040   -0.4330 cg        1 10Q      0.240800
     33 N7         -6.2910    1.0540   -0.6720 n1        1 10Q     -0.363800
     34 H1         -1.2090    0.3550   -1.7060 hc        1 10Q      0.098700
     35 H2         -1.3600   -1.7770    0.5360 h1        1 10Q      0.075700
     36 H3         -1.8110   -0.8880    2.0640 h1        1 10Q      0.075700
     37 H4         -3.6010    1.4430   -0.1170 h1        1 10Q      0.079200
     38 H5         -3.5580    0.2520   -1.5060 h1        1 10Q      0.079200
     39 H6          1.9150    0.8950    1.3620 ha        1 10Q      0.171000
     40 H7          2.9220   -2.1950   -1.5300 h4        1 10Q      0.180000
     41 H8          0.7700    4.2440    1.6810 hn        1 10Q      0.408400
     42 H10        -7.3280   -2.1660   -0.5300 ha        1 10Q      0.152000
     43 H11         4.9290   -1.0380   -1.5960 ha        1 10Q      0.146000
     44 H12        -1.0500    5.1910    0.4630 h1        1 10Q      0.059033
     45 H13         0.4490    4.8590   -0.5370 h1        1 10Q      0.059033
     46 H14        -1.1950    4.8740   -1.3300 h1        1 10Q      0.059033
     47 H15         3.7740    0.1640    2.4020 ha        1 10Q      0.143000
     48 H16        -4.1900   -4.8250    0.8530 h4        1 10Q      0.028100
     49 H17         6.1690    0.4420    3.0100 ha        1 10Q      0.143000
     50 H18        -6.5840   -4.4950    0.0940 ha        1 10Q      0.154000
     51 H19         7.9580   -0.0220    1.3330 ha        1 10Q      0.147000
     52 H20        -0.3400    1.0450    2.3360 hn        1 10Q      0.423800
@<TRIPOS>BOND
     1    1    2 1   
     2    1    6 1   
     3    1    7 1   
     4    1    9 1   
     5    2    5 1   
     6    2   10 1   
     7    2   34 1   
     8    3    4 1   
     9    3    5 1   
    10    3   24 1   
    11    4    6 1   
    12    4   17 2   
    13    5   21 2   
    14    6   52 1   
    15    7   11 2   
    16    7   13 1   
    17    8    9 1   
    18    8   10 1   
    19    8   15 1   
    20    9   35 1   
    21    9   36 1   
    22   10   37 1   
    23   10   38 1   
    24   11   12 1   
    25   11   39 1   
    26   12   14 2   
    27   12   18 1   
    28   13   14 1   
    29   14   40 1   
    30   15   19 ar  
    31   15   26 ar  
    32   16   20 3   
    33   17   41 1   
    34   18   23 ar  
    35   18   27 ar  
    36   19   22 ar  
    37   19   32 1   
    38   20   25 1   
    39   22   30 ar  
    40   22   42 1   
    41   23   25 ar  
    42   23   43 1   
    43   24   44 1   
    44   24   45 1   
    45   24   46 1   
    46   25   31 ar  
    47   26   28 ar  
    48   27   29 ar  
    49   27   47 1   
    50   28   30 ar  
    51   28   48 1   
    52   29   31 ar  
    53   29   49 1   
    54   30   50 1   
    55   31   51 1   
    56   32   33 3   
@<TRIPOS>SUBSTRUCTURE
     1 10Q         1 TEMP              0 ****  ****    0 ROOT
