@<TRIPOS>MOLECULE
10Q
   52    56     1     0     0
SMALL
bcc


@<TRIPOS>ATOM
      1 C1          0.1320    0.0060    0.4020 c3        1 10Q      0.274500
      2 C2          1.6830   -0.0190    0.3080 c3        1 10Q     -0.149700
      3 N1          1.7140    0.5560    2.7530 n         1 10Q     -0.429300
      4 C3          0.2880    0.7630    2.7390 c2        1 10Q      0.648800
      5 C4          2.4270    0.2270    1.6030 c         1 10Q      0.720500
      6 N2         -0.2990    0.9410    1.4380 nh        1 10Q     -0.763200
      7 C5         -0.4470   -1.3650    0.5540 cc        1 10Q     -0.181400
      8 N3          0.8440    1.3390   -1.5260 nh        1 10Q     -0.733300
      9 C6         -0.2840    0.5670   -1.0160 c3        1 10Q      0.201800
     10 C7          2.0340    1.0770   -0.7240 c3        1 10Q      0.201800
     11 C8         -1.7930   -1.6210    0.7450 cd        1 10Q     -0.121000
     12 C9         -2.0630   -3.0260    0.8440 cd        1 10Q     -0.067000
     13 S1          0.4330   -2.7950    0.5030 ss        1 10Q      0.085200
     14 C10        -0.8950   -3.7630    0.7170 cc        1 10Q     -0.164100
     15 C11         0.9880    1.5100   -2.9160 ca        1 10Q      0.677200
     16 N4         -5.6130   -7.6570   -0.2960 n1        1 10Q     -0.361800
     17 N5         -0.4760    0.8590    3.7930 n2        1 10Q     -0.856100
     18 C12        -3.3870   -3.5760    1.0500 ca        1 10Q     -0.017000
     19 C13         2.0550    2.3130   -3.4440 ca        1 10Q     -0.178300
     20 C14        -5.3390   -6.6220    0.1570 cg        1 10Q      0.232800
     21 O1          3.6650    0.1030    1.6400 o         1 10Q     -0.614500
     22 C15         2.1180    2.5350   -4.8300 ca        1 10Q     -0.027000
     23 C16        -3.7240   -4.8250    0.5080 ca        1 10Q     -0.082000
     24 C17         2.4140    0.7980    3.9890 c3        1 10Q      0.064300
     25 C18        -5.0040   -5.3550    0.7100 ca        1 10Q     -0.017000
     26 N6          0.0320    0.9850   -3.7580 nb        1 10Q     -0.727000
     27 C19        -4.3450   -2.8700    1.7940 ca        1 10Q     -0.097000
     28 C20         0.1230    1.2330   -5.0660 ca        1 10Q      0.457200
     29 C21        -5.6170   -3.4030    1.9930 ca        1 10Q     -0.133000
     30 C22         1.1490    1.9920   -5.6620 ca        1 10Q     -0.293300
     31 C23        -5.9550   -4.6430    1.4550 ca        1 10Q     -0.089000
     32 C24         3.0290    2.9360   -2.6250 cg        1 10Q      0.241800
     33 N7          3.8390    3.4870   -1.9960 n1        1 10Q     -0.364800
     34 H1          2.0240   -1.0190   -0.0810 hc        1 10Q      0.093700
     35 H2         -1.1750    1.2480   -0.9550 h1        1 10Q      0.077700
     36 H3         -0.5500   -0.3110   -1.6680 h1        1 10Q      0.077700
     37 H4          2.9110    0.7500   -1.3460 h1        1 10Q      0.079700
     38 H5          2.3030    2.0310   -0.1890 h1        1 10Q      0.079700
     39 H6         -2.5780   -0.8640    0.8050 ha        1 10Q      0.159000
     40 H7         -0.8350   -4.8510    0.7620 h4        1 10Q      0.181000
     41 H8         -0.0260    0.8500    4.6810 hn        1 10Q      0.407400
     42 H10         2.9370    3.1460   -5.2440 ha        1 10Q      0.151000
     43 H11        -2.9820   -5.3850   -0.0820 ha        1 10Q      0.146000
     44 H12         3.5230    0.7540    3.8120 h1        1 10Q      0.058367
     45 H13         2.1540    1.8130    4.3930 h1        1 10Q      0.058367
     46 H14         2.1400    0.0160    4.7470 h1        1 10Q      0.058367
     47 H15        -4.0840   -1.8940    2.2310 ha        1 10Q      0.143000
     48 H16        -0.6790    0.7850   -5.6840 h4        1 10Q      0.028100
     49 H17        -6.3590   -2.8420    2.5800 ha        1 10Q      0.143000
     50 H18         1.1710    2.1490   -6.7480 ha        1 10Q      0.153000
     51 H19        -6.9600   -5.0630    1.6120 ha        1 10Q      0.147000
     52 H20        -1.3010    1.0060    1.4810 hn        1 10Q      0.420800
@<TRIPOS>BOND
     1    1    2 1   
     2    1    6 1   
     3    1    7 1   
     4    1    9 1   
     5    2    5 1   
     6    2   10 1   
     7    2   34 1   
     8    3    4 1   
     9    3    5 1   
    10    3   24 1   
    11    4    6 1   
    12    4   17 2   
    13    5   21 2   
    14    6   52 1   
    15    7   11 2   
    16    7   13 1   
    17    8    9 1   
    18    8   10 1   
    19    8   15 1   
    20    9   35 1   
    21    9   36 1   
    22   10   37 1   
    23   10   38 1   
    24   11   12 1   
    25   11   39 1   
    26   12   14 2   
    27   12   18 1   
    28   13   14 1   
    29   14   40 1   
    30   15   19 ar  
    31   15   26 ar  
    32   16   20 3   
    33   17   41 1   
    34   18   23 ar  
    35   18   27 ar  
    36   19   22 ar  
    37   19   32 1   
    38   20   25 1   
    39   22   30 ar  
    40   22   42 1   
    41   23   25 ar  
    42   23   43 1   
    43   24   44 1   
    44   24   45 1   
    45   24   46 1   
    46   25   31 ar  
    47   26   28 ar  
    48   27   29 ar  
    49   27   47 1   
    50   28   30 ar  
    51   28   48 1   
    52   29   31 ar  
    53   29   49 1   
    54   30   50 1   
    55   31   51 1   
    56   32   33 3   
@<TRIPOS>SUBSTRUCTURE
     1 10Q         1 TEMP              0 ****  ****    0 ROOT
