@<TRIPOS>MOLECULE
10Q
   52    44     1     0     0
SMALL
bcc


@<TRIPOS>ATOM
      1 C1          0.0880   -0.5180    0.5690 c3        1 10Q      0.120000
      2 C2          1.0390   -0.4850    0.5330 c3        1 10Q     -0.136000
      3 N1          1.0200    0.0240    2.7580 n         1 10Q     -0.314000
      4 C3         -0.1080    0.1750    2.8100 c1        1 10Q      0.203000
      5 C4          1.6370   -0.4750    1.4700 c2        1 10Q      0.331000
      6 N2         -0.6830   -0.0110    1.9520 n2        1 10Q     -0.260000
      7 C5         -0.4670    0.2850   -0.6240 c2        1 10Q     -0.423000
      8 N3          0.7000   -2.5180    0.0100 n3        1 10Q     -0.197000
      9 C6         -0.2560   -2.0490    0.3570 c3        1 10Q     -0.114000
     10 C7          1.4480   -1.5430   -0.2610 c3        1 10Q     -0.069000
     11 C8         -0.3820    1.7040   -0.9740 c1        1 10Q     -0.109000
     12 C9         -1.5380    2.0300   -2.0310 c1        1 10Q     -0.079000
     13 S1         -1.6540   -0.3370   -1.4260 ss        1 10Q      0.645000
     14 C10        -2.2860    0.7990   -2.2870 c1        1 10Q     -0.444000
     15 C11         1.2950   -3.3040    1.1090 c1        1 10Q      0.085000
     16 N4         -0.6790    6.0200   -6.6070 n1        1 10Q     -0.033000
     17 N5         -0.6650    0.5650    3.8960 n1        1 10Q     -0.328000
     18 C12        -1.8530    3.4230   -2.6310 c1        1 10Q     -0.012000
     19 C13         1.1710   -4.5420    0.4850 c1        1 10Q     -0.031000
     20 C14        -1.1340    5.6430   -5.6320 c1        1 10Q     -0.088500
     21 O1          2.7890   -0.8550    1.4580 o         1 10Q     -0.351000
     22 C15         1.6280   -5.6730    1.1090 c1        1 10Q     -0.058000
     23 C16        -1.3330    3.8990   -3.8320 c2        1 10Q     -0.084000
     24 C17         1.8720    0.5320    3.8180 c3        1 10Q     -0.086000
     25 C18        -1.7430    5.1390   -4.3260 c1        1 10Q     -0.014000
     26 N6          1.8730   -3.2160    2.3470 n1        1 10Q     -0.166000
     27 C19        -2.7760    4.1810   -1.9280 c1        1 10Q     -0.099000
     28 C20         2.3310   -4.3470    2.9720 c1        1 10Q     -0.111500
     29 C21        -3.1840    5.4210   -2.4250 c1        1 10Q     -0.111500
     30 C22         2.2080   -5.5850    2.3500 c1        1 10Q     -0.111500
     31 C23        -2.6660    5.8950   -3.6220 c1        1 10Q     -0.111500
     32 C24         0.6800   -5.3330   -0.7250 c1        1 10Q     -0.088500
     33 N7          0.3130   -5.9230   -1.6280 n1        1 10Q     -0.033000
     34 H1          1.2700    0.3380    0.0500 hc        1 10Q      0.154000
     35 H2         -0.9560   -2.1520   -0.3270 h1        1 10Q      0.110000
     36 H3         -0.5450   -2.4520    1.2040 h1        1 10Q      0.110000
     37 H4          2.3670   -1.7680   -0.0620 h1        1 10Q      0.120000
     38 H5          1.3560   -1.3010   -1.2230 h1        1 10Q      0.120000
     39 H6          0.2820    2.3530   -0.6170 DU        1 10Q      0.169333
     40 H7         -3.0480    0.7060   -2.8920 DU        1 10Q      0.169333
     41 H8         -0.1570    0.7240    4.6390 DU        1 10Q      0.169333
     42 H10         1.5410   -6.5430    0.6710 ha        1 10Q      0.155000
     43 H11        -0.7550    3.3190   -4.3800 ha        1 10Q      0.146000
     44 H12         2.8070    0.3690    3.5890 h1        1 10Q      0.094667
     45 H13         1.6550    0.0690    4.6680 h1        1 10Q      0.094667
     46 H14         1.7230    1.5030    3.9240 h1        1 10Q      0.094667
     47 H15        -3.1430    3.8460   -1.0820 ha        1 10Q      0.142000
     48 H16         2.7530   -4.2820    3.8740 ha        1 10Q      0.152750
     49 H17        -3.8410    5.9600   -1.9250 ha        1 10Q      0.152750
     50 H18         2.5380   -6.3980    2.7990 ha        1 10Q      0.152750
     51 H19        -2.9530    6.7630   -3.9700 ha        1 10Q      0.152750
     52 H20        -1.5780   -0.0720    2.0150 hn        1 10Q      0.220000
@<TRIPOS>BOND
     1    1    2 1   
     2    1    6 1   
     3    1    7 1   
     4    1    9 1   
     5    2    5 1   
     6    2   10 1   
     7    2   34 1   
     8    3    4 1   
     9    3    5 1   
    10    3   24 1   
    11    4   17 1   
    12    5   21 1   
    13    6   52 1   
    14    7   11 1   
    15    7   13 1   
    16    8    9 1   
    17    8   10 1   
    18    8   15 1   
    19    9   35 1   
    20    9   36 1   
    21   10   37 1   
    22   10   38 1   
    23   11   12 1   
    24   12   14 1   
    25   13   14 1   
    26   15   26 1   
    27   16   20 1   
    28   18   23 1   
    29   18   27 1   
    30   19   22 1   
    31   22   42 1   
    32   23   25 1   
    33   23   43 1   
    34   24   44 1   
    35   24   45 1   
    36   24   46 1   
    37   27   47 1   
    38   28   30 1   
    39   28   48 1   
    40   29   31 1   
    41   29   49 1   
    42   30   50 1   
    43   31   51 1   
    44   32   33 1   
@<TRIPOS>SUBSTRUCTURE
     1 10Q         1 TEMP              0 ****  ****    0 ROOT
