@<TRIPOS>MOLECULE
10Q
   52    56     1     0     0
SMALL
bcc


@<TRIPOS>ATOM
      1 C1          0.1260   -0.0030    0.4390 c3        1 10Q      0.274500
      2 C2          1.6760   -0.0040    0.3410 c3        1 10Q     -0.149700
      3 N1          1.7040    0.5360    2.7950 n         1 10Q     -0.429300
      4 C3          0.2750    0.7220    2.7850 c2        1 10Q      0.648800
      5 C4          2.4200    0.2350    1.6380 c         1 10Q      0.720500
      6 N2         -0.3170    0.9100    1.4890 nu        1 10Q     -0.763200
      7 C5         -0.4320   -1.3850    0.5720 cc        1 10Q     -0.181400
      8 N3          0.8130    1.3670   -1.4720 nh        1 10Q     -0.733300
      9 C6         -0.3020    0.5710   -0.9700 c3        1 10Q      0.201800
     10 C7          2.0090    1.1120   -0.6760 c3        1 10Q      0.201800
     11 C8         -1.7740   -1.6640    0.7610 cd        1 10Q     -0.121000
     12 C9         -2.0220   -3.0750    0.8410 cd        1 10Q     -0.067000
     13 S1          0.4690   -2.8010    0.5010 ss        1 10Q      0.085200
     14 C10        -0.8440   -3.7920    0.7030 cc        1 10Q     -0.164100
     15 C11         0.9510    1.5600   -2.8600 ca        1 10Q      0.677200
     16 N4         -5.5040   -7.7430   -0.3590 n1        1 10Q     -0.361800
     17 N5         -0.4880    0.7920    3.8430 n2        1 10Q     -0.856100
     18 C12        -3.3380   -3.6470    1.0400 ca        1 10Q     -0.017000
     19 C13         2.0050    2.3860   -3.3780 ca        1 10Q     -0.178300
     20 C14        -5.2450   -6.7090    0.1070 cg        1 10Q      0.232800
     21 O1          3.6590    0.1290    1.6710 o         1 10Q     -0.614500
     22 C15         2.0620    2.6290   -4.7610 ca        1 10Q     -0.027000
     23 C16        -3.6570   -4.8930    0.4820 ca        1 10Q     -0.082000
     24 C17         2.4040    0.7720    4.0320 c3        1 10Q      0.064300
     25 C18        -4.9290   -5.4460    0.6780 ca        1 10Q     -0.017000
     26 N6          0.0010    1.0330   -3.7060 nb        1 10Q     -0.727000
     27 C19        -4.3060   -2.9660    1.7960 ca        1 10Q     -0.097000
     28 C20         0.0860    1.3010   -5.0120 ca        1 10Q      0.457200
     29 C21        -5.5690   -3.5210    1.9880 ca        1 10Q     -0.133000
     30 C22         1.0990    2.0830   -5.5990 ca        1 10Q     -0.293300
     31 C23        -5.8890   -4.7580    1.4330 ca        1 10Q     -0.089000
     32 C24         2.9710    3.0110   -2.5520 cg        1 10Q      0.241800
     33 N7          3.7740    3.5660   -1.9180 n1        1 10Q     -0.364800
     34 H1          2.0310   -0.9930   -0.0630 hc        1 10Q      0.093700
     35 H2         -0.5570   -0.3010   -1.6340 h1        1 10Q      0.077700
     36 H3         -1.2020    1.2380   -0.8970 h1        1 10Q      0.077700
     37 H4          2.2650    2.0620   -0.1280 h1        1 10Q      0.079700
     38 H5          2.8890    0.8070   -1.3050 h1        1 10Q      0.079700
     39 H6         -2.5710   -0.9190    0.8330 ha        1 10Q      0.159000
     40 H7         -0.7680   -4.8790    0.7320 h4        1 10Q      0.181000
     41 H8         -0.0360    0.7770    4.7290 hn        1 10Q      0.407400
     42 H10         2.8700    3.2570   -5.1680 ha        1 10Q      0.151000
     43 H11        -2.9070   -5.4340   -0.1160 ha        1 10Q      0.146000
     44 H12         2.1430   -0.0260    4.7790 h1        1 10Q      0.058367
     45 H13         3.5130    0.7460    3.8520 h1        1 10Q      0.058367
     46 H14         2.1290    1.7770    4.4510 h1        1 10Q      0.058367
     47 H15        -4.0590   -1.9920    2.2460 ha        1 10Q      0.143000
     48 H16        -0.7110    0.8490   -5.6340 h4        1 10Q      0.028100
     49 H17        -6.3190   -2.9800    2.5840 ha        1 10Q      0.143000
     50 H18         1.1170    2.2560   -6.6820 ha        1 10Q      0.153000
     51 H19        -6.8880   -5.1950    1.5860 ha        1 10Q      0.147000
     52 H20        -1.3200    0.9590    1.5350 hn        1 10Q      0.420800
@<TRIPOS>BOND
     1    1    2 1   
     2    1    6 1   
     3    1    7 1   
     4    1    9 1   
     5    2    5 1   
     6    2   10 1   
     7    2   34 1   
     8    3    4 1   
     9    3    5 1   
    10    3   24 1   
    11    4    6 1   
    12    4   17 2   
    13    5   21 2   
    14    6   52 1   
    15    7   11 2   
    16    7   13 1   
    17    8    9 1   
    18    8   10 1   
    19    8   15 1   
    20    9   35 1   
    21    9   36 1   
    22   10   37 1   
    23   10   38 1   
    24   11   12 1   
    25   11   39 1   
    26   12   14 2   
    27   12   18 1   
    28   13   14 1   
    29   14   40 1   
    30   15   19 ar  
    31   15   26 ar  
    32   16   20 3   
    33   17   41 1   
    34   18   23 ar  
    35   18   27 ar  
    36   19   22 ar  
    37   19   32 1   
    38   20   25 1   
    39   22   30 ar  
    40   22   42 1   
    41   23   25 ar  
    42   23   43 1   
    43   24   44 1   
    44   24   45 1   
    45   24   46 1   
    46   25   31 ar  
    47   26   28 ar  
    48   27   29 ar  
    49   27   47 1   
    50   28   30 ar  
    51   28   48 1   
    52   29   31 ar  
    53   29   49 1   
    54   30   50 1   
    55   31   51 1   
    56   32   33 3   
@<TRIPOS>SUBSTRUCTURE
     1 10Q         1 TEMP              0 ****  ****    0 ROOT
