@<TRIPOS>MOLECULE
10T
   46    47     1     0     0
SMALL
bcc


@<TRIPOS>ATOM
      1 C4          3.4650    0.7180   -0.6150 c3        1 10T     -0.118700
      2 C5          2.2030   -0.0830   -0.4220 ca        1 10T      0.384600
      3 C7          1.2270   -2.1870   -0.2780 ca        1 10T      0.422600
      4 C8          1.3470   -3.6780   -0.2740 c3        1 10T     -0.153400
      5 C17         0.9540    0.5600   -0.2910 ca        1 10T     -0.247600
      6 C20        -1.5200    0.3820    0.0510 cp        1 10T     -0.029000
      7 C21        -1.7950    1.1630    1.1810 ca        1 10T     -0.101500
      8 C22        -3.0430    1.7610    1.3410 ca        1 10T     -0.141000
      9 C26        -2.5360    0.1680   -0.8920 ca        1 10T     -0.101500
     10 O14        -1.5030   -3.1940    0.9600 o         1 10T     -0.819300
     11 O15        -1.9310   -2.7200   -1.1850 o         1 10T     -0.819300
     12 C12        -0.0770   -1.6310   -0.1610 ca        1 10T     -0.194900
     13 C16        -0.2020   -0.2390   -0.1320 cp        1 10T     -0.006000
     14 C23        -4.0420    1.5820    0.3790 ca        1 10T     -0.092300
     15 C25        -3.7800    0.7720   -0.7320 ca        1 10T     -0.141000
     16 C18         0.8230    2.0560   -0.3710 c3        1 10T      0.196100
     17 N19         0.2030    2.5640   -1.5740 n3        1 10T     -0.902800
     18 C2          3.9760    1.3080    0.6960 c3        1 10T     -0.065700
     19 C1          4.7640    0.2820    1.4830 c3        1 10T     -0.088600
     20 C3          4.8280    2.5300    0.4200 c3        1 10T     -0.088600
     21 N6          2.3380   -1.4330   -0.3980 nb        1 10T     -0.697000
     22 H4          4.2730    0.0800   -1.0650 hc        1 10T      0.046700
     23 H4A         3.2570    1.5400   -1.3500 hc        1 10T      0.046700
     24 H8          0.7480   -4.0830    0.5830 hc        1 10T      0.056033
     25 H8A         0.9070   -4.0750   -1.2230 hc        1 10T      0.056033
     26 H8B         2.4040   -4.0240   -0.1880 hc        1 10T      0.056033
     27 H21        -1.0260    1.2870    1.9590 ha        1 10T      0.156000
     28 H22        -3.2450    2.3690    2.2340 ha        1 10T      0.118000
     29 H24        -5.4300    3.1330   -0.1260 hc        1 10T      0.031700
     30 H24A       -6.1840    1.5280    0.2430 hc        1 10T      0.031700
     31 H24B       -5.5350    2.5550    1.5890 hc        1 10T      0.031700
     32 H26        -2.3560   -0.5410   -1.7220 ha        1 10T      0.156000
     33 H25        -4.5710    0.5920   -1.4740 ha        1 10T      0.118000
     34 H18         0.2120    2.4140    0.5080 h1        1 10T      0.050700
     35 H18A        1.8340    2.5470   -0.2810 h1        1 10T      0.050700
     36 HN19        0.6840    2.2160   -2.3820 hn        1 10T      0.343800
     37 HN1A       -0.7500    2.2510   -1.6240 hn        1 10T      0.343800
     38 H2          3.0900    1.6250    1.3160 hc        1 10T      0.054700
     39 H1          5.6880   -0.0130    0.9300 hc        1 10T      0.030200
     40 H1A         5.0620    0.7010    2.4740 hc        1 10T      0.030200
     41 H1B         4.1450   -0.6330    1.6490 hc        1 10T      0.030200
     42 H3          4.2200    3.3230   -0.0800 hc        1 10T      0.030200
     43 H3A         5.2340    2.9430    1.3740 hc        1 10T      0.030200
     44 H3B         5.6850    2.2690   -0.2460 hc        1 10T      0.030200
     45 C13        -1.2700   -2.5820   -0.1160 c         1 10T      0.918200
     46 C24        -5.3650    2.2310    0.5330 c3        1 10T     -0.042800
@<TRIPOS>BOND
     1    1    2 1   
     2    1   18 1   
     3    1   22 1   
     4    1   23 1   
     5    2    5 ar  
     6    2   21 ar  
     7    3    4 1   
     8    3   12 ar  
     9    3   21 ar  
    10    4   24 1   
    11    4   25 1   
    12    4   26 1   
    13    5   13 ar  
    14    5   16 1   
    15    6    7 ar  
    16    6    9 ar  
    17    6   13 1   
    18    7    8 ar  
    19    7   27 1   
    20    8   14 ar  
    21    8   28 1   
    22    9   15 ar  
    23    9   32 1   
    24   10   45 1   
    25   11   45 1   
    26   12   13 ar  
    27   12   45 1   
    28   14   15 ar  
    29   14   46 1   
    30   15   33 1   
    31   16   17 1   
    32   16   34 1   
    33   16   35 1   
    34   17   36 1   
    35   17   37 1   
    36   18   19 1   
    37   18   20 1   
    38   18   38 1   
    39   19   39 1   
    40   19   40 1   
    41   19   41 1   
    42   20   42 1   
    43   20   43 1   
    44   20   44 1   
    45   29   46 1   
    46   30   46 1   
    47   31   46 1   
@<TRIPOS>SUBSTRUCTURE
     1 10T         1 TEMP              0 ****  ****    0 ROOT
