@<TRIPOS>MOLECULE
10T
   47    48     1     0     0
SMALL
bcc


@<TRIPOS>ATOM
      1 C4         -0.0020    0.1680   -0.1280 c3        1 10T     -0.133700
      2 C5          1.4670   -0.1290   -0.2740 ca        1 10T      0.445600
      3 C7          3.2220   -0.7710   -1.6690 ca        1 10T      0.484600
      4 C8          3.7250   -1.1630   -3.0200 c3        1 10T     -0.171400
      5 C17         2.3270   -0.0540    0.8400 ca        1 10T     -0.332600
      6 C20         4.5890   -0.2280    1.7530 cg        1 10T     -0.140000
      7 C21         3.6220    0.7940    5.9450 c2        1 10T     -0.197000
      8 C22         4.9070    0.8120    5.6940 cu        1 10T     -0.166400
      9 C26         5.3770   -0.1400    2.6530 c1        1 10T     -0.098100
     10 O14         5.9220   -2.2900   -0.2420 o         1 10T     -0.787300
     11 O15         6.3500   -0.4880   -1.5220 o         1 10T     -0.787300
     12 C12         4.1630   -0.7440   -0.5960 ca        1 10T     -0.185900
     13 C16         3.7080   -0.3400    0.6570 ca        1 10T      0.065000
     14 C23         6.0050    0.9920    4.7280 cx        1 10T     -0.079500
     15 C25         6.3330   -0.0690    3.7160 c3        1 10T      0.016700
     16 C18         1.8630    0.2950    2.2030 c3        1 10T      0.196100
     17 N19         2.0340   -0.8920    3.1160 n4        1 10T     -0.853600
     18 C2         -0.2750    1.6650   -0.0120 c3        1 10T     -0.065700
     19 C1         -1.5900    1.8980    0.7020 c3        1 10T     -0.092600
     20 C3         -0.2900    2.3190   -1.3770 c3        1 10T     -0.092600
     21 N6          1.9170   -0.4660   -1.5080 nb        1 10T     -0.687000
     22 H4         -0.5760   -0.2390   -1.0050 hc        1 10T      0.051200
     23 H4A        -0.3860   -0.3650    0.7820 hc        1 10T      0.051200
     24 H8          3.9120   -2.2670   -3.0260 hc        1 10T      0.076700
     25 H8A         3.0070   -0.9100   -3.8360 hc        1 10T      0.076700
     26 H8B         4.7050   -0.6460   -3.2020 hc        1 10T      0.076700
     27 H21         3.2190    0.6330    6.9540 ha        1 10T      0.104500
     28 H22         2.8730    0.9800    5.1630 ha        1 10T      0.104500
     29 H24         6.1840    2.0180    4.3400 hc        1 10T      0.102700
     30 H24A        6.6860   -0.2670    6.4910 hc        1 10T      0.088200
     31 H24B        6.6820    1.5360    6.8250 hc        1 10T      0.088200
     32 H26         7.3480    0.1540    3.2720 hc        1 10T      0.084700
     33 H25         6.4090   -1.0770    4.2140 hc        1 10T      0.084700
     34 H18         2.4930    1.1290    2.6350 hx        1 10T      0.100700
     35 H18A        0.7780    0.5960    2.2320 hx        1 10T      0.100700
     36 HN19        1.4760   -1.6760    2.7710 hn        1 10T      0.453467
     37 HN1A        1.7580   -0.6580    4.0690 hn        1 10T      0.453467
     38 H2          0.5500    2.1380    0.5950 hc        1 10T      0.039700
     39 H1         -1.5510    1.4940    1.7430 hc        1 10T      0.039200
     40 H1A        -1.8110    2.9920    0.7550 hc        1 10T      0.039200
     41 H1B        -2.4260    1.3950    0.1590 hc        1 10T      0.039200
     42 H3         -0.4080    3.4240   -1.2730 hc        1 10T      0.039200
     43 H3A        -1.1380    1.9270   -1.9900 hc        1 10T      0.039200
     44 H3B         0.6640    2.1080   -1.9190 hc        1 10T      0.039200
     45 C13         5.6140   -1.2100   -0.8070 c         1 10T      0.920200
     46 C24         6.2820    0.7200    6.1940 cx        1 10T     -0.083200
     47 H193        3.0280   -1.1760    3.1080 hn        1 10T      0.453467
@<TRIPOS>BOND
     1    1    2 1   
     2    1   18 1   
     3    1   22 1   
     4    1   23 1   
     5    2    5 ar  
     6    2   21 ar  
     7    3    4 1   
     8    3   12 ar  
     9    3   21 ar  
    10    4   24 1   
    11    4   25 1   
    12    4   26 1   
    13    5   13 ar  
    14    5   16 1   
    15    6    9 3   
    16    6   13 1   
    17    7    8 2   
    18    7   27 1   
    19    7   28 1   
    20    8   14 1   
    21    8   46 1   
    22    9   15 1   
    23   10   45 1   
    24   11   45 1   
    25   12   13 ar  
    26   12   45 1   
    27   14   15 1   
    28   14   29 1   
    29   14   46 1   
    30   15   32 1   
    31   15   33 1   
    32   16   17 1   
    33   16   34 1   
    34   16   35 1   
    35   17   36 1   
    36   17   37 1   
    37   17   47 1   
    38   18   19 1   
    39   18   20 1   
    40   18   38 1   
    41   19   39 1   
    42   19   40 1   
    43   19   41 1   
    44   20   42 1   
    45   20   43 1   
    46   20   44 1   
    47   30   46 1   
    48   31   46 1   
@<TRIPOS>SUBSTRUCTURE
     1 10T         1 TEMP              0 ****  ****    0 ROOT
