@<TRIPOS>MOLECULE
10T
   47    47     1     0     0
SMALL
bcc


@<TRIPOS>ATOM
      1 C4         -1.2760   -0.0950    0.4540 cx        1 10T     -0.212000
      2 C5          2.2430    0.2870   -0.2120 c2        1 10T      0.177000
      3 C7          4.1670   -0.4050   -1.5400 c3        1 10T     -0.110000
      4 C8          4.7880    0.5610   -2.4030 c1        1 10T      0.011000
      5 C17         3.1680    0.8190    0.8030 c2        1 10T     -0.110000
      6 C20         5.0780   -0.0500    2.2250 c3        1 10T     -0.131000
      7 C21         5.7020    1.2130    2.7060 c2        1 10T     -0.140000
      8 C22         5.7500    1.5240    4.0100 c2        1 10T     -0.154000
      9 C26         4.2090   -0.7260    3.1760 c1        1 10T     -0.073000
     10 O14         5.8580   -2.4780   -1.1730 o         1 10T     -0.511500
     11 O15         6.9650   -1.5330    0.5410 o         1 10T     -0.511500
     12 C12         4.9060   -0.5410   -0.2200 c2        1 10T     -0.089000
     13 C16         4.4390    0.0850    0.8790 c2        1 10T     -0.060000
     14 C23         5.1720    0.6820    5.0470 c2        1 10T     -0.098000
     15 C25         4.3730   -0.5020    4.6030 c3        1 10T     -0.188000
     16 C18         2.8010    1.8510    1.5770 c2        1 10T     -0.120000
     17 N19         2.0600   -2.0330    1.0880 n3        1 10T     -0.452000
     18 C2         -0.9990    1.2250    1.1300 cx        1 10T     -0.187000
     19 C1         -2.2980    0.5030    1.3730 cx        1 10T     -0.212000
     20 C3         -0.9910    2.4820    0.3340 c3        1 10T     -0.190000
     21 N6          2.6960   -0.2800   -1.3030 n3        1 10T     -0.167000
     22 H4          1.1450    0.3720   -0.0280 h4        1 10T      0.192000
     23 H4A        -0.7190   -0.9910    0.7820 hc        1 10T      0.114250
     24 H8          4.3680   -1.4310   -2.0730 h1        1 10T      0.270000
     25 H8A         2.0730   -0.7170   -1.9520 hn        1 10T      0.251000
     26 H8B         4.1860    1.3190   -2.9230 ha        1 10T      0.057000
     27 H21         5.9600   -0.8070    2.0970 hc        1 10T      0.259000
     28 H22         6.1640    1.8510    1.9370 ha        1 10T      0.143000
     29 H24         6.2510    2.4440    4.3530 ha        1 10T      0.130000
     30 H24A        5.9320    1.8080    6.6990 ha        1 10T      0.115000
     31 H24B        4.9170    0.3180    7.1360 ha        1 10T      0.115000
     32 H26         4.8420   -1.4510    5.0070 hc        1 10T      0.142000
     33 H25         3.3420   -0.4500    5.0600 hc        1 10T      0.142000
     34 H18         2.7010   -1.6510    1.7660 hn        1 10T      0.152667
     35 H18A        3.4770    2.2570    2.3470 ha        1 10T      0.141000
     36 HN19        1.8220    2.3430    1.4830 ha        1 10T      0.141000
     37 HN1A        1.2790   -2.4250    1.5730 hn        1 10T      0.152667
     38 H2         -0.2580    1.2350    1.9560 hc        1 10T      0.117000
     39 H1         -1.4820   -0.1070   -0.6310 hc        1 10T      0.114250
     40 H1A        -3.2270    0.9190    0.9420 hc        1 10T      0.114250
     41 H1B        -2.4730    0.0370    2.3590 hc        1 10T      0.114250
     42 H3         -1.7230    2.4350   -0.5090 hc        1 10T      0.077000
     43 H3A         0.0260    2.6660   -0.0920 hc        1 10T      0.077000
     44 H3B        -1.2610    3.3510    0.9840 hc        1 10T      0.077000
     45 C13         6.0270   -1.5940   -0.2890 c2        1 10T      0.381000
     46 C24         5.3460    0.9490    6.3490 c2        1 10T     -0.213000
     47 H193        2.5260   -2.7690    0.5960 hn        1 10T      0.152667
@<TRIPOS>BOND
     1    1   18 1   
     2    1   19 1   
     3    1   23 1   
     4    1   39 1   
     5    2    5 1   
     6    2   21 1   
     7    2   22 1   
     8    3    4 1   
     9    3   12 1   
    10    3   21 1   
    11    3   24 1   
    12    4   26 1   
    13    5   13 1   
    14    5   16 1   
    15    6    7 1   
    16    6    9 1   
    17    6   13 1   
    18    6   27 1   
    19    7    8 1   
    20    7   28 1   
    21    8   14 1   
    22    8   29 1   
    23    9   15 1   
    24   10   45 1   
    25   11   45 1   
    26   12   13 1   
    27   12   45 1   
    28   14   15 1   
    29   14   46 1   
    30   15   32 1   
    31   15   33 1   
    32   16   35 1   
    33   16   36 1   
    34   17   34 1   
    35   17   37 1   
    36   17   47 1   
    37   18   19 1   
    38   18   20 1   
    39   18   38 1   
    40   19   40 1   
    41   19   41 1   
    42   20   42 1   
    43   20   43 1   
    44   20   44 1   
    45   21   25 1   
    46   30   46 1   
    47   31   46 1   
@<TRIPOS>SUBSTRUCTURE
     1 10T         1 TEMP              0 ****  ****    0 ROOT
