@<TRIPOS>MOLECULE
10T
   47    46     1     0     0
SMALL
bcc


@<TRIPOS>ATOM
      1 C4         -1.8030   -0.0170    0.4800 cx        1 10T     -0.136400
      2 C5          2.0750    0.0620   -0.4180 ca        1 10T      0.470200
      3 C7          3.8900   -0.2660   -1.8160 ca        1 10T      0.551600
      4 C8          4.4820   -0.2130   -3.1800 c3        1 10T     -0.183400
      5 C17         2.7890   -0.3880    0.7380 ca        1 10T     -0.424200
      6 C20         5.0240   -1.1770    1.6480 ce        1 10T     -0.141300
      7 C21         4.5590    2.9100    5.4500 c1        1 10T     -0.160500
      8 C22         5.2020    2.0030    5.0090 c1        1 10T     -0.135100
      9 C26         5.0280   -0.6830    2.8570 c1        1 10T     -0.046800
     10 O14         6.4830   -2.2850   -0.6250 o         1 10T     -0.779800
     11 O15         6.8850   -0.2910   -1.5850 o         1 10T     -0.779800
     12 C12         4.6960   -0.7120   -0.7380 ca        1 10T     -0.261900
     13 C16         4.1610   -0.7550    0.5530 ca        1 10T      0.108200
     14 C23         5.9920    0.9270    4.4640 c3        1 10T      0.051600
     15 C25         5.1110   -0.2230    4.0720 c2        1 10T     -0.181300
     16 C18         2.1710   -0.5130    2.0030 ce        1 10T      0.464800
     17 N19         0.9400   -0.1350    2.3220 nv        1 10T     -0.433100
     18 C2         -1.7340    1.4330    0.8930 cx        1 10T     -0.152700
     19 C1         -2.9390    0.9070    0.1590 cx        1 10T     -0.136400
     20 C3         -0.8020    2.3630    0.1990 c3        1 10T     -0.082100
     21 N6          2.5860    0.1260   -1.6380 nb        1 10T     -0.697000
     22 H4          1.0170    0.3840   -0.3430 h4        1 10T      0.010100
     23 H4A        -1.9500   -0.7920    1.2520 hc        1 10T      0.075950
     24 H8          4.8370   -1.2400   -3.4580 hc        1 10T      0.089367
     25 H8A         3.7700    0.1600   -3.9530 hc        1 10T      0.089367
     26 H8B         5.3930    0.4470   -3.1420 hc        1 10T      0.089367
     27 H21         5.7790   -1.9530    1.3520 ha        1 10T      0.239000
     28 H22         4.0030    3.7220    5.8430 ha        1 10T      0.164500
     29 H24         7.7010    1.3000    5.7540 hc        1 10T      0.047033
     30 H24A        6.5530    0.0450    6.3820 hc        1 10T      0.047033
     31 H24B        7.6610   -0.3520    5.0010 hc        1 10T      0.047033
     32 H26         6.5310    1.3170    3.5470 hc        1 10T      0.090700
     33 H25         4.5320   -0.6760    4.8960 ha        1 10T      0.135000
     34 H18         1.9090   -1.1470    4.9220 ha        1 10T      0.001000
     35 H18A        2.3280   -1.2980    5.4330 ha        1 10T      0.001000
     36 HN19        0.5950   -0.2820    3.2470 hn        1 10T      0.309700
     37 HN1A        2.7640   -0.9790    2.8320 h4        1 10T      0.063800
     38 H2         -1.8590    1.6710    1.9700 hc        1 10T      0.074700
     39 H1         -1.1610   -0.3730   -0.3470 hc        1 10T      0.075950
     40 H1A        -3.0980    1.2140   -0.8910 hc        1 10T      0.075950
     41 H1B        -3.8920    0.7980    0.7060 hc        1 10T      0.075950
     42 H3         -0.6370    2.0550   -0.8630 hc        1 10T      0.045033
     43 H3A         0.1880    2.3920    0.7170 hc        1 10T      0.045033
     44 H3B        -1.2240    3.3980    0.2000 hc        1 10T      0.045033
     45 C13         6.1570   -1.1330   -1.0090 c         1 10T      0.922200
     46 C24         7.0380    0.4510    5.4630 c3        1 10T     -0.086100
     47 H193        0.3190    0.3000    1.6680 hn        1 10T      0.309700
@<TRIPOS>BOND
     1    1   18 1   
     2    1   19 1   
     3    1   23 1   
     4    1   39 1   
     5    2    5 ar  
     6    2   21 ar  
     7    2   22 1   
     8    3    4 1   
     9    3   12 ar  
    10    3   21 ar  
    11    4   24 1   
    12    4   25 1   
    13    4   26 1   
    14    5   13 ar  
    15    5   16 1   
    16    6    9 2   
    17    6   13 1   
    18    6   27 1   
    19    7    8 3   
    20    7   28 1   
    21    8   14 1   
    22    9   15 2   
    23   10   45 1   
    24   11   45 1   
    25   12   13 ar  
    26   12   45 1   
    27   14   15 1   
    28   14   32 1   
    29   14   46 1   
    30   15   33 1   
    31   16   17 2   
    32   16   37 1   
    33   17   36 1   
    34   17   47 1   
    35   18   19 1   
    36   18   20 1   
    37   18   38 1   
    38   19   40 1   
    39   19   41 1   
    40   20   42 1   
    41   20   43 1   
    42   20   44 1   
    43   29   46 1   
    44   30   46 1   
    45   31   46 1   
    46   34   35 1   
@<TRIPOS>SUBSTRUCTURE
     1 10T         1 TEMP              0 ****  ****    0 ROOT
