@<TRIPOS>MOLECULE
10T
   46    42     1     0     0
SMALL
bcc


@<TRIPOS>ATOM
      1 C4         -2.8210    0.0510   -1.0380 c3        1 10T     -0.098000
      2 C5         -1.3070    0.0780   -1.0400 c2        1 10T     -0.035000
      3 C7          0.7350    0.1540   -2.2240 c1        1 10T      0.002000
      4 C8          1.4870    0.1900   -3.5370 c2        1 10T     -0.177000
      5 C13         2.9420    0.2400   -1.0290 c1        1 10T      0.367000
      6 C17        -0.6130    0.1040    0.1600 c2        1 10T     -0.182000
      7 C20         1.6250    0.1800    1.2340 c1        1 10T     -0.026000
      8 C21         2.0660   -1.0080    1.7960 c1        1 10T     -0.086000
      9 C22         2.9070   -0.9840    2.8980 c1        1 10T     -0.136000
     10 C24         4.1840    0.2550    4.6710 c3        1 10T     -0.168000
     11 C26         2.0260    1.3920    1.7730 c1        1 10T     -0.114000
     12 O14         3.5280    1.3540   -0.9900 o         1 10T     -0.554500
     13 O15         3.6140   -0.8210   -1.1080 o         1 10T     -0.554500
     14 C12         1.4300    0.1800   -1.0250 c1        1 10T     -0.113000
     15 C16         0.7510    0.1550    0.1590 c1        1 10T      0.003000
     16 C23         3.3080    0.2290    3.4370 c2        1 10T     -0.086000
     17 C25         2.8670    1.4170    2.8750 c2        1 10T     -0.147000
     18 C18        -1.3700    0.1320    1.4700 c3        1 10T     -0.048000
     19 N19        -1.8970   -1.1640    1.7420 n3        1 10T     -0.334000
     20 C2         -3.3260   -0.0060   -2.4630 c3        1 10T     -0.099000
     21 C1         -3.4990   -1.4500   -2.8800 c3        1 10T     -0.205500
     22 C3         -4.6560    0.7090   -2.5560 c3        1 10T     -0.205500
     23 N6         -0.6280    0.1030   -2.2210 n2        1 10T     -0.172000
     24 H4         -3.1610    0.8590   -0.6040 hc        1 10T      0.079000
     25 H4A        -3.1320   -0.7370   -0.5500 hc        1 10T      0.079000
     26 H8          0.8670    0.0100   -4.2740 ha        1 10T      0.095667
     27 H8A         1.8910    1.0750   -3.6580 ha        1 10T      0.095667
     28 H8B         2.1920   -0.4920   -3.5290 ha        1 10T      0.095667
     29 H21         1.7750   -1.8620    1.4240 ha        1 10T      0.183000
     30 H22         3.2180   -1.8210    3.2940 ha        1 10T      0.122000
     31 H24         5.0460   -0.1650    4.4690 hc        1 10T      0.071000
     32 H24A        3.7430   -0.2360    5.3950 hc        1 10T      0.071000
     33 H24B        4.3300    1.1840    4.9480 hc        1 10T      0.071000
     34 H26         1.7150    2.2290    1.3770 ha        1 10T      0.127000
     35 H25         3.1640    2.2700    3.2430 ha        1 10T      0.113000
     36 H18        -0.7620    0.3960    2.1920 h1        1 10T      0.090500
     37 H18A       -2.1040    0.7780    1.4090 h1        1 10T      0.090500
     38 HN19       -1.3130   -1.6250    2.2750 hn        1 10T      0.137000
     39 HN1A       -2.7020   -1.0820    2.1710 hn        1 10T      0.137000
     40 H2         -2.6820    0.4280   -3.0540 hc        1 10T      0.112000
     41 H1         -2.6450   -1.8000   -3.2090 hc        1 10T      0.066833
     42 H1A        -3.7940   -1.9790   -2.1090 hc        1 10T      0.066833
     43 H1B        -4.1720   -1.5070   -3.5910 hc        1 10T      0.066833
     44 H3         -4.9990    0.6430   -3.4710 hc        1 10T      0.066833
     45 H3A        -5.2930    0.2930   -1.9380 hc        1 10T      0.066833
     46 H3B        -4.5370    1.6520   -2.3180 hc        1 10T      0.066833
@<TRIPOS>BOND
     1    1    2 1   
     2    1   20 1   
     3    1   24 1   
     4    1   25 1   
     5    2    6 1   
     6    2   23 1   
     7    3   14 1   
     8    3   23 1   
     9    4   26 1   
    10    4   27 1   
    11    4   28 1   
    12    5   12 1   
    13    5   13 1   
    14    6   15 1   
    15    6   18 1   
    16    7    8 1   
    17    8   29 1   
    18    9   16 1   
    19    9   30 1   
    20   10   16 1   
    21   10   31 1   
    22   10   32 1   
    23   10   33 1   
    24   11   17 1   
    25   11   34 1   
    26   14   15 1   
    27   16   17 1   
    28   17   35 1   
    29   18   19 1   
    30   18   36 1   
    31   18   37 1   
    32   19   38 1   
    33   19   39 1   
    34   20   21 1   
    35   20   22 1   
    36   20   40 1   
    37   21   41 1   
    38   21   42 1   
    39   21   43 1   
    40   22   44 1   
    41   22   45 1   
    42   22   46 1   
@<TRIPOS>SUBSTRUCTURE
     1 10T         1 TEMP              0 ****  ****    0 ROOT
