@<TRIPOS>MOLECULE
10U
   56    58     1     0     0
SMALL
bcc


@<TRIPOS>ATOM
      1 C14         2.4060    0.7140   -0.7080 c         1 10U      0.622100
      2 O32         1.7940   -0.1540   -0.0470 o         1 10U     -0.635100
      3 C15         3.8040    0.4460   -1.2880 c3        1 10U      0.105800
      4 N16         4.3320   -0.8760   -1.0880 n3        1 10U     -0.796200
      5 C17         4.8000   -1.1430    0.2690 c3        1 10U      0.161500
      6 C21         6.1160   -0.4170    0.6190 c3        1 10U     -0.079900
      7 C20         6.8510   -1.3120    1.6050 c3        1 10U     -0.077400
      8 C19         6.1890   -2.6840    1.5690 c3        1 10U     -0.077400
      9 C18         5.0910   -2.6380    0.5180 c3        1 10U     -0.079900
     10 N1          1.8070    1.9290   -0.9850 n         1 10U     -0.461800
     11 C2          0.5580    2.3460   -0.3600 c3        1 10U      0.033700
     12 C7         -0.6950    1.8430   -1.1190 c         1 10U      0.649100
     13 O22        -1.5560    2.6400   -1.5440 o         1 10U     -0.623100
     14 C3          0.5810    3.8890   -0.3030 c3        1 10U     -0.088400
     15 C4          1.7570    4.3360   -1.1650 c3        1 10U     -0.090400
     16 C5          2.5270    3.0600   -1.5410 c3        1 10U      0.088000
     17 N23        -0.8090    0.4840   -1.3030 n         1 10U     -0.549900
     18 C24        -1.9820   -0.1080   -1.8870 c3        1 10U      0.130300
     19 C25        -3.0610   -0.4790   -0.9060 ca        1 10U     -0.109300
     20 C30        -3.3210   -1.8180   -0.6070 ca        1 10U     -0.124000
     21 C29        -4.3430   -2.1540    0.2800 ca        1 10U     -0.103500
     22 C28        -5.1110   -1.1460    0.8710 ca        1 10U     -0.138900
     23 C31        -6.2120   -1.5110    1.8200 ce        1 10U      0.651800
     24 N49        -5.9490   -2.3360    2.7880 n2        1 10U     -0.827100
     25 N48        -7.4310   -0.8370    1.5800 nh        1 10U     -0.959800
     26 C27        -4.8450    0.1970    0.5840 ca        1 10U     -0.103500
     27 C26        -3.8230    0.5270   -0.3030 ca        1 10U     -0.124000
     28 H15         3.7520    0.6230   -2.4010 h1        1 10U      0.076200
     29 H15A        4.5190    1.1930   -0.8380 h1        1 10U      0.076200
     30 HN16        3.6520   -1.5700   -1.3460 hn        1 10U      0.376800
     31 H17         4.0170   -0.8180    1.0210 h1        1 10U      0.041700
     32 H21         6.7400   -0.2540   -0.2960 hc        1 10U      0.047450
     33 H21A        5.9000    0.5850    1.0650 hc        1 10U      0.047450
     34 H20         7.9330   -1.3870    1.3320 hc        1 10U      0.041950
     35 H20A        6.7980   -0.8830    2.6370 hc        1 10U      0.041950
     36 H19         6.9360   -3.4800    1.3210 hc        1 10U      0.041950
     37 H19A        5.7580   -2.9330    2.5710 hc        1 10U      0.041950
     38 H18         4.1670   -3.1590    0.8690 hc        1 10U      0.047450
     39 H18A        5.4350   -3.1440   -0.4200 hc        1 10U      0.047450
     40 H2          0.4950    1.9120    0.6820 h1        1 10U      0.085700
     41 H3          0.7170    4.2170    0.7570 hc        1 10U      0.075200
     42 H3A        -0.3820    4.3180   -0.6800 hc        1 10U      0.075200
     43 H4          2.4190    5.0420   -0.6090 hc        1 10U      0.057700
     44 H4A         1.3980    4.8530   -2.0880 hc        1 10U      0.057700
     45 H5          3.5760    3.1000   -1.1360 h1        1 10U      0.046200
     46 H5A         2.5890    2.9430   -2.6580 h1        1 10U      0.046200
     47 HN23       -0.2030   -0.1210   -0.7900 hn        1 10U      0.337500
     48 H24        -2.4170    0.6220   -2.6330 h1        1 10U      0.066700
     49 H24A       -1.6520   -1.0320   -2.4450 h1        1 10U      0.066700
     50 H30        -2.7180   -2.6150   -1.0690 ha        1 10U      0.145500
     51 H29        -4.5360   -3.2100    0.5240 ha        1 10U      0.146000
     52 HN49       -6.7040   -2.5580    3.4010 hn        1 10U      0.381400
     53 HN48       -7.5350   -0.4540    0.6700 hn        1 10U      0.398800
     54 HN4A       -8.2530   -1.2570    1.9440 hn        1 10U      0.398800
     55 H27        -5.4310    0.9960    1.0650 ha        1 10U      0.146000
     56 H26        -3.6040    1.5830   -0.5360 ha        1 10U      0.145500
@<TRIPOS>BOND
     1    1    2 2   
     2    1    3 1   
     3    1   10 1   
     4    3    4 1   
     5    3   28 1   
     6    3   29 1   
     7    4    5 1   
     8    4   30 1   
     9    5    6 1   
    10    5    9 1   
    11    5   31 1   
    12    6    7 1   
    13    6   32 1   
    14    6   33 1   
    15    7    8 1   
    16    7   34 1   
    17    7   35 1   
    18    8    9 1   
    19    8   36 1   
    20    8   37 1   
    21    9   38 1   
    22    9   39 1   
    23   10   11 1   
    24   10   16 1   
    25   11   12 1   
    26   11   14 1   
    27   11   40 1   
    28   12   13 2   
    29   12   17 1   
    30   14   15 1   
    31   14   41 1   
    32   14   42 1   
    33   15   16 1   
    34   15   43 1   
    35   15   44 1   
    36   16   45 1   
    37   16   46 1   
    38   17   18 1   
    39   17   47 1   
    40   18   19 1   
    41   18   48 1   
    42   18   49 1   
    43   19   20 ar  
    44   19   27 ar  
    45   20   21 ar  
    46   20   50 1   
    47   21   22 ar  
    48   21   51 1   
    49   22   23 1   
    50   22   26 ar  
    51   23   24 2   
    52   23   25 1   
    53   24   52 1   
    54   25   53 1   
    55   25   54 1   
    56   26   27 ar  
    57   26   55 1   
    58   27   56 1   
@<TRIPOS>SUBSTRUCTURE
     1 10U         1 TEMP              0 ****  ****    0 ROOT
