@<TRIPOS>MOLECULE
10U
   56    53     1     0     0
SMALL
bcc


@<TRIPOS>ATOM
      1 C14        -0.7790   -1.5560    1.6210 c1        1 10U      0.268000
      2 O32         0.4390   -1.5170    1.6040 o         1 10U     -0.398000
      3 C15        -1.5330   -1.5890    2.9710 c3        1 10U     -0.075000
      4 N16        -0.5850   -1.4600    4.0580 n3        1 10U     -0.283000
      5 C17        -1.3130   -1.2880    5.3260 c3        1 10U     -0.027000
      6 C21        -0.7780   -0.3320    6.0220 c3        1 10U     -0.176000
      7 C20         0.2940   -1.0540    6.9680 c3        1 10U     -0.157000
      8 C19        -0.0090   -2.5790    6.8550 c3        1 10U     -0.157000
      9 C18        -1.1870   -2.6520    6.2420 c3        1 10U     -0.176000
     10 N1         -1.5230   -1.5530    0.3740 n2        1 10U     -0.317000
     11 C2         -1.0200   -1.5100   -0.8620 c3        1 10U      0.006000
     12 C7          0.3110   -0.7890   -0.9620 c1        1 10U      0.294000
     13 O22         1.0180   -0.6840    0.0160 o         1 10U     -0.382000
     14 C3         -2.2540   -0.7910   -1.7500 c3        1 10U     -0.167000
     15 C4         -3.3620   -1.2420   -1.2790 c3        1 10U     -0.169000
     16 C5         -3.0700   -1.5990    0.2090 c3        1 10U     -0.029000
     17 N23         0.7750   -0.3130   -2.2380 n2        1 10U     -0.361000
     18 C24         2.1090    0.2080   -2.3680 c3        1 10U      0.006000
     19 C25         2.1370    1.2680   -3.4710 c2        1 10U     -0.100000
     20 C30         2.5340    0.9220   -4.7580 c2        1 10U     -0.125000
     21 C29         2.6450    1.9020   -5.7400 c1        1 10U     -0.100000
     22 C28         2.3600    3.2280   -5.4350 c1        1 10U     -0.111000
     23 C31         2.4670    4.2990   -6.5130 c2        1 10U      0.115000
     24 N49         3.5060    5.0950   -6.5430 n1        1 10U     -0.304000
     25 N48         1.4390    4.4330   -7.4860 n3        1 10U     -0.332000
     26 C27         1.9630    3.5760   -4.1480 c1        1 10U     -0.117000
     27 C26         1.8520    2.5950   -3.1650 c1        1 10U     -0.117000
     28 H15        -2.1720   -0.8480    3.0060 h1        1 10U      0.113500
     29 H15A       -2.0140   -2.4400    3.0570 h1        1 10U      0.113500
     30 HN16       -0.0510   -0.7340    3.9120 hn        1 10U      0.179000
     31 H17        -2.2540   -1.0880    5.1490 h1        1 10U      0.092000
     32 H21        -0.3320    0.3090    5.4320 hc        1 10U      0.089750
     33 H21A       -1.4610    0.1200    6.5640 hc        1 10U      0.089750
     34 H20         0.1840   -0.7560    7.8910 hc        1 10U      0.081250
     35 H20A        1.2030   -0.8650    6.6560 hc        1 10U      0.081250
     36 H19         0.6800   -3.0240    6.3220 hc        1 10U      0.081250
     37 H19A       -0.0640   -2.9840    7.7500 hc        1 10U      0.081250
     38 H18        -1.2200   -3.4410    5.6730 hc        1 10U      0.089750
     39 H18A       -1.9120   -2.6810    6.9060 hc        1 10U      0.089750
     40 H2         -0.7910   -2.4020   -1.2000 h1        1 10U      0.124000
     41 H3         -2.1690   -1.0300   -2.6970 hc        1 10U      0.115000
     42 H3A        -2.2180    0.1820   -1.6450 hc        1 10U      0.115000
     43 H4         -4.0580   -0.5540   -1.3320 hc        1 10U      0.097500
     44 H4A        -3.6380   -2.0440   -1.7720 hc        1 10U      0.097500
     45 H5         -3.4030   -2.4960    0.4100 h1        1 10U      0.087000
     46 H5A        -3.4900   -0.9430    0.8000 h1        1 10U      0.087000
     47 HN23        0.2470   -0.4020   -2.9760 hn        1 10U      0.250000
     48 H24         2.7230   -0.5200   -2.6000 h1        1 10U      0.107500
     49 H24A        2.3860    0.6110   -1.5220 h1        1 10U      0.107500
     50 H30         2.7320   -0.0020   -4.9710 ha        1 10U      0.135000
     51 H29         2.9240    1.6580   -6.6450 ha        1 10U      0.149000
     52 HN49        4.1660    5.0080   -5.9180 DU        1 10U      0.151000
     53 HN48        0.5920    4.6670   -7.2270 hn        1 10U      0.193000
     54 HN4A        1.6360    4.3380   -8.3740 hn        1 10U      0.193000
     55 H27         1.7630    4.5070   -3.9330 ha        1 10U      0.140000
     56 H26         1.5750    2.8370   -2.2670 ha        1 10U      0.159000
@<TRIPOS>BOND
     1    1    2 1   
     2    1    3 1   
     3    3    4 1   
     4    3   28 1   
     5    3   29 1   
     6    4    5 1   
     7    4   30 1   
     8    5    6 1   
     9    5    9 1   
    10    5   31 1   
    11    6    7 1   
    12    6   32 1   
    13    6   33 1   
    14    7    8 1   
    15    7   34 1   
    16    7   35 1   
    17    8    9 1   
    18    8   36 1   
    19    8   37 1   
    20    9   38 1   
    21    9   39 1   
    22   10   11 1   
    23   10   16 1   
    24   11   12 1   
    25   11   14 1   
    26   11   40 1   
    27   12   13 1   
    28   14   15 1   
    29   14   41 1   
    30   14   42 1   
    31   15   16 1   
    32   15   43 1   
    33   15   44 1   
    34   16   45 1   
    35   16   46 1   
    36   17   18 1   
    37   17   47 1   
    38   18   19 1   
    39   18   48 1   
    40   18   49 1   
    41   19   20 1   
    42   19   27 1   
    43   20   21 1   
    44   20   50 1   
    45   21   51 1   
    46   22   23 1   
    47   22   26 1   
    48   23   24 1   
    49   23   25 1   
    50   25   53 1   
    51   25   54 1   
    52   26   55 1   
    53   27   56 1   
@<TRIPOS>SUBSTRUCTURE
     1 10U         1 TEMP              0 ****  ****    0 ROOT
