@<TRIPOS>MOLECULE
10V
   55    48     1     0     0
SMALL
bcc


@<TRIPOS>ATOM
      1 C1          4.3170   -0.6150   -5.4470 c1        1 10V     -0.137250
      2 C2          4.8310    0.6670   -5.6470 c1        1 10V     -0.091000
      3 C3          4.7040    1.6280   -4.6510 c1        1 10V     -0.014000
      4 C4          4.0710    1.3160   -3.4650 c1        1 10V     -0.083000
      5 C5          3.5560    0.0330   -3.2630 c1        1 10V     -0.013000
      6 C6          3.6800   -0.9280   -4.2550 c1        1 10V     -0.137250
      7 C7          2.8190   -0.2990   -1.9580 c2        1 10V     -0.070000
      8 C8          1.2130   -0.3620   -1.7660 c1        1 10V     -0.131000
      9 C9          0.9320   -0.7600   -0.3990 c1        1 10V     -0.439000
     10 S1          2.3000   -0.9660    0.3340 ss        1 10V      0.638000
     11 C10         3.4420   -0.6620   -0.6960 c1        1 10V     -0.442000
     12 C11        -0.4760   -0.8700    0.2480 c2        1 10V      0.095000
     13 C12        -0.3400   -1.4930    1.4590 c3        1 10V     -0.150000
     14 C13        -0.6130   -2.9790    1.5500 c2        1 10V      0.330000
     15 N1         -1.3300   -3.6110    0.5310 n         1 10V     -0.322000
     16 C14        -1.7690   -2.8340   -0.6240 c1        1 10V      0.198000
     17 N2         -1.3750   -1.4570   -0.7470 n2        1 10V     -0.249000
     18 N3         -2.5200   -3.3890   -1.5500 n1        1 10V     -0.323000
     19 C15        -1.0250    0.7160    0.6040 c3        1 10V     -0.059000
     20 C16        -1.4380   -5.0470    0.5140 c3        1 10V     -0.090000
     21 O1         -0.3110   -3.5990    2.5700 o         1 10V     -0.343000
     22 C17         5.1930    3.0390   -4.8950 c1        1 10V     -0.096000
     23 N4          5.5630    4.1040   -5.0770 n1        1 10V     -0.038000
     24 C18        -1.4250   -0.7180    2.4400 c3        1 10V     -0.051000
     25 N5         -1.8930    0.5890    1.6510 n3        1 10V     -0.178000
     26 C19        -2.8050    3.4350    3.8460 c1        1 10V     -0.137250
     27 C20        -2.9130    2.2910    3.1140 c1        1 10V      0.017000
     28 C21        -1.7690    1.7320    2.5160 c1        1 10V      0.064000
     29 C23        -0.4520    3.4800    3.4000 c1        1 10V     -0.072000
     30 C24        -1.5900    4.0380    3.9970 c1        1 10V     -0.137250
     31 C25        -5.2860    2.4130    3.2370 c3        1 10V     -0.077000
     32 O2         -4.1310    1.5840    3.0960 os        1 10V     -0.205000
     33 N6         -0.5580    2.3350    2.6680 n1        1 10V     -0.168000
     34 H1          4.4070   -1.2980   -6.1530 ha        1 10V      0.144250
     35 H2          5.2810    0.8910   -6.4880 ha        1 10V      0.146000
     36 H3          3.9800    2.0100   -2.7480 ha        1 10V      0.147000
     37 H4          3.3280   -1.8010   -4.1170 ha        1 10V      0.144250
     38 H5          0.5550   -0.1700   -2.4440 DU        1 10V      0.165333
     39 H6          4.4110   -0.7080   -0.5190 DU        1 10V      0.165333
     40 H7          0.5490   -1.3260    1.7920 hc        1 10V      0.134000
     41 H8         -2.7600   -4.2280   -1.4750 DU        1 10V      0.165333
     42 H10        -0.2440    1.2450    0.9170 h1        1 10V      0.121000
     43 H11        -1.5630    1.0660   -0.2200 h1        1 10V      0.121000
     44 H12        -2.3530   -5.3120    0.7750 h1        1 10V      0.095667
     45 H13        -1.2500   -5.3740   -0.3730 h1        1 10V      0.095667
     46 H14        -0.7930   -5.4310    1.1470 h1        1 10V      0.095667
     47 H15        -2.2240   -1.3220    2.6230 h1        1 10V      0.126500
     48 H16        -0.9960   -0.4640    3.2830 h1        1 10V      0.126500
     49 H17        -3.5690    3.8100    4.2460 ha        1 10V      0.144250
     50 H18         0.4170    3.9110    3.5080 ha        1 10V      0.162000
     51 H19        -1.5130    4.8760    4.5330 ha        1 10V      0.144250
     52 H20        -5.3870    2.6850    4.2000 h1        1 10V      0.085667
     53 H21        -5.1830    3.2190    2.6760 h1        1 10V      0.085667
     54 H22        -6.0880    1.9110    2.9490 h1        1 10V      0.085667
     55 H23        -1.6060   -1.0020   -1.4450 hn        1 10V      0.213000
@<TRIPOS>BOND
     1    1    6 1   
     2    1   34 1   
     3    2    3 1   
     4    2   35 1   
     5    3   22 1   
     6    4    5 1   
     7    4   36 1   
     8    5    7 1   
     9    6   37 1   
    10    7    8 1   
    11    7   11 1   
    12    8    9 1   
    13    9   10 1   
    14   10   11 1   
    15   12   13 1   
    16   12   17 1   
    17   12   19 1   
    18   13   14 1   
    19   13   24 1   
    20   13   40 1   
    21   14   15 1   
    22   14   21 1   
    23   15   16 1   
    24   15   20 1   
    25   16   18 1   
    26   17   55 1   
    27   19   25 1   
    28   19   42 1   
    29   19   43 1   
    30   20   44 1   
    31   20   45 1   
    32   20   46 1   
    33   22   23 1   
    34   24   25 1   
    35   24   47 1   
    36   24   48 1   
    37   25   28 1   
    38   26   30 1   
    39   26   49 1   
    40   27   28 1   
    41   27   32 1   
    42   29   33 1   
    43   29   50 1   
    44   30   51 1   
    45   31   32 1   
    46   31   52 1   
    47   31   53 1   
    48   31   54 1   
@<TRIPOS>SUBSTRUCTURE
     1 10V         1 TEMP              0 ****  ****    0 ROOT
