@<TRIPOS>MOLECULE
10V
   55    59     1     0     0
SMALL
bcc


@<TRIPOS>ATOM
      1 C1          0.3340    0.2160   -0.0100 ca        1 10V     -0.133000
      2 C2          1.6850    0.5200    0.1400 ca        1 10V     -0.090000
      3 C3          2.2460    0.5540    1.4240 ca        1 10V     -0.018000
      4 C4          1.4550    0.2860    2.5480 ca        1 10V     -0.083000
      5 C5          0.0960   -0.0190    2.3940 ca        1 10V     -0.015000
      6 C6         -0.4580   -0.0520    1.1050 ca        1 10V     -0.097000
      7 C7         -0.7250   -0.3000    3.5550 cc        1 10V     -0.068000
      8 C8         -2.1230    0.0080    3.6330 cc        1 10V     -0.123000
      9 C9         -2.6690   -0.3670    4.8470 cd        1 10V     -0.177400
     10 S1         -1.5040   -1.0670    5.8350 ss        1 10V      0.081200
     11 C10        -0.2840   -0.8940    4.7280 cd        1 10V     -0.165100
     12 C11        -4.1050   -0.1600    5.2180 c3        1 10V      0.274500
     13 C12        -4.4330   -0.7260    6.6270 c3        1 10V     -0.147700
     14 C13        -5.0880   -2.0910    6.6570 c         1 10V      0.721500
     15 N1         -5.3590   -2.7510    5.4590 n         1 10V     -0.431300
     16 C14        -5.1900   -2.1090    4.1790 c2        1 10V      0.648800
     17 N2         -5.0380   -0.6810    4.2210 nh        1 10V     -0.761200
     18 N3         -5.2270   -2.7090    3.0200 n2        1 10V     -0.858100
     19 C15        -4.3490    1.3890    5.4030 c3        1 10V      0.201800
     20 C16        -5.9600   -4.0590    5.4780 c3        1 10V      0.064300
     21 O1         -5.3440   -2.6350    7.7470 o         1 10V     -0.621500
     22 C17         3.6240    0.8640    1.5890 cg        1 10V      0.233800
     23 N4          4.7520    1.1160    1.7220 n1        1 10V     -0.363800
     24 C18        -5.3580    0.3220    7.2860 c3        1 10V      0.207800
     25 N5         -5.3070    1.5450    6.4910 nh        1 10V     -0.721300
     26 C19        -6.3580    4.2240    8.8920 ca        1 10V     -0.137000
     27 C20        -6.2370    2.9620    8.3080 ca        1 10V     -0.025200
     28 C21        -5.3540    2.7810    7.1790 ca        1 10V      0.619200
     29 C23        -4.7840    5.0420    7.2800 ca        1 10V      0.403200
     30 C24        -5.6240    5.2900    8.3730 ca        1 10V     -0.253300
     31 C25        -8.0730    2.1030    9.5490 c3        1 10V      0.113700
     32 N6         -4.6340    3.8400    6.7000 nb        1 10V     -0.706000
     33 H1         -0.1110    0.1850   -1.0160 ha        1 10V      0.142000
     34 H2          2.3090    0.7310   -0.7410 ha        1 10V      0.146000
     35 H3          1.8990    0.3200    3.5550 ha        1 10V      0.146000
     36 H4         -1.5230   -0.3000    0.9750 ha        1 10V      0.143000
     37 H5         -2.6680    0.4950    2.8200 ha        1 10V      0.158000
     38 H6          0.7380   -1.2250    4.9140 h4        1 10V      0.179000
     39 H7         -3.4860   -0.8110    7.2320 hc        1 10V      0.090700
     40 H8         -5.4520   -3.6790    3.0200 hn        1 10V      0.405400
     41 H10        -3.3550    1.8730    5.6150 h1        1 10V      0.072700
     42 H11        -4.7840    1.8610    4.4820 h1        1 10V      0.072700
     43 H12        -6.1820   -4.3610    6.5380 h1        1 10V      0.057033
     44 H13        -5.2560   -4.8110    5.0300 h1        1 10V      0.057033
     45 H14        -6.9200   -4.0590    4.8960 h1        1 10V      0.057033
     46 H15        -6.4260   -0.0340    7.2920 h1        1 10V      0.077200
     47 H16        -5.0440    0.4870    8.3540 h1        1 10V      0.077200
     48 H17        -7.0270    4.3810    9.7510 ha        1 10V      0.143000
     49 H18        -4.1800    5.8510    6.8300 h4        1 10V      0.023100
     50 H19        -5.7020    6.2950    8.8070 ha        1 10V      0.146000
     51 H20        -7.7970    2.4850   10.5620 h1        1 10V      0.045700
     52 H21        -8.7450    2.8260    9.0270 h1        1 10V      0.045700
     53 H22        -8.5570    1.0960    9.6300 h1        1 10V      0.045700
     54 H23        -4.8600   -0.2920    3.3120 hn        1 10V      0.419800
     55 O2         -6.8990    1.8450    8.7850 os        1 10V     -0.327900
@<TRIPOS>BOND
     1    1    2 ar  
     2    1    6 ar  
     3    1   33 1   
     4    2    3 ar  
     5    2   34 1   
     6    3    4 ar  
     7    3   22 1   
     8    4    5 ar  
     9    4   35 1   
    10    5    6 ar  
    11    5    7 1   
    12    6   36 1   
    13    7    8 1   
    14    7   11 2   
    15    8    9 2   
    16    8   37 1   
    17    9   10 1   
    18    9   12 1   
    19   10   11 1   
    20   11   38 1   
    21   12   13 1   
    22   12   17 1   
    23   12   19 1   
    24   13   14 1   
    25   13   24 1   
    26   13   39 1   
    27   14   15 1   
    28   14   21 2   
    29   15   16 1   
    30   15   20 1   
    31   16   17 1   
    32   16   18 2   
    33   17   54 1   
    34   18   40 1   
    35   19   25 1   
    36   19   41 1   
    37   19   42 1   
    38   20   43 1   
    39   20   44 1   
    40   20   45 1   
    41   22   23 3   
    42   24   25 1   
    43   24   46 1   
    44   24   47 1   
    45   25   28 1   
    46   26   27 ar  
    47   26   30 ar  
    48   26   48 1   
    49   27   28 ar  
    50   27   55 1   
    51   28   32 ar  
    52   29   30 ar  
    53   29   32 ar  
    54   29   49 1   
    55   30   50 1   
    56   31   51 1   
    57   31   52 1   
    58   31   53 1   
    59   31   55 1   
@<TRIPOS>SUBSTRUCTURE
     1 10V         1 TEMP              0 ****  ****    0 ROOT
