@<TRIPOS>MOLECULE
10V
   55    59     1     0     0
SMALL
bcc


@<TRIPOS>ATOM
      1 C1          0.2760    0.2020   -0.0250 ca        1 10V     -0.133000
      2 C2          1.6360    0.4700    0.1170 ca        1 10V     -0.090000
      3 C3          2.2040    0.4910    1.3990 ca        1 10V     -0.018000
      4 C4          1.4120    0.2450    2.5270 ca        1 10V     -0.082000
      5 C5          0.0440   -0.0230    2.3800 ca        1 10V     -0.015000
      6 C6         -0.5170   -0.0430    1.0940 ca        1 10V     -0.097000
      7 C7         -0.7770   -0.2810    3.5460 cc        1 10V     -0.068000
      8 C8         -2.1660    0.0670    3.6320 cc        1 10V     -0.122000
      9 C9         -2.7150   -0.2920    4.8490 cd        1 10V     -0.178400
     10 S1         -1.5660   -1.0250    5.8310 ss        1 10V      0.083200
     11 C10        -0.3470   -0.8860    4.7160 cd        1 10V     -0.165100
     12 C11        -4.1420   -0.0440    5.2290 c3        1 10V      0.274500
     13 C12        -4.4830   -0.6200    6.6320 c3        1 10V     -0.147700
     14 C13        -5.1750   -1.9670    6.6430 c         1 10V      0.720500
     15 N1         -5.4720   -2.5990    5.4360 n         1 10V     -0.431300
     16 C14        -5.2920   -1.9420    4.1660 c2        1 10V      0.648800
     17 N2         -5.0970   -0.5190    4.2310 nu        1 10V     -0.761200
     18 N3         -5.3550   -2.5200    2.9970 n2        1 10V     -0.858100
     19 C15        -4.3350    1.5100    5.4390 c3        1 10V      0.200800
     20 C16        -6.1010   -3.8940    5.4370 c3        1 10V      0.064300
     21 O1         -5.4400   -2.5220    7.7250 o         1 10V     -0.619500
     22 C17         3.5910    0.7630    1.5550 cg        1 10V      0.233800
     23 N4          4.7260    0.9860    1.6830 n1        1 10V     -0.362800
     24 C18        -5.3780    0.4430    7.3060 c3        1 10V      0.205800
     25 N5         -5.2850    1.6790    6.5330 nh        1 10V     -0.727300
     26 C19        -6.2570    4.3320    8.9880 ca        1 10V     -0.080000
     27 C20        -6.1830    3.0870    8.3540 ca        1 10V     -0.060200
     28 C21        -5.2840    2.8980    7.2490 ca        1 10V      0.622200
     29 C23        -4.5970    5.1170    7.4470 ca        1 10V      0.425200
     30 C24        -5.4510    5.3720    8.5340 ca        1 10V     -0.274300
     31 C25        -8.2510    1.9650    8.3510 c3        1 10V      0.111700
     32 N6         -4.4960    3.9370    6.8210 nb        1 10V     -0.715000
     33 H1         -0.1740    0.1820   -1.0290 ha        1 10V      0.142000
     34 H2          2.2600    0.6640   -0.7670 ha        1 10V      0.146000
     35 H3          1.8620    0.2680    3.5320 ha        1 10V      0.146000
     36 H4         -1.5890   -0.2620    0.9700 ha        1 10V      0.143000
     37 H5         -2.7010    0.5690    2.8210 ha        1 10V      0.158000
     38 H6          0.6660   -1.2460    4.8970 h4        1 10V      0.180000
     39 H7         -3.5380   -0.7390    7.2340 hc        1 10V      0.092700
     40 H8         -5.6070   -3.4830    2.9810 hn        1 10V      0.405400
     41 H10        -4.7560    2.0100    4.5270 h1        1 10V      0.073700
     42 H11        -3.3250    1.9570    5.6550 h1        1 10V      0.073700
     43 H12        -5.4170   -4.6530    4.9710 h1        1 10V      0.057367
     44 H13        -6.3210   -4.2100    6.4930 h1        1 10V      0.057367
     45 H14        -7.0660   -3.8630    4.8620 h1        1 10V      0.057367
     46 H15        -6.4570    0.1210    7.2980 h1        1 10V      0.077200
     47 H16        -5.0710    0.5820    8.3790 h1        1 10V      0.077200
     48 H17        -6.9470    4.4670    9.8340 ha        1 10V      0.149000
     49 H18        -3.9390    5.9110    7.0480 h4        1 10V      0.023100
     50 H19        -5.4780    6.3620    9.0050 ha        1 10V      0.147000
     51 H20        -8.6930    1.0790    8.8710 h1        1 10V      0.043700
     52 H21        -8.8100    2.8970    8.6070 h1        1 10V      0.043700
     53 H22        -8.2330    1.8120    7.2450 h1        1 10V      0.043700
     54 H23        -4.9110   -0.1210    3.3270 hn        1 10V      0.419800
     55 O2         -6.9190    2.0300    8.8670 os        1 10V     -0.340900
@<TRIPOS>BOND
     1    1    2 ar  
     2    1    6 ar  
     3    1   33 1   
     4    2    3 ar  
     5    2   34 1   
     6    3    4 ar  
     7    3   22 1   
     8    4    5 ar  
     9    4   35 1   
    10    5    6 ar  
    11    5    7 1   
    12    6   36 1   
    13    7    8 1   
    14    7   11 2   
    15    8    9 2   
    16    8   37 1   
    17    9   10 1   
    18    9   12 1   
    19   10   11 1   
    20   11   38 1   
    21   12   13 1   
    22   12   17 1   
    23   12   19 1   
    24   13   14 1   
    25   13   24 1   
    26   13   39 1   
    27   14   15 1   
    28   14   21 2   
    29   15   16 1   
    30   15   20 1   
    31   16   17 1   
    32   16   18 2   
    33   17   54 1   
    34   18   40 1   
    35   19   25 1   
    36   19   41 1   
    37   19   42 1   
    38   20   43 1   
    39   20   44 1   
    40   20   45 1   
    41   22   23 3   
    42   24   25 1   
    43   24   46 1   
    44   24   47 1   
    45   25   28 1   
    46   26   27 ar  
    47   26   30 ar  
    48   26   48 1   
    49   27   28 ar  
    50   27   55 1   
    51   28   32 ar  
    52   29   30 ar  
    53   29   32 ar  
    54   29   49 1   
    55   30   50 1   
    56   31   51 1   
    57   31   52 1   
    58   31   53 1   
    59   31   55 1   
@<TRIPOS>SUBSTRUCTURE
     1 10V         1 TEMP              0 ****  ****    0 ROOT
