@<TRIPOS>MOLECULE
10V
   55    59     1     0     0
SMALL
bcc


@<TRIPOS>ATOM
      1 C1         -6.0460   -0.2420    1.8650 ca        1 10V     -0.133000
      2 C2         -7.0170    0.0590    0.9120 ca        1 10V     -0.091000
      3 C3         -6.6250    0.5540   -0.3390 ca        1 10V     -0.018000
      4 C4         -5.2690    0.7450   -0.6300 ca        1 10V     -0.083000
      5 C5         -4.2930    0.4420    0.3310 ca        1 10V     -0.014000
      6 C6         -4.6950   -0.0540    1.5810 ca        1 10V     -0.097000
      7 C7         -2.8900    0.6420    0.0320 cc        1 10V     -0.071000
      8 C8         -1.8340   -0.1330    0.6210 cc        1 10V     -0.125000
      9 C9         -0.5900    0.2560    0.1660 cd        1 10V     -0.172400
     10 S1         -0.7270    1.5290   -0.9320 ss        1 10V      0.070200
     11 C10        -2.3800    1.5860   -0.8450 cd        1 10V     -0.163100
     12 C11         0.7320   -0.3290    0.5590 c3        1 10V      0.277500
     13 C12         1.4630   -0.9080   -0.6890 c3        1 10V     -0.146700
     14 C13         1.3590   -2.4040   -0.8820 c         1 10V      0.725500
     15 N1          0.6810   -3.1780    0.0600 n         1 10V     -0.430300
     16 C14         0.1710   -2.6190    1.2840 c2        1 10V      0.654800
     17 N2          0.6660   -1.3170    1.6280 nh        1 10V     -0.765200
     18 N3         -0.6390   -3.2230    2.1140 n2        1 10V     -0.871100
     19 C15         1.6960    0.8430    1.0060 c3        1 10V      0.197800
     20 C16         0.5580   -4.6000   -0.1320 c3        1 10V      0.065300
     21 O1          1.8500   -2.9380   -1.8940 o         1 10V     -0.621500
     22 C17        -7.6080    0.8640   -1.3190 cg        1 10V      0.233800
     23 N4         -8.4120    1.1180   -2.1200 n1        1 10V     -0.363800
     24 C18         2.9430   -0.4960   -0.5300 c3        1 10V      0.204800
     25 N5          3.0310    0.5030    0.5300 nh        1 10V     -0.721300
     26 C19         6.2570    2.2790   -0.1670 ca        1 10V     -0.138000
     27 C20         5.2970    1.2660   -0.1470 ca        1 10V     -0.023200
     28 C21         3.9800    1.5420    0.3810 ca        1 10V      0.618200
     29 C23         4.6300    3.7410    0.8130 ca        1 10V      0.402200
     30 C24         5.9270    3.5420    0.3240 ca        1 10V     -0.252300
     31 C25         6.8960   -0.3900   -0.7440 c3        1 10V      0.113700
     32 N6          3.6790    2.7940    0.8390 nb        1 10V     -0.708000
     33 H1         -6.3480   -0.6310    2.8490 ha        1 10V      0.142000
     34 H2         -8.0830   -0.0900    1.1380 ha        1 10V      0.146000
     35 H3         -4.9670    1.1280   -1.6170 ha        1 10V      0.146000
     36 H4         -3.9370   -0.2910    2.3440 ha        1 10V      0.144000
     37 H5         -2.0340   -0.9400    1.3330 ha        1 10V      0.171000
     38 H6         -2.9780    2.3010   -1.4120 h4        1 10V      0.179000
     39 H7          1.0360   -0.4340   -1.6160 hc        1 10V      0.096700
     40 H8         -0.8670   -4.1710    1.9130 hn        1 10V      0.405400
     41 H10         1.3040    1.8050    0.5690 h1        1 10V      0.070700
     42 H11         1.7380    0.9550    2.1220 h1        1 10V      0.070700
     43 H12         0.9780   -5.1520    0.7520 h1        1 10V      0.057033
     44 H13        -0.5220   -4.8800   -0.2640 h1        1 10V      0.057033
     45 H14         1.1240   -4.9100   -1.0520 h1        1 10V      0.057033
     46 H15         3.5740   -1.3760   -0.2200 h1        1 10V      0.076200
     47 H16         3.3400   -0.1180   -1.5130 h1        1 10V      0.076200
     48 H17         7.2650    2.0870   -0.5620 ha        1 10V      0.144000
     49 H18         4.3160    4.7230    1.2120 h4        1 10V      0.023100
     50 H19         6.6610    4.3570    0.3250 ha        1 10V      0.146000
     51 H20         7.3880    0.1440   -1.5930 h1        1 10V      0.046033
     52 H21         7.4400   -0.1950    0.2110 h1        1 10V      0.046033
     53 H22         6.8400   -1.4880   -0.9530 h1        1 10V      0.046033
     54 H23         0.2290   -0.9450    2.4520 hn        1 10V      0.424800
     55 O2          5.5290   -0.0020   -0.6470 os        1 10V     -0.327900
@<TRIPOS>BOND
     1    1    2 ar  
     2    1    6 ar  
     3    1   33 1   
     4    2    3 ar  
     5    2   34 1   
     6    3    4 ar  
     7    3   22 1   
     8    4    5 ar  
     9    4   35 1   
    10    5    6 ar  
    11    5    7 1   
    12    6   36 1   
    13    7    8 1   
    14    7   11 2   
    15    8    9 2   
    16    8   37 1   
    17    9   10 1   
    18    9   12 1   
    19   10   11 1   
    20   11   38 1   
    21   12   13 1   
    22   12   17 1   
    23   12   19 1   
    24   13   14 1   
    25   13   24 1   
    26   13   39 1   
    27   14   15 1   
    28   14   21 2   
    29   15   16 1   
    30   15   20 1   
    31   16   17 1   
    32   16   18 2   
    33   17   54 1   
    34   18   40 1   
    35   19   25 1   
    36   19   41 1   
    37   19   42 1   
    38   20   43 1   
    39   20   44 1   
    40   20   45 1   
    41   22   23 3   
    42   24   25 1   
    43   24   46 1   
    44   24   47 1   
    45   25   28 1   
    46   26   27 ar  
    47   26   30 ar  
    48   26   48 1   
    49   27   28 ar  
    50   27   55 1   
    51   28   32 ar  
    52   29   30 ar  
    53   29   32 ar  
    54   29   49 1   
    55   30   50 1   
    56   31   51 1   
    57   31   52 1   
    58   31   53 1   
    59   31   55 1   
@<TRIPOS>SUBSTRUCTURE
     1 10V         1 TEMP              0 ****  ****    0 ROOT
