@<TRIPOS>MOLECULE
10W
   52    56     1     0     0
SMALL
bcc


@<TRIPOS>ATOM
      1 C1         -0.0080   -0.0030   -0.1630 c         1 10W      0.720500
      2 N1          1.3770   -0.1460   -0.1590 n         1 10W     -0.429300
      3 C2          2.1300   -0.2210    1.0680 c2        1 10W      0.645800
      4 N2          1.4220    0.1900    2.2500 nh        1 10W     -0.760200
      5 N3          3.3850   -0.5640    1.1670 n2        1 10W     -0.852100
      6 C3          2.1150   -0.0580   -1.3930 c3        1 10W      0.064300
      7 O1         -0.6220    0.1790   -1.2320 o         1 10W     -0.621500
      8 C4         -0.7770   -0.1250    1.1360 c3        1 10W     -0.146700
      9 C5          0.0750   -0.3500    2.4160 c3        1 10W      0.278500
     10 C6         -0.6960    0.4970    3.5040 c3        1 10W      0.193800
     11 N4         -1.4680    1.5140    2.8060 nh        1 10W     -0.626000
     12 C7         -1.5860    1.1660    1.3950 c3        1 10W      0.199800
     13 C8          0.0670   -1.7830    2.8530 cc        1 10W     -0.171400
     14 C9          0.7110   -2.2420    3.9910 cd        1 10W     -0.138000
     15 C10         0.5420   -3.6440    4.1710 cd        1 10W     -0.139000
     16 C11        -0.2290   -4.2040    3.1630 cc        1 10W     -0.068100
     17 S1         -0.7030   -3.0350    2.0510 ss        1 10W      0.065200
     18 C12        -0.5920   -5.5950    3.0420 ca        1 10W     -0.023000
     19 C13         0.2440   -6.5910    3.5630 ca        1 10W     -0.055000
     20 C14        -0.1000   -7.9440    3.4540 ca        1 10W     -0.046000
     21 C15        -1.3050   -8.3060    2.8070 ca        1 10W      0.168900
     22 C16        -2.1430   -7.3040    2.2810 ca        1 10W     -0.165000
     23 C17        -1.7860   -5.9680    2.4010 ca        1 10W     -0.084000
     24 C18         0.7630   -8.9350    3.9920 cg        1 10W      0.230800
     25 N5          1.4710   -9.7440    4.4340 n1        1 10W     -0.341800
     26 F1         -1.6620   -9.6040    2.6870 f         1 10W     -0.120900
     27 C19        -2.6060    2.0370    3.4530 ca        1 10W      0.141600
     28 C20        -2.7720    1.9230    4.8540 ca        1 10W     -0.180000
     29 C21        -3.8510    2.5290    5.4890 ca        1 10W     -0.098000
     30 C22        -4.7890    3.2590    4.7620 ca        1 10W     -0.164000
     31 C23        -4.6330    3.3870    3.3820 ca        1 10W     -0.098000
     32 C24        -3.5610    2.7910    2.7280 ca        1 10W     -0.180000
     33 H1          3.8790   -0.7280    0.3180 hn        1 10W      0.407400
     34 H3          2.8890    0.7530   -1.3310 h1        1 10W      0.058033
     35 H4          2.6220   -1.0380   -1.6050 h1        1 10W      0.058033
     36 H5          1.4150    0.1750   -2.2400 h1        1 10W      0.058033
     37 H6         -1.4940   -0.9840    1.0030 hc        1 10W      0.090700
     38 H7          0.0120    1.0120    4.2070 h1        1 10W      0.062200
     39 H8         -1.3450   -0.2030    4.1010 h1        1 10W      0.062200
     40 H9         -2.6520    1.0020    1.0750 h1        1 10W      0.067700
     41 H10        -1.1670    2.0220    0.7940 h1        1 10W      0.067700
     42 H11         1.2830   -1.6190    4.6820 ha        1 10W      0.159000
     43 H12         0.9670   -4.1940    5.0140 ha        1 10W      0.162000
     44 H13         1.1860   -6.3110    4.0610 ha        1 10W      0.156000
     45 H14        -3.0780   -7.5940    1.7800 ha        1 10W      0.160000
     46 H15        -2.4510   -5.1900    1.9910 ha        1 10W      0.146000
     47 H16        -2.0440    1.3680    5.4630 ha        1 10W      0.133500
     48 H17        -3.9600    2.4290    6.5790 ha        1 10W      0.131500
     49 H18        -5.6400    3.7320    5.2700 ha        1 10W      0.133000
     50 H19        -5.3640    3.9690    2.8000 ha        1 10W      0.131500
     51 H20        -3.4560    2.9300    1.6420 ha        1 10W      0.133500
     52 H21         1.9720    0.0620    3.0820 hn        1 10W      0.420800
@<TRIPOS>BOND
     1    1    2 1   
     2    1    7 2   
     3    1    8 1   
     4    2    3 1   
     5    2    6 1   
     6    3    4 1   
     7    3    5 2   
     8    4    9 1   
     9    4   52 1   
    10    5   33 1   
    11    6   34 1   
    12    6   35 1   
    13    6   36 1   
    14    8    9 1   
    15    8   12 1   
    16    8   37 1   
    17    9   10 1   
    18    9   13 1   
    19   10   11 1   
    20   10   38 1   
    21   10   39 1   
    22   11   12 1   
    23   11   27 1   
    24   12   40 1   
    25   12   41 1   
    26   13   14 2   
    27   13   17 1   
    28   14   15 1   
    29   14   42 1   
    30   15   16 2   
    31   15   43 1   
    32   16   17 1   
    33   16   18 1   
    34   18   19 ar  
    35   18   23 ar  
    36   19   20 ar  
    37   19   44 1   
    38   20   21 ar  
    39   20   24 1   
    40   21   22 ar  
    41   21   26 1   
    42   22   23 ar  
    43   22   45 1   
    44   23   46 1   
    45   24   25 3   
    46   27   28 ar  
    47   27   32 ar  
    48   28   29 ar  
    49   28   47 1   
    50   29   30 ar  
    51   29   48 1   
    52   30   31 ar  
    53   30   49 1   
    54   31   32 ar  
    55   31   50 1   
    56   32   51 1   
@<TRIPOS>SUBSTRUCTURE
     1 10W         1 TEMP              0 ****  ****    0 ROOT
