@<TRIPOS>MOLECULE
10W
   52    56     1     0     0
SMALL
bcc


@<TRIPOS>ATOM
      1 C1         -2.2880    2.2350   -1.5000 c         1 10W      0.720500
      2 N1         -1.9740    3.3550   -0.7340 n         1 10W     -0.429300
      3 C2         -1.6920    3.2570    0.6760 c2        1 10W      0.645800
      4 N2         -2.0730    2.0170    1.2950 nh        1 10W     -0.760200
      5 N3         -1.1880    4.2070    1.4150 n2        1 10W     -0.852100
      6 C3         -2.0860    4.6730   -1.3050 c3        1 10W      0.064300
      7 O1         -2.6460    2.3600   -2.6870 o         1 10W     -0.621500
      8 C4         -2.1400    0.8530   -0.9000 c3        1 10W     -0.146700
      9 C5         -1.6920    0.7980    0.5870 c3        1 10W      0.278500
     10 C6         -2.5220   -0.4190    1.1590 c3        1 10W      0.193800
     11 N4         -3.6870   -0.5970    0.3070 nh        1 10W     -0.626000
     12 C7         -3.4920    0.1050   -0.9550 c3        1 10W      0.199800
     13 C8         -0.2360    0.4720    0.7240 cc        1 10W     -0.171400
     14 C9          0.4050    0.3170    1.9430 cd        1 10W     -0.138000
     15 C10         1.7860    0.0100    1.7850 cd        1 10W     -0.139000
     16 C11         2.1480   -0.0620    0.4480 cc        1 10W     -0.068100
     17 S1          0.8300    0.2480   -0.5480 ss        1 10W      0.065200
     18 C12         3.4660   -0.3530   -0.0620 ca        1 10W     -0.023000
     19 C13         4.6030   -0.0200    0.6860 ca        1 10W     -0.055000
     20 C14         5.8860   -0.3000    0.2020 ca        1 10W     -0.046000
     21 C15         6.0340   -0.9240   -1.0590 ca        1 10W      0.168900
     22 C16         4.8900   -1.2570   -1.8110 ca        1 10W     -0.165000
     23 C17         3.6270   -0.9730   -1.3130 ca        1 10W     -0.084000
     24 C18         7.0220    0.0460    0.9800 cg        1 10W      0.230800
     25 N5          7.9520    0.3310    1.6190 n1        1 10W     -0.341800
     26 F1          7.2600   -1.2070   -1.5510 f         1 10W     -0.120900
     27 C19        -4.2850   -1.8740    0.2670 ca        1 10W      0.141600
     28 C20        -4.0610   -2.8220    1.2920 ca        1 10W     -0.180000
     29 C21        -4.7350   -4.0390    1.2880 ca        1 10W     -0.098000
     30 C22        -5.6410   -4.3490    0.2760 ca        1 10W     -0.164000
     31 C23        -5.8780   -3.4210   -0.7360 ca        1 10W     -0.098000
     32 C24        -5.2170   -2.1980   -0.7490 ca        1 10W     -0.180000
     33 H1         -1.0450    5.0920    0.9810 hn        1 10W      0.407400
     34 H3         -2.7860    5.3070   -0.6960 h1        1 10W      0.058033
     35 H4         -1.0760    5.1630   -1.3360 h1        1 10W      0.058033
     36 H5         -2.4830    4.6020   -2.3530 h1        1 10W      0.058033
     37 H6         -1.3940    0.3040   -1.5410 hc        1 10W      0.090700
     38 H7         -1.8540   -1.3260    1.1720 h1        1 10W      0.062200
     39 H8         -2.8750   -0.2230    2.2070 h1        1 10W      0.062200
     40 H9         -4.3410    0.8330   -1.0790 h1        1 10W      0.067700
     41 H10        -3.4920   -0.5880   -1.8420 h1        1 10W      0.067700
     42 H11        -0.0750    0.4130    2.9200 ha        1 10W      0.159000
     43 H12         2.4620   -0.1570    2.6270 ha        1 10W      0.162000
     44 H13         4.4890    0.4730    1.6650 ha        1 10W      0.156000
     45 H14         5.0140   -1.7430   -2.7900 ha        1 10W      0.160000
     46 H15         2.7370   -1.2420   -1.9060 ha        1 10W      0.146000
     47 H16        -3.3650   -2.6070    2.1160 ha        1 10W      0.133500
     48 H17        -4.5470   -4.7620    2.0960 ha        1 10W      0.131500
     49 H18        -6.1670   -5.3140    0.2780 ha        1 10W      0.133000
     50 H19        -6.5990   -3.6520   -1.5350 ha        1 10W      0.131500
     51 H20        -5.4440   -1.4780   -1.5500 ha        1 10W      0.133500
     52 H21        -1.8010    1.9790    2.2620 hn        1 10W      0.420800
@<TRIPOS>BOND
     1    1    2 1   
     2    1    7 2   
     3    1    8 1   
     4    2    3 1   
     5    2    6 1   
     6    3    4 1   
     7    3    5 2   
     8    4    9 1   
     9    4   52 1   
    10    5   33 1   
    11    6   34 1   
    12    6   35 1   
    13    6   36 1   
    14    8    9 1   
    15    8   12 1   
    16    8   37 1   
    17    9   10 1   
    18    9   13 1   
    19   10   11 1   
    20   10   38 1   
    21   10   39 1   
    22   11   12 1   
    23   11   27 1   
    24   12   40 1   
    25   12   41 1   
    26   13   14 2   
    27   13   17 1   
    28   14   15 1   
    29   14   42 1   
    30   15   16 2   
    31   15   43 1   
    32   16   17 1   
    33   16   18 1   
    34   18   19 ar  
    35   18   23 ar  
    36   19   20 ar  
    37   19   44 1   
    38   20   21 ar  
    39   20   24 1   
    40   21   22 ar  
    41   21   26 1   
    42   22   23 ar  
    43   22   45 1   
    44   23   46 1   
    45   24   25 3   
    46   27   28 ar  
    47   27   32 ar  
    48   28   29 ar  
    49   28   47 1   
    50   29   30 ar  
    51   29   48 1   
    52   30   31 ar  
    53   30   49 1   
    54   31   32 ar  
    55   31   50 1   
    56   32   51 1   
@<TRIPOS>SUBSTRUCTURE
     1 10W         1 TEMP              0 ****  ****    0 ROOT
